TITL C-3578206-1180-335 -6.51997549681597e-06 125000 -759.30623199834 0 0 122 (C1) n - 1
REM
REM in /home/bkarasulu/work/CARBON/AIRSS/Generating-Clusters/EDIP-Nigel-Params/with-SteepDescent/Higher-Symm/SD-CG/HFTN-CG
REM
REM
REM
REM
REM
REM ./C.cell (12c818d87b63d06a65506943cc24bca4)
REM
REM compiler GCC version 9.2.1 20190827 (Red Hat 9.2.1-1)
REM options -cpp -mtune=generic -march=x86-64 -g -O0 -fpre-include=/usr/include/finclude/math-vector-fortran.h
REM seed 557815274 326043720 1187371185 186141689 1065041234 -88021498 470320732 1844647490 -596645582 471953521 -1691748948 -1836078944 1970279718 -2073688203 2132445657 -47848696 -1743683725 1151726526 1693628581 -1127826603 1095398753 290970652 -124913286 -941232297 -245342417 -1603321338 89718232 1794552202 133366916 290991685 1804421418 1322049321 1372389679
REM
CELL 1.54180   50.00000   50.00000   50.00000   90.00000   90.00000   90.00000
LATT -1
SFAC C  
C      1  0.5655240000000  0.5702770000000  0.4966090000000 1.0
C      1  0.5185570000000  0.5659960000000  0.4396780000000 1.0
C      1  0.4482000000000  0.5666940000000  0.4620860000000 1.0
C      1  0.4587380000000  0.5603180000000  0.5348120000000 1.0
C      1  0.5144400000000  0.5558500000000  0.5491270000000 1.0
C      1  0.5659430000000  0.4298030000000  0.5039790000000 1.0
C      1  0.5175560000000  0.4367680000000  0.5601310000000 1.0
C      1  0.4493530000000  0.4307990000000  0.5303680000000 1.0
C      1  0.4429080000000  0.4299280000000  0.4588950000000 1.0
C      1  0.5220740000000  0.4356050000000  0.4522090000000 1.0
C      1  0.4179050000000  0.4982990000000  0.5250640000000 1.0
C      1  0.5000460000000  0.4996550000000  0.5971720000000 1.0
C      1  0.5828630000000  0.5035410000000  0.5247740000000 1.0
C      1  0.5509340000000  0.4995860000000  0.4284230000000 1.0
C      1  0.4450230000000  0.5017070000000  0.4275140000000 1.0
C      1  0.4153800000000  0.4986010000000  0.4718840000000 1.0
C      1  0.4990820000000  0.4975810000000  0.4132780000000 1.0
C      1  0.5845670000000  0.5001780000000  0.4755570000000 1.0
C      1  0.5554240000000  0.5015170000000  0.5706840000000 1.0
C      1  0.4454490000000  0.4974140000000  0.5688150000000 1.0
C      1  0.4630490000000  0.4357860000000  0.4148790000000 1.0
C      1  0.4090780000000  0.4303460000000  0.5020130000000 1.0
C      1  0.4784110000000  0.4392470000000  0.5877680000000 1.0
C      1  0.5757760000000  0.4378390000000  0.5497660000000 1.0
C      1  0.5690690000000  0.4346300000000  0.4501990000000 1.0
C      1  0.4718810000000  0.5654700000000  0.5809470000000 1.0
C      1  0.4178310000000  0.5596740000000  0.4963320000000 1.0
C      1  0.4779810000000  0.5659050000000  0.4159390000000 1.0
C      1  0.5717420000000  0.5649720000000  0.4495050000000 1.0
C      1  0.5584170000000  0.5738010000000  0.5449370000000 1.0
C      1  0.5487950000000  0.5269300000000  0.4313790000000 1.0
C      1  0.4492920000000  0.5291380000000  0.4293970000000 1.0
C      1  0.4325650000000  0.5215120000000  0.5218050000000 1.0
C      1  0.5000720000000  0.5240930000000  0.5839260000000 1.0
C      1  0.5790990000000  0.5312240000000  0.5244670000000 1.0
C      1  0.5486500000000  0.4753260000000  0.5643130000000 1.0
C      1  0.4535210000000  0.4722530000000  0.5610410000000 1.0
C      1  0.4155290000000  0.4707110000000  0.4729690000000 1.0
C      1  0.4981830000000  0.4710550000000  0.4213470000000 1.0
C      1  0.5822920000000  0.4725560000000  0.4753080000000 1.0
C      1  0.4890470000000  0.4058610000000  0.5264770000000 1.0
C      1  0.5183550000000  0.4050190000000  0.5237640000000 1.0
C      1  0.5226180000000  0.4112650000000  0.4966400000000 1.0
C      1  0.4949070000000  0.4245590000000  0.4585110000000 1.0
C      1  0.4764440000000  0.4111100000000  0.5010200000000 1.0
C      1  0.4924060000000  0.5980760000000  0.4821970000000 1.0
C      1  0.5192450000000  0.5879220000000  0.4872710000000 1.0
C      1  0.5244480000000  0.5985390000000  0.5298650000000 1.0
C      1  0.4953180000000  0.5976120000000  0.5309450000000 1.0
C      1  0.4797260000000  0.5907100000000  0.5071240000000 1.0
C      1  0.4720430000000  0.4587740000000  0.4306420000000 1.0
C      1  0.4226370000000  0.4561360000000  0.4983380000000 1.0
C      1  0.4802280000000  0.4615380000000  0.5684180000000 1.0
C      1  0.5590320000000  0.4605400000000  0.5409170000000 1.0
C      1  0.5594410000000  0.4601830000000  0.4615870000000 1.0
C      1  0.4761430000000  0.5375640000000  0.5714280000000 1.0
C      1  0.4370660000000  0.5369620000000  0.4970800000000 1.0
C      1  0.4769090000000  0.5408870000000  0.4313770000000 1.0
C      1  0.5573830000000  0.5404030000000  0.4565490000000 1.0
C      1  0.5575710000000  0.5435860000000  0.5410650000000 1.0
C      1  0.5597810000000  0.5871840000000  0.5192870000000 1.0
C      1  0.5361380000000  0.5894490000000  0.4641410000000 1.0
C      1  0.4791290000000  0.5894710000000  0.4568630000000 1.0
C      1  0.4517340000000  0.5863560000000  0.5077140000000 1.0
C      1  0.4844790000000  0.5935860000000  0.5572030000000 1.0
C      1  0.5489940000000  0.4107840000000  0.4846720000000 1.0
C      1  0.5396520000000  0.4106440000000  0.5426020000000 1.0
C      1  0.4756920000000  0.4124530000000  0.5506340000000 1.0
C      1  0.4491010000000  0.4097090000000  0.4911430000000 1.0
C      1  0.4825930000000  0.4053670000000  0.4404020000000 1.0
C      1  0.4920780000000  0.4761430000000  0.4701940000000 1.0
C      1  0.4719180000000  0.4936500000000  0.4853350000000 1.0
C      1  0.4687780000000  0.4733630000000  0.5073520000000 1.0
C      1  0.4965160000000  0.4678210000000  0.5159270000000 1.0
C      1  0.5136700000000  0.4742990000000  0.4918560000000 1.0
C      1  0.5204340000000  0.5147540000000  0.5211980000000 1.0
C      1  0.4913100000000  0.5184070000000  0.5244320000000 1.0
C      1  0.4851850000000  0.5199460000000  0.4946580000000 1.0
C      1  0.5115280000000  0.5202550000000  0.4777330000000 1.0
C      1  0.5263960000000  0.5016680000000  0.4949800000000 1.0
C      1  0.5309270000000  0.5816630000000  0.5521580000000 1.0
C      1  0.5629300000000  0.5820670000000  0.4699290000000 1.0
C      1  0.4943730000000  0.5814690000000  0.4328010000000 1.0
C      1  0.4348590000000  0.5793360000000  0.4856470000000 1.0
C      1  0.4602080000000  0.5792040000000  0.5584170000000 1.0
C      1  0.5469050000000  0.4183180000000  0.4562600000000 1.0
C      1  0.5660490000000  0.4178750000000  0.5322960000000 1.0
C      1  0.4934110000000  0.4207740000000  0.5723560000000 1.0
C      1  0.4303650000000  0.4149430000000  0.5126950000000 1.0
C      1  0.4575250000000  0.4171820000000  0.4354600000000 1.0
C      1  0.4538250000000  0.4487340000000  0.4961510000000 1.0
C      1  0.4987930000000  0.4474280000000  0.5374370000000 1.0
C      1  0.5342800000000  0.4458980000000  0.5214960000000 1.0
C      1  0.5345130000000  0.4521410000000  0.4855920000000 1.0
C      1  0.4771900000000  0.4502580000000  0.4611250000000 1.0
C      1  0.4708180000000  0.5493550000000  0.4946110000000 1.0
C      1  0.4841140000000  0.5517600000000  0.4636080000000 1.0
C      1  0.5258080000000  0.5464250000000  0.4725460000000 1.0
C      1  0.5274430000000  0.5443410000000  0.5226730000000 1.0
C      1  0.4854620000000  0.5433020000000  0.5417640000000 1.0
C      1  0.5780950000000  0.5437240000000  0.4985800000000 1.0
C      1  0.5235040000000  0.5399360000000  0.4247830000000 1.0
C      1  0.4352470000000  0.5410210000000  0.4515880000000 1.0
C      1  0.4391770000000  0.5384250000000  0.5434690000000 1.0
C      1  0.5228760000000  0.5373630000000  0.5711680000000 1.0
C      1  0.5813560000000  0.4585660000000  0.5008110000000 1.0
C      1  0.5251940000000  0.4627300000000  0.5750120000000 1.0
C      1  0.4379080000000  0.4563960000000  0.5424390000000 1.0
C      1  0.4318010000000  0.4579390000000  0.4528010000000 1.0
C      1  0.5224420000000  0.4591380000000  0.4330800000000 1.0
C      1  0.4197040000000  0.4706220000000  0.5243140000000 1.0
C      1  0.5019490000000  0.4800760000000  0.5775580000000 1.0
C      1  0.5757960000000  0.4765860000000  0.5227970000000 1.0
C      1  0.5456630000000  0.4749000000000  0.4393040000000 1.0
C      1  0.4477700000000  0.4750490000000  0.4347890000000 1.0
C      1  0.4315160000000  0.5214160000000  0.4727490000000 1.0
C      1  0.4995670000000  0.5239580000000  0.4218010000000 1.0
C      1  0.5752880000000  0.5262520000000  0.4757840000000 1.0
C      1  0.5501150000000  0.5284330000000  0.5665680000000 1.0
C      1  0.4490630000000  0.5248030000000  0.5676470000000 1.0
C      1  0.4978440000000  0.4101860000000  0.4829760000000 1.0
C      1  0.5095410000000  0.5597800000000  0.4967240000000 1.0
END
