TITL C-3578200-9634-717 -7.03465346080189e-07 125000 -31.5108688542988 0 0 7 (D3h) n - 1
REM
REM in /home/bkarasulu/work/CARBON/AIRSS/Generating-Clusters/EDIP-Nigel-Params/with-SteepDescent/Higher-Symm/SD-CG/HFTN-CG
REM
REM
REM
REM
REM
REM ./C.cell (12c818d87b63d06a65506943cc24bca4)
REM
REM compiler GCC version 9.2.1 20190827 (Red Hat 9.2.1-1)
REM options -cpp -mtune=generic -march=x86-64 -g -O0 -fpre-include=/usr/include/finclude/math-vector-fortran.h
REM seed -368950788 -273846479 2132006935 -1060234174 274792862 597526162 405806596 290293845 58159969 1083836342 45373133 2020321013 244723596 341104971 -951004425 -1482443231 962773893 1824831277 -707507397 -523930672 -406335249 -1498102223 1431538333 -584469387 -388275242 -1830305059 -1056046791 -1487640027 -815668700 -1350492398 -1613478103 -1891673771 -759167702
REM
CELL 1.54180   50.00000   50.00000   50.00000   90.00000   90.00000   90.00000
LATT -1
SFAC C  
C      1  0.4655290000000  0.5031320000000  0.4602810000000 1.0
C      1  0.5516240000000  0.5032770000000  0.4920110000000 1.0
C      1  0.4811000000000  0.5024340000000  0.5507030000000 1.0
C      1  0.4819080000000  0.5030430000000  0.4799600000000 1.0
C      1  0.5263920000000  0.5031180000000  0.4963540000000 1.0
C      1  0.4899530000000  0.5026820000000  0.5266800000000 1.0
C      1  0.4994180000000  0.5029480000000  0.5009980000000 1.0
END
