TITL C-3577086-586-267 -4.78002969561343e-06 125000 -1139.87700499507 0 0 183 (C1) n - 1
REM
REM in /home/bkarasulu/work/CARBON/AIRSS/Generating-Clusters/EDIP-Nigel-Params/with-SteepDescent/Higher-Symm/SD-CG/HFTN-CG
REM
REM
REM
REM
REM
REM ./C.cell (12c818d87b63d06a65506943cc24bca4)
REM
REM compiler GCC version 9.2.1 20190827 (Red Hat 9.2.1-1)
REM options -cpp -mtune=generic -march=x86-64 -g -O0 -fpre-include=/usr/include/finclude/math-vector-fortran.h
REM seed -1759218652 1523502706 1124004068 1594864161 -1820517240 1657332442 790744846 -1726386914 -715525441 1716386944 1752778540 -1986865930 -42714480 1531090506 -340337988 -1254742050 442808166 -924598966 1892246313 803837111 -1275903264 1646299591 -878370833 -24365346 2088537096 -1788903765 378584913 1041959080 1398287651 1617036175 -1135345265 596943881 -1492869974
REM
CELL 1.54180   50.00000   50.00000   50.00000   90.00000   90.00000   90.00000
LATT -1
SFAC C  
C      1  0.5282460000000  0.5037230000000  0.6138400000000 1.0
C      1  0.4713610000000  0.5143450000000  0.3808700000000 1.0
C      1  0.4710420000000  0.4935730000000  0.6194050000000 1.0
C      1  0.5265030000000  0.4964620000000  0.3870240000000 1.0
C      1  0.6166640000000  0.5130090000000  0.5273660000000 1.0
C      1  0.3838020000000  0.5043450000000  0.4742250000000 1.0
C      1  0.6122430000000  0.4924020000000  0.4743300000000 1.0
C      1  0.3840500000000  0.4909090000000  0.5315560000000 1.0
C      1  0.3948810000000  0.5170430000000  0.5184640000000 1.0
C      1  0.6064120000000  0.5222810000000  0.4814050000000 1.0
C      1  0.6116670000000  0.4834200000000  0.5234960000000 1.0
C      1  0.3881230000000  0.4760670000000  0.4845680000000 1.0
C      1  0.5173940000000  0.5283250000000  0.3881950000000 1.0
C      1  0.4817490000000  0.5209790000000  0.6102810000000 1.0
C      1  0.5162970000000  0.4738120000000  0.6105220000000 1.0
C      1  0.4769280000000  0.4858300000000  0.3890670000000 1.0
C      1  0.4954500000000  0.4461730000000  0.5707890000000 1.0
C      1  0.5003030000000  0.4610600000000  0.4330710000000 1.0
C      1  0.5031030000000  0.5398720000000  0.5684040000000 1.0
C      1  0.4967660000000  0.5585710000000  0.4237700000000 1.0
C      1  0.5747400000000  0.4527790000000  0.5011510000000 1.0
C      1  0.4228570000000  0.4539110000000  0.5059270000000 1.0
C      1  0.5649880000000  0.5510340000000  0.5015510000000 1.0
C      1  0.4367010000000  0.5316010000000  0.4971230000000 1.0
C      1  0.4138560000000  0.4307310000000  0.4915960000000 1.0
C      1  0.5789700000000  0.4233010000000  0.5048930000000 1.0
C      1  0.5780550000000  0.5766900000000  0.4910790000000 1.0
C      1  0.4285410000000  0.5556610000000  0.5115960000000 1.0
C      1  0.4934440000000  0.4342690000000  0.4191120000000 1.0
C      1  0.5072720000000  0.4239140000000  0.5870440000000 1.0
C      1  0.4914270000000  0.5627400000000  0.5833950000000 1.0
C      1  0.5116900000000  0.5790980000000  0.4071760000000 1.0
C      1  0.5509180000000  0.5878710000000  0.4288330000000 1.0
C      1  0.4557930000000  0.5876960000000  0.5682460000000 1.0
C      1  0.4551400000000  0.4113330000000  0.4340350000000 1.0
C      1  0.5444160000000  0.4157110000000  0.5639420000000 1.0
C      1  0.4371350000000  0.5851930000000  0.5449380000000 1.0
C      1  0.5701050000000  0.5965770000000  0.4495550000000 1.0
C      1  0.4372420000000  0.4220150000000  0.4547140000000 1.0
C      1  0.5634440000000  0.4054970000000  0.5446210000000 1.0
C      1  0.4126790000000  0.4494470000000  0.4244170000000 1.0
C      1  0.5841860000000  0.4470410000000  0.5583770000000 1.0
C      1  0.5859180000000  0.5534360000000  0.4382780000000 1.0
C      1  0.4090000000000  0.5512550000000  0.5706240000000 1.0
C      1  0.4391900000000  0.4506550000000  0.4131570000000 1.0
C      1  0.5723540000000  0.4475110000000  0.5846490000000 1.0
C      1  0.4286680000000  0.5518800000000  0.5921470000000 1.0
C      1  0.5754220000000  0.5516850000000  0.4113260000000 1.0
C      1  0.5085230000000  0.4719240000000  0.5816360000000 1.0
C      1  0.4965860000000  0.4886760000000  0.4179060000000 1.0
C      1  0.4975780000000  0.5139720000000  0.5840500000000 1.0
C      1  0.5078860000000  0.5309390000000  0.4160380000000 1.0
C      1  0.5837660000000  0.4824910000000  0.5058980000000 1.0
C      1  0.4175670000000  0.4794290000000  0.4912560000000 1.0
C      1  0.5793410000000  0.5243280000000  0.4939150000000 1.0
C      1  0.4221190000000  0.5063670000000  0.5084120000000 1.0
C      1  0.3752930000000  0.4736600000000  0.5107200000000 1.0
C      1  0.6202410000000  0.4745450000000  0.4956350000000 1.0
C      1  0.6230980000000  0.5291510000000  0.5047750000000 1.0
C      1  0.3787610000000  0.5224100000000  0.4949610000000 1.0
C      1  0.5051340000000  0.4776610000000  0.3820950000000 1.0
C      1  0.4913210000000  0.4746490000000  0.6252160000000 1.0
C      1  0.5087080000000  0.5232470000000  0.6209820000000 1.0
C      1  0.4929750000000  0.5306350000000  0.3730780000000 1.0
C      1  0.5398170000000  0.4779920000000  0.4897730000000 1.0
C      1  0.4562500000000  0.4746990000000  0.5310410000000 1.0
C      1  0.4737400000000  0.5055960000000  0.4853400000000 1.0
C      1  0.5354580000000  0.5257580000000  0.5131990000000 1.0
C      1  0.4815980000000  0.4811200000000  0.5473040000000 1.0
C      1  0.5086770000000  0.4738490000000  0.4864570000000 1.0
C      1  0.4837920000000  0.5147080000000  0.4592760000000 1.0
C      1  0.5085630000000  0.5118720000000  0.5226070000000 1.0
C      1  0.4411650000000  0.5271070000000  0.5943830000000 1.0
C      1  0.5650280000000  0.5267790000000  0.4057020000000 1.0
C      1  0.5646570000000  0.4725910000000  0.5921480000000 1.0
C      1  0.4490590000000  0.4756890000000  0.4017820000000 1.0
C      1  0.5960810000000  0.5291040000000  0.4496020000000 1.0
C      1  0.4075830000000  0.5254170000000  0.5595410000000 1.0
C      1  0.5953170000000  0.4728600000000  0.5491790000000 1.0
C      1  0.4023340000000  0.4744980000000  0.4292530000000 1.0
C      1  0.5787380000000  0.4576290000000  0.4540760000000 1.0
C      1  0.4121750000000  0.4522420000000  0.5530770000000 1.0
C      1  0.4129210000000  0.5399600000000  0.4506810000000 1.0
C      1  0.5853920000000  0.5469840000000  0.5505530000000 1.0
C      1  0.4494600000000  0.4557590000000  0.5958980000000 1.0
C      1  0.5471360000000  0.4579400000000  0.4187240000000 1.0
C      1  0.4440020000000  0.5486640000000  0.4098840000000 1.0
C      1  0.5510050000000  0.5422200000000  0.5856750000000 1.0
C      1  0.5318020000000  0.5634330000000  0.3916010000000 1.0
C      1  0.4715660000000  0.5570030000000  0.6034100000000 1.0
C      1  0.4775660000000  0.4310220000000  0.3957880000000 1.0
C      1  0.5279260000000  0.4380260000000  0.6034010000000 1.0
C      1  0.4043270000000  0.5533360000000  0.5264710000000 1.0
C      1  0.6026940000000  0.5756240000000  0.4769450000000 1.0
C      1  0.3963550000000  0.4413740000000  0.4702210000000 1.0
C      1  0.6015550000000  0.4195760000000  0.5219220000000 1.0
C      1  0.4750860000000  0.5063030000000  0.5620880000000 1.0
C      1  0.5260030000000  0.5175990000000  0.4340520000000 1.0
C      1  0.5264390000000  0.4871360000000  0.5648630000000 1.0
C      1  0.4735810000000  0.4992290000000  0.4358110000000 1.0
C      1  0.5618370000000  0.5076060000000  0.4775900000000 1.0
C      1  0.4384440000000  0.4992190000000  0.5318240000000 1.0
C      1  0.5610010000000  0.4979270000000  0.5235330000000 1.0
C      1  0.4341680000000  0.4792430000000  0.4668650000000 1.0
C      1  0.4570670000000  0.5781900000000  0.4443260000000 1.0
C      1  0.5315520000000  0.5741280000000  0.5530010000000 1.0
C      1  0.5256450000000  0.4295550000000  0.4573290000000 1.0
C      1  0.4485980000000  0.4239870000000  0.5649540000000 1.0
C      1  0.4552730000000  0.5603740000000  0.4660840000000 1.0
C      1  0.5534370000000  0.5795000000000  0.5367740000000 1.0
C      1  0.4479440000000  0.4235220000000  0.5347120000000 1.0
C      1  0.5425760000000  0.4305630000000  0.4801430000000 1.0
C      1  0.4386260000000  0.4160960000000  0.4830120000000 1.0
C      1  0.5544940000000  0.4067670000000  0.5154860000000 1.0
C      1  0.5594300000000  0.5955510000000  0.4779120000000 1.0
C      1  0.4502080000000  0.5717620000000  0.5223230000000 1.0
C      1  0.4840190000000  0.4156530000000  0.4395870000000 1.0
C      1  0.5174360000000  0.4057970000000  0.5647490000000 1.0
C      1  0.4831430000000  0.5786580000000  0.5610880000000 1.0
C      1  0.5241740000000  0.5985090000000  0.4283960000000 1.0
C      1  0.4009590000000  0.4799860000000  0.5551620000000 1.0
C      1  0.5937370000000  0.4830070000000  0.4521490000000 1.0
C      1  0.5966620000000  0.5199680000000  0.5486390000000 1.0
C      1  0.4009570000000  0.5131300000000  0.4512000000000 1.0
C      1  0.5482020000000  0.4853960000000  0.4057420000000 1.0
C      1  0.4498150000000  0.4839530000000  0.6013870000000 1.0
C      1  0.5507870000000  0.5145000000000  0.5964570000000 1.0
C      1  0.4490720000000  0.5217220000000  0.3995920000000 1.0
C      1  0.5043500000000  0.5845990000000  0.5125260000000 1.0
C      1  0.5127520000000  0.5929140000000  0.4563840000000 1.0
C      1  0.5031660000000  0.4131950000000  0.5393820000000 1.0
C      1  0.4907870000000  0.4090270000000  0.4921440000000 1.0
C      1  0.5288820000000  0.5918160000000  0.4831180000000 1.0
C      1  0.4753970000000  0.5769860000000  0.5063580000000 1.0
C      1  0.5147880000000  0.4051640000000  0.5129080000000 1.0
C      1  0.4624400000000  0.4230810000000  0.5016000000000 1.0
C      1  0.5547710000000  0.4936250000000  0.5754880000000 1.0
C      1  0.4461650000000  0.4994200000000  0.4207170000000 1.0
C      1  0.4465190000000  0.5037300000000  0.5788750000000 1.0
C      1  0.5537440000000  0.5082410000000  0.4243670000000 1.0
C      1  0.5762270000000  0.4971800000000  0.5510570000000 1.0
C      1  0.4212090000000  0.4921690000000  0.4420750000000 1.0
C      1  0.5752520000000  0.5064570000000  0.4493330000000 1.0
C      1  0.4231060000000  0.5011400000000  0.5574020000000 1.0
C      1  0.4096780000000  0.5715880000000  0.5492050000000 1.0
C      1  0.5941500000000  0.5787490000000  0.4499440000000 1.0
C      1  0.5895090000000  0.4200940000000  0.5475510000000 1.0
C      1  0.4108320000000  0.4313300000000  0.4471860000000 1.0
C      1  0.5564070000000  0.5724670000000  0.4047930000000 1.0
C      1  0.4484840000000  0.5734160000000  0.5945420000000 1.0
C      1  0.5514550000000  0.4281970000000  0.5890110000000 1.0
C      1  0.4519260000000  0.4254100000000  0.4071270000000 1.0
C      1  0.5579670000000  0.4553470000000  0.4782080000000 1.0
C      1  0.4343750000000  0.4508600000000  0.5325850000000 1.0
C      1  0.4358040000000  0.5393730000000  0.4681270000000 1.0
C      1  0.5643410000000  0.5542070000000  0.5310320000000 1.0
C      1  0.4658240000000  0.4457820000000  0.5745140000000 1.0
C      1  0.5276000000000  0.4543730000000  0.4400030000000 1.0
C      1  0.4663820000000  0.5625540000000  0.4231740000000 1.0
C      1  0.5311750000000  0.5473770000000  0.5648640000000 1.0
C      1  0.4984010000000  0.4199030000000  0.4649740000000 1.0
C      1  0.5016100000000  0.4426860000000  0.5399620000000 1.0
C      1  0.5056990000000  0.5655350000000  0.4515850000000 1.0
C      1  0.5061970000000  0.5842120000000  0.5427520000000 1.0
C      1  0.4671060000000  0.4564760000000  0.5026900000000 1.0
C      1  0.5267190000000  0.4311080000000  0.5053160000000 1.0
C      1  0.4760020000000  0.5547350000000  0.4873280000000 1.0
C      1  0.5250510000000  0.5615940000000  0.4963630000000 1.0
C      1  0.4666910000000  0.5297010000000  0.5035100000000 1.0
C      1  0.5366340000000  0.5213530000000  0.4825730000000 1.0
C      1  0.5400980000000  0.4773510000000  0.5206130000000 1.0
C      1  0.4630840000000  0.4761180000000  0.4771130000000 1.0
C      1  0.5149530000000  0.5155620000000  0.4611160000000 1.0
C      1  0.4855150000000  0.5282400000000  0.5374490000000 1.0
C      1  0.5151290000000  0.4849390000000  0.5373860000000 1.0
C      1  0.4886630000000  0.4661340000000  0.4611270000000 1.0
C      1  0.5714400000000  0.4483890000000  0.4285980000000 1.0
C      1  0.4200420000000  0.5494940000000  0.4250530000000 1.0
C      1  0.4227810000000  0.4369060000000  0.5758130000000 1.0
C      1  0.5764510000000  0.5511650000000  0.5771050000000 1.0
C      1  0.4974880000000  0.4556590000000  0.5098200000000 1.0
C      1  0.5042520000000  0.5497570000000  0.4758950000000 1.0
C      1  0.4978580000000  0.4985120000000  0.4981650000000 1.0
END
