TITL C-3578200-9634-738 -1.45660217431989e-06 125000 -412.083775663638 0 0 69 (C1) n - 1
REM
REM in /home/bkarasulu/work/CARBON/AIRSS/Generating-Clusters/EDIP-Nigel-Params/with-SteepDescent/Higher-Symm/SD-CG/HFTN-CG
REM
REM
REM
REM
REM
REM ./C.cell (12c818d87b63d06a65506943cc24bca4)
REM
REM compiler GCC version 9.2.1 20190827 (Red Hat 9.2.1-1)
REM options -cpp -mtune=generic -march=x86-64 -g -O0 -fpre-include=/usr/include/finclude/math-vector-fortran.h
REM seed -1588527326 1018998303 445652163 1977492513 -1267502111 414963907 -1771249478 2136700169 -1593583109 -744454016 185055994 519869014 1579811933 -517473051 -596774510 774695277 760336387 -960289631 -1748326612 -1547743143 -899705786 -1133317547 1783211806 -389166568 -1840264637 1641094115 -1738161743 118002666 -308763950 876802310 -1256211556 -912099620 -977302428
REM
CELL 1.54180   50.00000   50.00000   50.00000   90.00000   90.00000   90.00000
LATT -1
SFAC C  
C      1  0.4673170000000  0.5623050000000  0.4815910000000 1.0
C      1  0.5102490000000  0.5577220000000  0.4605050000000 1.0
C      1  0.5419660000000  0.5632410000000  0.4974980000000 1.0
C      1  0.5171160000000  0.5633900000000  0.5404400000000 1.0
C      1  0.4686820000000  0.5581280000000  0.5293300000000 1.0
C      1  0.5705510000000  0.4925340000000  0.5420560000000 1.0
C      1  0.4809500000000  0.4937790000000  0.5833080000000 1.0
C      1  0.4161100000000  0.4925590000000  0.5089640000000 1.0
C      1  0.4634960000000  0.4944980000000  0.4249010000000 1.0
C      1  0.5610570000000  0.4946790000000  0.4415400000000 1.0
C      1  0.4423260000000  0.4736770000000  0.4720100000000 1.0
C      1  0.5033820000000  0.4744360000000  0.4411640000000 1.0
C      1  0.5591900000000  0.4735970000000  0.4857790000000 1.0
C      1  0.5236010000000  0.4757690000000  0.5470660000000 1.0
C      1  0.4555320000000  0.4748300000000  0.5465390000000 1.0
C      1  0.4841040000000  0.5477130000000  0.4621080000000 1.0
C      1  0.5332330000000  0.5486750000000  0.4734820000000 1.0
C      1  0.5416770000000  0.5541260000000  0.5257960000000 1.0
C      1  0.4907530000000  0.5507490000000  0.5450830000000 1.0
C      1  0.4573530000000  0.5480910000000  0.5054680000000 1.0
C      1  0.4908030000000  0.4304660000000  0.4543070000000 1.0
C      1  0.5471600000000  0.4289510000000  0.4757820000000 1.0
C      1  0.5307150000000  0.4309290000000  0.5342990000000 1.0
C      1  0.4677520000000  0.4294910000000  0.5469340000000 1.0
C      1  0.4646060000000  0.4346830000000  0.4984550000000 1.0
C      1  0.4603600000000  0.5129960000000  0.5692120000000 1.0
C      1  0.4218490000000  0.5118640000000  0.4850900000000 1.0
C      1  0.4876520000000  0.5115340000000  0.4194420000000 1.0
C      1  0.5704120000000  0.5124240000000  0.4669380000000 1.0
C      1  0.5507070000000  0.5130770000000  0.5563890000000 1.0
C      1  0.5485560000000  0.4745240000000  0.5331770000000 1.0
C      1  0.4809850000000  0.4746950000000  0.5594970000000 1.0
C      1  0.4368370000000  0.4727600000000  0.4999060000000 1.0
C      1  0.4752990000000  0.4733490000000  0.4426700000000 1.0
C      1  0.5493130000000  0.4735800000000  0.4591400000000 1.0
C      1  0.5395050000000  0.4451900000000  0.4531320000000 1.0
C      1  0.5529010000000  0.4459750000000  0.5247500000000 1.0
C      1  0.4891420000000  0.4465340000000  0.5542940000000 1.0
C      1  0.4423100000000  0.4465590000000  0.5111350000000 1.0
C      1  0.4678510000000  0.4461820000000  0.4487770000000 1.0
C      1  0.5757190000000  0.4967020000000  0.4916770000000 1.0
C      1  0.5252750000000  0.4997840000000  0.5633680000000 1.0
C      1  0.4397980000000  0.4978370000000  0.5535760000000 1.0
C      1  0.4299290000000  0.4969420000000  0.4610100000000 1.0
C      1  0.5113110000000  0.5002520000000  0.4314600000000 1.0
C      1  0.4729410000000  0.4977620000000  0.5032420000000 1.0
C      1  0.4901450000000  0.4974830000000  0.4765700000000 1.0
C      1  0.5217830000000  0.4971960000000  0.4848640000000 1.0
C      1  0.5229830000000  0.5059710000000  0.5148730000000 1.0
C      1  0.4940360000000  0.5025250000000  0.5278040000000 1.0
C      1  0.5063760000000  0.5083880000000  0.5833800000000 1.0
C      1  0.4253540000000  0.5096250000000  0.5315440000000 1.0
C      1  0.4454180000000  0.5110190000000  0.4412350000000 1.0
C      1  0.5383340000000  0.5101650000000  0.4308040000000 1.0
C      1  0.5793980000000  0.5081070000000  0.5183160000000 1.0
C      1  0.5456070000000  0.5241960000000  0.5268660000000 1.0
C      1  0.4887480000000  0.5216260000000  0.5517010000000 1.0
C      1  0.4494930000000  0.5191430000000  0.5035290000000 1.0
C      1  0.4794390000000  0.5189330000000  0.4558020000000 1.0
C      1  0.5386330000000  0.5193940000000  0.4683440000000 1.0
C      1  0.4471950000000  0.4476450000000  0.5396970000000 1.0
C      1  0.4755370000000  0.4583080000000  0.4844230000000 1.0
C      1  0.5107830000000  0.4514720000000  0.4585180000000 1.0
C      1  0.5451540000000  0.4497230000000  0.4965510000000 1.0
C      1  0.5101490000000  0.4518310000000  0.5334930000000 1.0
C      1  0.5081670000000  0.4624710000000  0.4959840000000 1.0
C      1  0.4970110000000  0.5294990000000  0.5001850000000 1.0
C      1  0.4858250000000  0.5810850000000  0.4928770000000 1.0
C      1  0.5043490000000  0.5603000000000  0.5044220000000 1.0
END
