TITL C-3577077-324-552 8.02045266502678e-07 125000 -508.140214686186 0 0 81 (C1) n - 1
REM
REM in /home/bkarasulu/work/CARBON/AIRSS/Generating-Clusters/EDIP-Nigel-Params/with-SteepDescent/Higher-Symm/SD-CG/HFTN-CG
REM
REM
REM
REM
REM
REM ./C.cell (12c818d87b63d06a65506943cc24bca4)
REM
REM compiler GCC version 9.2.1 20190827 (Red Hat 9.2.1-1)
REM options -cpp -mtune=generic -march=x86-64 -g -O0 -fpre-include=/usr/include/finclude/math-vector-fortran.h
REM seed 481301870 1430757714 63616139 529904087 1598936943 -161502868 1808538663 -318942397 -36350236 -563740234 35421967 -14369590 -588513196 -1711878902 1938334460 -2011513258 -1209220202 -484731371 -1307179831 2116085632 236540378 571080994 786743079 1347252118 -1435666637 776692318 616556790 479466214 849111765 1592276420 985401272 -455128747 -2065894771
REM
CELL 1.54180   50.00000   50.00000   50.00000   90.00000   90.00000   90.00000
LATT -1
SFAC C  
C      1  0.4770250000000  0.4420550000000  0.4537230000000 1.0
C      1  0.4502860000000  0.5580130000000  0.4762470000000 1.0
C      1  0.4487860000000  0.4408710000000  0.5234210000000 1.0
C      1  0.4769490000000  0.5572010000000  0.5477450000000 1.0
C      1  0.5207210000000  0.4417630000000  0.5471710000000 1.0
C      1  0.5503540000000  0.5633350000000  0.5234700000000 1.0
C      1  0.5509060000000  0.4380290000000  0.4754820000000 1.0
C      1  0.5240560000000  0.5597320000000  0.4503210000000 1.0
C      1  0.4834020000000  0.5098900000000  0.5210260000000 1.0
C      1  0.5101600000000  0.4968620000000  0.5195220000000 1.0
C      1  0.5267990000000  0.5191060000000  0.5103150000000 1.0
C      1  0.5358380000000  0.4695120000000  0.4931020000000 1.0
C      1  0.5156080000000  0.5347560000000  0.4859700000000 1.0
C      1  0.4980240000000  0.4978640000000  0.4735380000000 1.0
C      1  0.4830690000000  0.5308690000000  0.4888580000000 1.0
C      1  0.4645110000000  0.4954640000000  0.5023430000000 1.0
C      1  0.5640130000000  0.4630890000000  0.5512200000000 1.0
C      1  0.5827860000000  0.5409560000000  0.4956110000000 1.0
C      1  0.5458650000000  0.4674430000000  0.4365380000000 1.0
C      1  0.4989380000000  0.5257590000000  0.4226620000000 1.0
C      1  0.4366590000000  0.4692040000000  0.4565850000000 1.0
C      1  0.4196840000000  0.5265370000000  0.5031870000000 1.0
C      1  0.4537130000000  0.4698990000000  0.5621180000000 1.0
C      1  0.5056060000000  0.5302870000000  0.5777640000000 1.0
C      1  0.4723270000000  0.5566680000000  0.4549680000000 1.0
C      1  0.4448790000000  0.4433650000000  0.4944180000000 1.0
C      1  0.4555050000000  0.5549450000000  0.5271800000000 1.0
C      1  0.4921900000000  0.4457700000000  0.5499060000000 1.0
C      1  0.5293560000000  0.5596880000000  0.5451640000000 1.0
C      1  0.5545970000000  0.4391640000000  0.5086740000000 1.0
C      1  0.5469400000000  0.5617300000000  0.4706910000000 1.0
C      1  0.5060740000000  0.4447210000000  0.4501980000000 1.0
C      1  0.5013970000000  0.4880370000000  0.4246030000000 1.0
C      1  0.4618780000000  0.5099990000000  0.4463100000000 1.0
C      1  0.4179020000000  0.4884400000000  0.5002290000000 1.0
C      1  0.4407950000000  0.5101850000000  0.5425630000000 1.0
C      1  0.4977130000000  0.4932820000000  0.5685690000000 1.0
C      1  0.5436480000000  0.5118950000000  0.5528650000000 1.0
C      1  0.5682860000000  0.4904480000000  0.5105990000000 1.0
C      1  0.5539920000000  0.5127250000000  0.4667960000000 1.0
C      1  0.4814850000000  0.4885430000000  0.4468230000000 1.0
C      1  0.4565630000000  0.5141570000000  0.4756560000000 1.0
C      1  0.4399950000000  0.4893500000000  0.5203200000000 1.0
C      1  0.4712670000000  0.5089070000000  0.5499070000000 1.0
C      1  0.5223510000000  0.4903260000000  0.5502760000000 1.0
C      1  0.5537450000000  0.5156300000000  0.5240300000000 1.0
C      1  0.5631210000000  0.4874410000000  0.4792840000000 1.0
C      1  0.5252060000000  0.5167810000000  0.4620120000000 1.0
C      1  0.4620870000000  0.5671420000000  0.5016330000000 1.0
C      1  0.4754210000000  0.4304670000000  0.5314440000000 1.0
C      1  0.5022300000000  0.5697920000000  0.5385840000000 1.0
C      1  0.5307270000000  0.4284210000000  0.5231670000000 1.0
C      1  0.5375240000000  0.5709000000000  0.4975620000000 1.0
C      1  0.5233820000000  0.4282380000000  0.4671640000000 1.0
C      1  0.4988660000000  0.5648090000000  0.4664190000000 1.0
C      1  0.4671080000000  0.4308480000000  0.4787760000000 1.0
C      1  0.4979890000000  0.5925080000000  0.4781820000000 1.0
C      1  0.4804170000000  0.4060900000000  0.4877580000000 1.0
C      1  0.4770510000000  0.5925070000000  0.5009680000000 1.0
C      1  0.4856840000000  0.4057710000000  0.5180450000000 1.0
C      1  0.5001030000000  0.5942590000000  0.5221130000000 1.0
C      1  0.5165860000000  0.4047240000000  0.5131380000000 1.0
C      1  0.5209510000000  0.5950070000000  0.4985070000000 1.0
C      1  0.5115070000000  0.4050230000000  0.4820430000000 1.0
C      1  0.5182090000000  0.4651910000000  0.4329530000000 1.0
C      1  0.4730910000000  0.5340590000000  0.4345990000000 1.0
C      1  0.4279580000000  0.4654290000000  0.4830130000000 1.0
C      1  0.4336640000000  0.5344730000000  0.5280180000000 1.0
C      1  0.4812510000000  0.4683100000000  0.5649660000000 1.0
C      1  0.5307080000000  0.5363700000000  0.5640250000000 1.0
C      1  0.5670750000000  0.4634770000000  0.5234720000000 1.0
C      1  0.5664660000000  0.5388730000000  0.4726170000000 1.0
C      1  0.5231830000000  0.5330440000000  0.4369730000000 1.0
C      1  0.4627440000000  0.4655760000000  0.4462700000000 1.0
C      1  0.4331890000000  0.5327800000000  0.4780970000000 1.0
C      1  0.4410850000000  0.4651150000000  0.5375080000000 1.0
C      1  0.4796700000000  0.5335640000000  0.5650610000000 1.0
C      1  0.5363130000000  0.4644560000000  0.5553990000000 1.0
C      1  0.5696600000000  0.5408040000000  0.5205870000000 1.0
C      1  0.5614880000000  0.4623800000000  0.4594030000000 1.0
C      1  0.5079260000000  0.4790660000000  0.4954510000000 1.0
END
