TITL C-3578200-9634-117 -6.60690514348836e-06 125000 -786.150360297022 0 0 124 (C2) n - 1
REM
REM in /home/bkarasulu/work/CARBON/AIRSS/Generating-Clusters/EDIP-Nigel-Params/with-SteepDescent/Higher-Symm/SD-CG/HFTN-CG
REM
REM
REM
REM
REM
REM ./C.cell (12c818d87b63d06a65506943cc24bca4)
REM
REM compiler GCC version 9.2.1 20190827 (Red Hat 9.2.1-1)
REM options -cpp -mtune=generic -march=x86-64 -g -O0 -fpre-include=/usr/include/finclude/math-vector-fortran.h
REM seed -183367061 -797866056 -1789577219 -1756763768 457005099 589441569 -1863593126 257129967 -1209573225 -337808521 -893028108 -1701488342 1556190532 -1655630715 -314068435 -1969194237 1502190263 -191969412 -1813488974 -969107867 1790030796 -1004916333 -74819026 429961636 767185075 1184300784 1747763571 2084949876 660984264 374975811 -1390018096 -1148147280 -720786539
REM
CELL 1.54180   50.00000   50.00000   50.00000   90.00000   90.00000   90.00000
LATT -1
SFAC C  
C      1  0.5386560000000  0.4215540000000  0.4526820000000 1.0
C      1  0.4523600000000  0.5387810000000  0.4214640000000 1.0
C      1  0.4211270000000  0.4519700000000  0.5391400000000 1.0
C      1  0.5382240000000  0.5779620000000  0.5477830000000 1.0
C      1  0.4621380000000  0.5779580000000  0.4526090000000 1.0
C      1  0.4617100000000  0.4215560000000  0.5477190000000 1.0
C      1  0.4532190000000  0.4616460000000  0.5774120000000 1.0
C      1  0.5471460000000  0.4616430000000  0.4229860000000 1.0
C      1  0.5480040000000  0.5387870000000  0.5789300000000 1.0
C      1  0.4228820000000  0.5473850000000  0.4620040000000 1.0
C      1  0.5774820000000  0.5473880000000  0.5383890000000 1.0
C      1  0.5792380000000  0.4519690000000  0.4612590000000 1.0
C      1  0.5076860000000  0.4549750000000  0.5174680000000 1.0
C      1  0.5204180000000  0.5043410000000  0.4560080000000 1.0
C      1  0.4549500000000  0.5194420000000  0.5068550000000 1.0
C      1  0.5062130000000  0.5429320000000  0.4809510000000 1.0
C      1  0.4941510000000  0.5429330000000  0.5194430000000 1.0
C      1  0.4926790000000  0.4549740000000  0.4829310000000 1.0
C      1  0.5170990000000  0.4921110000000  0.5448090000000 1.0
C      1  0.4832650000000  0.4921080000000  0.4555870000000 1.0
C      1  0.4799460000000  0.5043430000000  0.5443880000000 1.0
C      1  0.4546410000000  0.4837150000000  0.4923660000000 1.0
C      1  0.5457240000000  0.4837170000000  0.5080320000000 1.0
C      1  0.5454140000000  0.5194430000000  0.4935410000000 1.0
C      1  0.5879590000000  0.5357250000000  0.5133110000000 1.0
C      1  0.5131950000000  0.5870390000000  0.5353080000000 1.0
C      1  0.5357570000000  0.5133880000000  0.5882730000000 1.0
C      1  0.5884890000000  0.4646240000000  0.4865200000000 1.0
C      1  0.4118760000000  0.4646230000000  0.5138780000000 1.0
C      1  0.4124050000000  0.5357220000000  0.4870830000000 1.0
C      1  0.5133090000000  0.4118780000000  0.4649200000000 1.0
C      1  0.4870570000000  0.4118790000000  0.5354810000000 1.0
C      1  0.4871670000000  0.5870360000000  0.4650840000000 1.0
C      1  0.5353250000000  0.4865270000000  0.4128050000000 1.0
C      1  0.4650400000000  0.4865310000000  0.5875920000000 1.0
C      1  0.4646070000000  0.5133820000000  0.4121230000000 1.0
C      1  0.5613520000000  0.5344060000000  0.4706480000000 1.0
C      1  0.4714190000000  0.5595490000000  0.5345090000000 1.0
C      1  0.5348830000000  0.4710300000000  0.5604920000000 1.0
C      1  0.5611720000000  0.4657140000000  0.5291350000000 1.0
C      1  0.4391940000000  0.4657110000000  0.4712640000000 1.0
C      1  0.4390110000000  0.5344070000000  0.5297470000000 1.0
C      1  0.4706430000000  0.4395020000000  0.4660150000000 1.0
C      1  0.5297230000000  0.4395040000000  0.5343840000000 1.0
C      1  0.5289440000000  0.5595480000000  0.4658840000000 1.0
C      1  0.5345270000000  0.5280960000000  0.4398590000000 1.0
C      1  0.4658370000000  0.5280990000000  0.5605360000000 1.0
C      1  0.4654820000000  0.4710260000000  0.4399060000000 1.0
C      1  0.5832180000000  0.5065920000000  0.5125040000000 1.0
C      1  0.5131390000000  0.5803160000000  0.5064120000000 1.0
C      1  0.5066390000000  0.5130940000000  0.5823390000000 1.0
C      1  0.5831910000000  0.4939440000000  0.4867120000000 1.0
C      1  0.4171730000000  0.4939430000000  0.5136850000000 1.0
C      1  0.4171460000000  0.5065900000000  0.4878920000000 1.0
C      1  0.5130800000000  0.4174690000000  0.4940120000000 1.0
C      1  0.4872860000000  0.4174690000000  0.5063890000000 1.0
C      1  0.4872240000000  0.5803150000000  0.4939800000000 1.0
C      1  0.5061580000000  0.4872570000000  0.4179670000000 1.0
C      1  0.4942060000000  0.4872620000000  0.5824300000000 1.0
C      1  0.4937250000000  0.5130890000000  0.4180560000000 1.0
C      1  0.4642230000000  0.5430040000000  0.4869870000000 1.0
C      1  0.4856840000000  0.4619310000000  0.5393640000000 1.0
C      1  0.5456850000000  0.4857810000000  0.4650340000000 1.0
C      1  0.4635050000000  0.4604220000000  0.5175360000000 1.0
C      1  0.5368610000000  0.4604210000000  0.4828630000000 1.0
C      1  0.5361410000000  0.5430060000000  0.5134070000000 1.0
C      1  0.4865680000000  0.5351060000000  0.4557060000000 1.0
C      1  0.5137960000000  0.5351090000000  0.5446890000000 1.0
C      1  0.5146810000000  0.4619290000000  0.4610350000000 1.0
C      1  0.5384760000000  0.5168660000000  0.5368580000000 1.0
C      1  0.4618880000000  0.5168630000000  0.4635370000000 1.0
C      1  0.4546800000000  0.4857820000000  0.5353630000000 1.0
C      1  0.4378110000000  0.4249190000000  0.5011490000000 1.0
C      1  0.5003710000000  0.4376530000000  0.4250230000000 1.0
C      1  0.4248820000000  0.5011110000000  0.4384150000000 1.0
C      1  0.4373790000000  0.5759170000000  0.5001260000000 1.0
C      1  0.5629840000000  0.5759190000000  0.5002660000000 1.0
C      1  0.5625550000000  0.4249210000000  0.4992510000000 1.0
C      1  0.5000500000000  0.5629100000000  0.5764560000000 1.0
C      1  0.5003130000000  0.5629060000000  0.4239370000000 1.0
C      1  0.4999950000000  0.4376580000000  0.5753770000000 1.0
C      1  0.4235840000000  0.4996440000000  0.5638680000000 1.0
C      1  0.5767810000000  0.4996420000000  0.4365290000000 1.0
C      1  0.5754830000000  0.5011160000000  0.5619810000000 1.0
C      1  0.5782770000000  0.4480220000000  0.5107450000000 1.0
C      1  0.5114400000000  0.5775690000000  0.4481080000000 1.0
C      1  0.4478620000000  0.5107610000000  0.5785230000000 1.0
C      1  0.5785510000000  0.5524980000000  0.4888660000000 1.0
C      1  0.4218120000000  0.5524970000000  0.5115270000000 1.0
C      1  0.4220890000000  0.4480190000000  0.4896540000000 1.0
C      1  0.5115820000000  0.4219810000000  0.5521900000000 1.0
C      1  0.4887840000000  0.4219780000000  0.4482110000000 1.0
C      1  0.4889230000000  0.5775720000000  0.5522830000000 1.0
C      1  0.4477960000000  0.4892940000000  0.4225950000000 1.0
C      1  0.5525690000000  0.4892990000000  0.5778020000000 1.0
C      1  0.5525020000000  0.5107570000000  0.4218720000000 1.0
C      1  0.5363620000000  0.4206790000000  0.5120480000000 1.0
C      1  0.5126050000000  0.5360350000000  0.4200960000000 1.0
C      1  0.4193820000000  0.5123440000000  0.5371620000000 1.0
C      1  0.5362360000000  0.5791320000000  0.4878230000000 1.0
C      1  0.4641270000000  0.5791320000000  0.5125690000000 1.0
C      1  0.4640040000000  0.4206780000000  0.4883530000000 1.0
C      1  0.5125610000000  0.4641220000000  0.5793980000000 1.0
C      1  0.4878040000000  0.4641170000000  0.4210000000000 1.0
C      1  0.4877580000000  0.5360400000000  0.5802980000000 1.0
C      1  0.4203010000000  0.4883120000000  0.4645850000000 1.0
C      1  0.5800630000000  0.4883160000000  0.5358120000000 1.0
C      1  0.5809820000000  0.5123430000000  0.4632340000000 1.0
C      1  0.5652550000000  0.4729380000000  0.4442090000000 1.0
C      1  0.4448800000000  0.5642810000000  0.4735110000000 1.0
C      1  0.4739370000000  0.4446790000000  0.5630060000000 1.0
C      1  0.5623630000000  0.5268150000000  0.5549000000000 1.0
C      1  0.4380010000000  0.5268100000000  0.4454940000000 1.0
C      1  0.4351100000000  0.4729400000000  0.5561890000000 1.0
C      1  0.4448780000000  0.4370390000000  0.5272900000000 1.0
C      1  0.5554870000000  0.4370390000000  0.4731100000000 1.0
C      1  0.5554830000000  0.5642830000000  0.5268810000000 1.0
C      1  0.4734920000000  0.5557850000000  0.4354700000000 1.0
C      1  0.5268710000000  0.5557900000000  0.5649230000000 1.0
C      1  0.5264290000000  0.4446760000000  0.4373940000000 1.0
C      1  0.4818500000000  0.5165900000000  0.5181060000000 1.0
C      1  0.5186560000000  0.4819050000000  0.5175920000000 1.0
C      1  0.5185140000000  0.5165890000000  0.4822900000000 1.0
C      1  0.4817080000000  0.4819030000000  0.4828060000000 1.0
END
