TITL C-3577089-586-17 -5.37097537478942e-06 125000 -449.921008575689 0 0 75 (D2) n - 1
REM
REM in /home/bkarasulu/work/CARBON/AIRSS/Generating-Clusters/EDIP-Nigel-Params/with-SteepDescent/Higher-Symm/SD-CG/HFTN-CG
REM
REM
REM
REM
REM
REM ./C.cell (12c818d87b63d06a65506943cc24bca4)
REM
REM compiler GCC version 9.2.1 20190827 (Red Hat 9.2.1-1)
REM options -cpp -mtune=generic -march=x86-64 -g -O0 -fpre-include=/usr/include/finclude/math-vector-fortran.h
REM seed -119357983 -1337895186 -1688001299 35680488 1917196396 778465374 -2107487958 -672698733 394562389 -1888922233 1497482154 1888507234 719713095 -279706507 -250714943 1666116704 -155197953 -1924115278 -1431421917 -2004823109 192513972 -1839997741 1368436958 -624824343 -516927267 -754459518 -238668268 -1154633625 -303938189 1286841333 -263694288 -481558067 1198756815
REM
CELL 1.54180   50.00000   50.00000   50.00000   90.00000   90.00000   90.00000
LATT -1
SFAC C  
C      1  0.4532390000000  0.5486940000000  0.4439860000000 1.0
C      1  0.5467040000000  0.4518910000000  0.4439620000000 1.0
C      1  0.4534060000000  0.4528750000000  0.5550530000000 1.0
C      1  0.5477440000000  0.5488220000000  0.5540560000000 1.0
C      1  0.4236240000000  0.5200450000000  0.4770900000000 1.0
C      1  0.5766770000000  0.4808700000000  0.4764510000000 1.0
C      1  0.4236960000000  0.4817940000000  0.5222720000000 1.0
C      1  0.5770970000000  0.5195730000000  0.5212450000000 1.0
C      1  0.4446230000000  0.4631480000000  0.5296110000000 1.0
C      1  0.5562490000000  0.5382930000000  0.5286240000000 1.0
C      1  0.4446400000000  0.5385000000000  0.4695220000000 1.0
C      1  0.5555810000000  0.4623410000000  0.4693000000000 1.0
C      1  0.4853230000000  0.5299090000000  0.4544500000000 1.0
C      1  0.5147350000000  0.4707820000000  0.4545870000000 1.0
C      1  0.4855450000000  0.4713670000000  0.5442400000000 1.0
C      1  0.5154910000000  0.5302240000000  0.5437810000000 1.0
C      1  0.4700340000000  0.4299840000000  0.5471320000000 1.0
C      1  0.5310300000000  0.5716330000000  0.5460880000000 1.0
C      1  0.4701600000000  0.5714320000000  0.4517240000000 1.0
C      1  0.5298700000000  0.4292330000000  0.4521130000000 1.0
C      1  0.5210450000000  0.5150620000000  0.5166630000000 1.0
C      1  0.4796940000000  0.4862560000000  0.5170330000000 1.0
C      1  0.5207210000000  0.4858910000000  0.4816420000000 1.0
C      1  0.4796330000000  0.5150730000000  0.4817200000000 1.0
C      1  0.5698390000000  0.5090640000000  0.4728250000000 1.0
C      1  0.4304240000000  0.4918160000000  0.4736730000000 1.0
C      1  0.5700420000000  0.4914420000000  0.5249460000000 1.0
C      1  0.4307890000000  0.5099600000000  0.5256130000000 1.0
C      1  0.5396430000000  0.4875700000000  0.5262430000000 1.0
C      1  0.4612000000000  0.5138440000000  0.5265390000000 1.0
C      1  0.5394640000000  0.5132130000000  0.4718590000000 1.0
C      1  0.4607870000000  0.4876550000000  0.4724170000000 1.0
C      1  0.4173440000000  0.4783560000000  0.4948310000000 1.0
C      1  0.5831480000000  0.5227340000000  0.4937030000000 1.0
C      1  0.4176030000000  0.5235390000000  0.5045980000000 1.0
C      1  0.5829980000000  0.4776520000000  0.5039250000000 1.0
C      1  0.5038260000000  0.4426820000000  0.4595190000000 1.0
C      1  0.4962830000000  0.5580570000000  0.4589800000000 1.0
C      1  0.5047860000000  0.5584220000000  0.5389660000000 1.0
C      1  0.4961980000000  0.4431210000000  0.5395930000000 1.0
C      1  0.4955050000000  0.4864910000000  0.4374170000000 1.0
C      1  0.5043660000000  0.5140270000000  0.4372300000000 1.0
C      1  0.4963060000000  0.5146900000000  0.5611600000000 1.0
C      1  0.5049170000000  0.4870740000000  0.5612510000000 1.0
C      1  0.4636530000000  0.4216930000000  0.5189360000000 1.0
C      1  0.5371020000000  0.5796390000000  0.5177420000000 1.0
C      1  0.4641620000000  0.5797790000000  0.4799880000000 1.0
C      1  0.5361760000000  0.4211700000000  0.4803920000000 1.0
C      1  0.4884050000000  0.5853530000000  0.4931510000000 1.0
C      1  0.5120780000000  0.4157300000000  0.4938740000000 1.0
C      1  0.4877000000000  0.4158990000000  0.5055100000000 1.0
C      1  0.5129090000000  0.5852990000000  0.5045220000000 1.0
C      1  0.5182920000000  0.5658530000000  0.4417290000000 1.0
C      1  0.4816310000000  0.4347140000000  0.4425880000000 1.0
C      1  0.5183210000000  0.4351240000000  0.5566030000000 1.0
C      1  0.4828490000000  0.5665910000000  0.5561360000000 1.0
C      1  0.5319210000000  0.4848010000000  0.5539110000000 1.0
C      1  0.4692230000000  0.5168900000000  0.5540920000000 1.0
C      1  0.5314670000000  0.5160530000000  0.4442760000000 1.0
C      1  0.4684820000000  0.4845370000000  0.4447780000000 1.0
C      1  0.4638070000000  0.4390590000000  0.4629410000000 1.0
C      1  0.5363380000000  0.5617120000000  0.4619290000000 1.0
C      1  0.4647660000000  0.5624100000000  0.5359790000000 1.0
C      1  0.5361830000000  0.4391010000000  0.5362090000000 1.0
C      1  0.4681230000000  0.4575120000000  0.4854090000000 1.0
C      1  0.5322680000000  0.5434850000000  0.4846270000000 1.0
C      1  0.4686690000000  0.5439190000000  0.5134660000000 1.0
C      1  0.5320330000000  0.4573650000000  0.5135560000000 1.0
C      1  0.5502170000000  0.5556620000000  0.5062350000000 1.0
C      1  0.4504110000000  0.4455550000000  0.5073330000000 1.0
C      1  0.5496350000000  0.4450270000000  0.4917540000000 1.0
C      1  0.4508300000000  0.5560380000000  0.4917360000000 1.0
C      1  0.5000740000000  0.4565760000000  0.4994870000000 1.0
C      1  0.5004730000000  0.5445650000000  0.4990420000000 1.0
C      1  0.5002730000000  0.5005700000000  0.4992640000000 1.0
END
