TITL C-3578200-9634-295 -3.8898193276791e-06 125000 -951.302675919977 0 0 153 (C1) n - 1
REM
REM in /home/bkarasulu/work/CARBON/AIRSS/Generating-Clusters/EDIP-Nigel-Params/with-SteepDescent/Higher-Symm/SD-CG/HFTN-CG
REM
REM
REM
REM
REM
REM ./C.cell (12c818d87b63d06a65506943cc24bca4)
REM
REM compiler GCC version 9.2.1 20190827 (Red Hat 9.2.1-1)
REM options -cpp -mtune=generic -march=x86-64 -g -O0 -fpre-include=/usr/include/finclude/math-vector-fortran.h
REM seed -195220826 419343766 1817770163 1280790969 -2000494769 1885076415 543189647 -1761578968 -2117232977 -838233440 -1849894203 167604399 539021839 29236986 1831235558 -1382821328 1489216450 -1293163195 368919547 1094502451 560881830 -472925606 774832796 788837525 -1583142016 -1787691798 -2010075625 -1356783189 2042113420 -144700472 -1783978741 -527984796 1752714072
REM
CELL 1.54180   50.00000   50.00000   50.00000   90.00000   90.00000   90.00000
LATT -1
SFAC C  
C      1  0.4170730000000  0.4985130000000  0.5716500000000 1.0
C      1  0.4207870000000  0.4960880000000  0.4312080000000 1.0
C      1  0.4710170000000  0.4662440000000  0.4650340000000 1.0
C      1  0.4678140000000  0.4714700000000  0.5377070000000 1.0
C      1  0.4447120000000  0.5948550000000  0.5138830000000 1.0
C      1  0.4485780000000  0.5901100000000  0.4847240000000 1.0
C      1  0.4969690000000  0.5642980000000  0.5557600000000 1.0
C      1  0.4983620000000  0.5624370000000  0.4448770000000 1.0
C      1  0.5697830000000  0.5586780000000  0.4661210000000 1.0
C      1  0.5686880000000  0.5579330000000  0.5339280000000 1.0
C      1  0.4662050000000  0.5009370000000  0.4752050000000 1.0
C      1  0.4660670000000  0.5036220000000  0.5312630000000 1.0
C      1  0.4522830000000  0.4303700000000  0.5791930000000 1.0
C      1  0.4510190000000  0.4282950000000  0.4209170000000 1.0
C      1  0.5267540000000  0.4004280000000  0.5509350000000 1.0
C      1  0.5253700000000  0.4047770000000  0.4481150000000 1.0
C      1  0.5254110000000  0.5472640000000  0.4866760000000 1.0
C      1  0.5212430000000  0.5551270000000  0.5148370000000 1.0
C      1  0.4510100000000  0.5637540000000  0.5522970000000 1.0
C      1  0.4522290000000  0.5608980000000  0.4465100000000 1.0
C      1  0.4226600000000  0.4736700000000  0.4498520000000 1.0
C      1  0.4174640000000  0.4750040000000  0.5542150000000 1.0
C      1  0.4632800000000  0.4163660000000  0.4443740000000 1.0
C      1  0.4615690000000  0.4208360000000  0.5530980000000 1.0
C      1  0.4909980000000  0.4256290000000  0.5511090000000 1.0
C      1  0.4920980000000  0.4250950000000  0.4443320000000 1.0
C      1  0.4100140000000  0.4747800000000  0.4756130000000 1.0
C      1  0.4052710000000  0.4758260000000  0.5278060000000 1.0
C      1  0.5480570000000  0.4228410000000  0.4510530000000 1.0
C      1  0.5464520000000  0.4213990000000  0.5492290000000 1.0
C      1  0.4504330000000  0.4307800000000  0.5268220000000 1.0
C      1  0.4537960000000  0.4230750000000  0.4723820000000 1.0
C      1  0.4941730000000  0.4660360000000  0.3901370000000 1.0
C      1  0.4958600000000  0.4639160000000  0.6066610000000 1.0
C      1  0.4177470000000  0.5243760000000  0.5583170000000 1.0
C      1  0.4205040000000  0.5227450000000  0.4427480000000 1.0
C      1  0.5822570000000  0.5412220000000  0.4854890000000 1.0
C      1  0.5841360000000  0.5430850000000  0.5139830000000 1.0
C      1  0.5913080000000  0.5217670000000  0.5537990000000 1.0
C      1  0.5888690000000  0.5208020000000  0.4441060000000 1.0
C      1  0.4702570000000  0.4501580000000  0.5139130000000 1.0
C      1  0.4744400000000  0.4419580000000  0.4842700000000 1.0
C      1  0.4726970000000  0.5840230000000  0.5525980000000 1.0
C      1  0.4737950000000  0.5812870000000  0.4451560000000 1.0
C      1  0.5628160000000  0.5046080000000  0.4443170000000 1.0
C      1  0.5664450000000  0.5035960000000  0.5499120000000 1.0
C      1  0.4188680000000  0.5235110000000  0.4734960000000 1.0
C      1  0.4173070000000  0.5234890000000  0.5274650000000 1.0
C      1  0.5026810000000  0.5293420000000  0.5928890000000 1.0
C      1  0.5027990000000  0.5326150000000  0.3971060000000 1.0
C      1  0.4940970000000  0.5900320000000  0.5135560000000 1.0
C      1  0.4968210000000  0.5940800000000  0.4836420000000 1.0
C      1  0.5391400000000  0.5702840000000  0.4206190000000 1.0
C      1  0.5387490000000  0.5665400000000  0.5800700000000 1.0
C      1  0.5192400000000  0.6129120000000  0.4848840000000 1.0
C      1  0.5187570000000  0.6125440000000  0.5172800000000 1.0
C      1  0.5999030000000  0.5227600000000  0.4716420000000 1.0
C      1  0.6026230000000  0.5246440000000  0.5267430000000 1.0
C      1  0.3990860000000  0.5021110000000  0.5154830000000 1.0
C      1  0.4017270000000  0.5010950000000  0.4856240000000 1.0
C      1  0.5770750000000  0.5482930000000  0.4389430000000 1.0
C      1  0.5785430000000  0.5485750000000  0.5607710000000 1.0
C      1  0.5003800000000  0.4399840000000  0.3984110000000 1.0
C      1  0.5011260000000  0.4379780000000  0.5971600000000 1.0
C      1  0.5086680000000  0.3992420000000  0.5291760000000 1.0
C      1  0.5075380000000  0.4045870000000  0.4715190000000 1.0
C      1  0.5193500000000  0.4814250000000  0.6028740000000 1.0
C      1  0.5187870000000  0.4821320000000  0.3894730000000 1.0
C      1  0.5059680000000  0.4203690000000  0.5761540000000 1.0
C      1  0.5072040000000  0.4228860000000  0.4191560000000 1.0
C      1  0.5729390000000  0.4545250000000  0.5664070000000 1.0
C      1  0.5731840000000  0.4579540000000  0.4349370000000 1.0
C      1  0.4846020000000  0.4938650000000  0.5740830000000 1.0
C      1  0.4878340000000  0.4928640000000  0.4310870000000 1.0
C      1  0.5136200000000  0.4994200000000  0.4799220000000 1.0
C      1  0.5140630000000  0.4979810000000  0.5307290000000 1.0
C      1  0.5013790000000  0.4282180000000  0.4873110000000 1.0
C      1  0.5055420000000  0.4238640000000  0.5155010000000 1.0
C      1  0.5124540000000  0.5097770000000  0.3846130000000 1.0
C      1  0.5112910000000  0.5077150000000  0.6058860000000 1.0
C      1  0.5252760000000  0.5755000000000  0.5575110000000 1.0
C      1  0.5260570000000  0.5745610000000  0.4446450000000 1.0
C      1  0.4917920000000  0.4692780000000  0.5562770000000 1.0
C      1  0.4939770000000  0.4687250000000  0.4459310000000 1.0
C      1  0.5640650000000  0.4321460000000  0.4744410000000 1.0
C      1  0.5642850000000  0.4279260000000  0.5263390000000 1.0
C      1  0.4908510000000  0.5128670000000  0.4891870000000 1.0
C      1  0.4917350000000  0.5155090000000  0.5200780000000 1.0
C      1  0.4724560000000  0.5988270000000  0.4692000000000 1.0
C      1  0.4701300000000  0.6023340000000  0.5283190000000 1.0
C      1  0.6086920000000  0.4996560000000  0.5136750000000 1.0
C      1  0.6048180000000  0.4964760000000  0.4849900000000 1.0
C      1  0.5452410000000  0.5968110000000  0.4858400000000 1.0
C      1  0.5449380000000  0.5976750000000  0.5172630000000 1.0
C      1  0.5627050000000  0.4820480000000  0.5712200000000 1.0
C      1  0.5622730000000  0.4833370000000  0.4241140000000 1.0
C      1  0.5324980000000  0.4795730000000  0.5753730000000 1.0
C      1  0.5324260000000  0.4794160000000  0.4184880000000 1.0
C      1  0.4253430000000  0.4231520000000  0.5128750000000 1.0
C      1  0.4270240000000  0.4204300000000  0.4838180000000 1.0
C      1  0.5056560000000  0.4670980000000  0.5146670000000 1.0
C      1  0.5129590000000  0.4710070000000  0.4857060000000 1.0
C      1  0.4873040000000  0.5482160000000  0.5798620000000 1.0
C      1  0.4911150000000  0.5429740000000  0.4212960000000 1.0
C      1  0.5521880000000  0.5456720000000  0.4232820000000 1.0
C      1  0.5537120000000  0.5431510000000  0.5764220000000 1.0
C      1  0.5406660000000  0.5713570000000  0.5311110000000 1.0
C      1  0.5419670000000  0.5697300000000  0.4707450000000 1.0
C      1  0.5227030000000  0.4571530000000  0.4403220000000 1.0
C      1  0.5213080000000  0.4564500000000  0.5582640000000 1.0
C      1  0.4960370000000  0.5467450000000  0.5281720000000 1.0
C      1  0.4964570000000  0.5464960000000  0.4721300000000 1.0
C      1  0.5514500000000  0.4363480000000  0.5726730000000 1.0
C      1  0.5539030000000  0.4377310000000  0.4279530000000 1.0
C      1  0.4135230000000  0.5509320000000  0.4846330000000 1.0
C      1  0.4146270000000  0.5510880000000  0.5147770000000 1.0
C      1  0.4660260000000  0.5119680000000  0.5588800000000 1.0
C      1  0.4700360000000  0.5102440000000  0.4471750000000 1.0
C      1  0.4433690000000  0.4608940000000  0.5565740000000 1.0
C      1  0.4466840000000  0.4570640000000  0.4466540000000 1.0
C      1  0.4604850000000  0.5395150000000  0.5694080000000 1.0
C      1  0.4632960000000  0.5356990000000  0.4321940000000 1.0
C      1  0.4365060000000  0.5687770000000  0.5266190000000 1.0
C      1  0.4356710000000  0.5673650000000  0.4711870000000 1.0
C      1  0.5522240000000  0.4778020000000  0.5174320000000 1.0
C      1  0.5562610000000  0.4914490000000  0.4712340000000 1.0
C      1  0.4388780000000  0.5017060000000  0.5924710000000 1.0
C      1  0.4407510000000  0.4992320000000  0.4083400000000 1.0
C      1  0.4691540000000  0.4796640000000  0.5972960000000 1.0
C      1  0.4718630000000  0.4804470000000  0.4069010000000 1.0
C      1  0.4529960000000  0.4575060000000  0.4167360000000 1.0
C      1  0.4494620000000  0.4588380000000  0.5863480000000 1.0
C      1  0.4473570000000  0.5219820000000  0.4878580000000 1.0
C      1  0.4433000000000  0.5144690000000  0.5162410000000 1.0
C      1  0.5383670000000  0.5134080000000  0.4889650000000 1.0
C      1  0.5415950000000  0.5047310000000  0.5183960000000 1.0
C      1  0.4030590000000  0.4494290000000  0.4875660000000 1.0
C      1  0.3990640000000  0.4504920000000  0.5156340000000 1.0
C      1  0.5171190000000  0.5070450000000  0.4256360000000 1.0
C      1  0.5197270000000  0.5038940000000  0.5620690000000 1.0
C      1  0.5435670000000  0.5215760000000  0.5588170000000 1.0
C      1  0.5403190000000  0.5228960000000  0.4373020000000 1.0
C      1  0.5379940000000  0.4619500000000  0.4696680000000 1.0
C      1  0.5314730000000  0.4568150000000  0.5274290000000 1.0
C      1  0.5807480000000  0.4784520000000  0.4839430000000 1.0
C      1  0.5808640000000  0.4744930000000  0.5222580000000 1.0
C      1  0.5827350000000  0.4490730000000  0.5379130000000 1.0
C      1  0.5813020000000  0.4548020000000  0.4648590000000 1.0
C      1  0.4668960000000  0.5497080000000  0.4863990000000 1.0
C      1  0.4727640000000  0.5611240000000  0.5141910000000 1.0
C      1  0.4432550000000  0.5284110000000  0.4121900000000 1.0
C      1  0.4398360000000  0.5316100000000  0.5886970000000 1.0
C      1  0.5512200000000  0.4366800000000  0.5008290000000 1.0
END
