TITL C-3578203-1966-67 -5.52301733475504e-08 125000 -203.371299946522 0 0 35 (C1) n - 1
REM
REM in /home/bkarasulu/work/CARBON/AIRSS/Generating-Clusters/EDIP-Nigel-Params/with-SteepDescent/Higher-Symm/SD-CG/HFTN-CG
REM
REM
REM
REM
REM
REM ./C.cell (12c818d87b63d06a65506943cc24bca4)
REM
REM compiler GCC version 9.2.1 20190827 (Red Hat 9.2.1-1)
REM options -cpp -mtune=generic -march=x86-64 -g -O0 -fpre-include=/usr/include/finclude/math-vector-fortran.h
REM seed 122696027 1390990725 -804678847 -2120092811 -466743291 861019353 1116380884 1619440392 -922698723 -1319226293 -897786468 611519816 -2052161886 -1188238660 -97612297 -1595690094 -380750069 -1688062009 52494940 443411439 -1952369844 -1302036339 -1081300629 -243844576 1768213515 -847428976 -1186898601 1758348378 1019082431 -1155667072 2075756172 455668254 2057054497
REM
CELL 1.54180   50.00000   50.00000   50.00000   90.00000   90.00000   90.00000
LATT -1
SFAC C  
C      1  0.5469600000000  0.4377560000000  0.4769570000000 1.0
C      1  0.4431730000000  0.4652660000000  0.5330000000000 1.0
C      1  0.4791910000000  0.5425970000000  0.4486300000000 1.0
C      1  0.5322160000000  0.5245150000000  0.4980730000000 1.0
C      1  0.4790570000000  0.4543290000000  0.5017710000000 1.0
C      1  0.4559730000000  0.5606660000000  0.4840210000000 1.0
C      1  0.4463510000000  0.5161980000000  0.4695580000000 1.0
C      1  0.5474490000000  0.4848610000000  0.4696810000000 1.0
C      1  0.5506650000000  0.5152930000000  0.5409980000000 1.0
C      1  0.4901860000000  0.4693340000000  0.5480960000000 1.0
C      1  0.5161430000000  0.5475530000000  0.5388810000000 1.0
C      1  0.5110180000000  0.4590500000000  0.4565830000000 1.0
C      1  0.5160050000000  0.5411030000000  0.4800670000000 1.0
C      1  0.5385640000000  0.4884390000000  0.5415740000000 1.0
C      1  0.4983560000000  0.5338380000000  0.5538090000000 1.0
C      1  0.5259190000000  0.4297420000000  0.4919160000000 1.0
C      1  0.4786360000000  0.5719890000000  0.4932660000000 1.0
C      1  0.4775520000000  0.4812570000000  0.4866950000000 1.0
C      1  0.5471060000000  0.4996270000000  0.4933340000000 1.0
C      1  0.4492260000000  0.4910040000000  0.4815070000000 1.0
C      1  0.4349440000000  0.4913320000000  0.5290920000000 1.0
C      1  0.4929500000000  0.4797810000000  0.4606530000000 1.0
C      1  0.5035090000000  0.5308280000000  0.4558340000000 1.0
C      1  0.5090400000000  0.4892720000000  0.5399880000000 1.0
C      1  0.5009680000000  0.4374440000000  0.4978760000000 1.0
C      1  0.4304150000000  0.4853940000000  0.5024450000000 1.0
C      1  0.4955480000000  0.5068060000000  0.5579500000000 1.0
C      1  0.5037150000000  0.5036220000000  0.4517330000000 1.0
C      1  0.5043190000000  0.5645490000000  0.4898070000000 1.0
C      1  0.5541930000000  0.4848640000000  0.5169210000000 1.0
C      1  0.4706890000000  0.4559250000000  0.5305550000000 1.0
C      1  0.4555860000000  0.5417410000000  0.4635960000000 1.0
C      1  0.5384940000000  0.4596290000000  0.4616600000000 1.0
C      1  0.5371420000000  0.5351240000000  0.5248690000000 1.0
C      1  0.4887630000000  0.5003990000000  0.5023320000000 1.0
END
