TITL C-3578194-7807-37 -1.53357594775883e-06 125000 -650.616120630824 0 0 104 (C1) n - 1
REM
REM in /home/bkarasulu/work/CARBON/AIRSS/Generating-Clusters/EDIP-Nigel-Params/with-SteepDescent/Higher-Symm/SD-CG/HFTN-CG
REM
REM
REM
REM
REM
REM ./C.cell (12c818d87b63d06a65506943cc24bca4)
REM
REM compiler GCC version 9.2.1 20190827 (Red Hat 9.2.1-1)
REM options -cpp -mtune=generic -march=x86-64 -g -O0 -fpre-include=/usr/include/finclude/math-vector-fortran.h
REM seed -2008081693 -518506550 -419288510 970772968 -1005592495 1433673977 1395930180 -1615844568 -1581358621 1538298648 1576167018 231248176 -67932931 -2137060641 2058613443 -1153854845 -2033837455 -1820692036 -1699460015 357499410 1330725086 -1597127069 533932262 633355432 -314823844 -1091577493 1698858343 1768270079 1626085125 -1404556508 -1036982630 971211064 1948899529
REM
CELL 1.54180   50.00000   50.00000   50.00000   90.00000   90.00000   90.00000
LATT -1
SFAC C  
C      1  0.5205040000000  0.4851410000000  0.5412940000000 1.0
C      1  0.4590690000000  0.4871760000000  0.5199810000000 1.0
C      1  0.4812790000000  0.4853160000000  0.4587820000000 1.0
C      1  0.5421040000000  0.4820060000000  0.4801020000000 1.0
C      1  0.5205620000000  0.4850850000000  0.4580500000000 1.0
C      1  0.4588650000000  0.4882380000000  0.4805760000000 1.0
C      1  0.4811840000000  0.4857180000000  0.5417750000000 1.0
C      1  0.5422540000000  0.4838210000000  0.5192440000000 1.0
C      1  0.5242980000000  0.4279380000000  0.5605610000000 1.0
C      1  0.4405510000000  0.4290380000000  0.5232960000000 1.0
C      1  0.4777700000000  0.4276000000000  0.4395970000000 1.0
C      1  0.5618650000000  0.4262850000000  0.4767850000000 1.0
C      1  0.5257820000000  0.4291710000000  0.4399880000000 1.0
C      1  0.4415280000000  0.4307600000000  0.4750670000000 1.0
C      1  0.4760700000000  0.4289430000000  0.5600640000000 1.0
C      1  0.5611710000000  0.4278740000000  0.5247180000000 1.0
C      1  0.5270100000000  0.4765630000000  0.5707330000000 1.0
C      1  0.4298740000000  0.4776510000000  0.5264940000000 1.0
C      1  0.4742200000000  0.4761390000000  0.4295870000000 1.0
C      1  0.5716240000000  0.4746130000000  0.4732840000000 1.0
C      1  0.5273380000000  0.4769360000000  0.4288280000000 1.0
C      1  0.4299540000000  0.4785790000000  0.4735310000000 1.0
C      1  0.4738790000000  0.4767680000000  0.5707690000000 1.0
C      1  0.5714520000000  0.4757200000000  0.5265390000000 1.0
C      1  0.5147330000000  0.5157160000000  0.4572430000000 1.0
C      1  0.5424920000000  0.5143490000000  0.5157650000000 1.0
C      1  0.4836370000000  0.5163170000000  0.5430560000000 1.0
C      1  0.4564300000000  0.5190060000000  0.4844640000000 1.0
C      1  0.5143300000000  0.5156690000000  0.5428910000000 1.0
C      1  0.5423530000000  0.5127750000000  0.4849680000000 1.0
C      1  0.4840340000000  0.5160300000000  0.4570590000000 1.0
C      1  0.4564890000000  0.5178110000000  0.5150200000000 1.0
C      1  0.4277330000000  0.5255290000000  0.4750500000000 1.0
C      1  0.5242780000000  0.5239590000000  0.4287960000000 1.0
C      1  0.5709900000000  0.5226730000000  0.5248330000000 1.0
C      1  0.4745100000000  0.5237410000000  0.5716930000000 1.0
C      1  0.4280450000000  0.5246880000000  0.5250360000000 1.0
C      1  0.5244230000000  0.5235460000000  0.5711450000000 1.0
C      1  0.5704900000000  0.5215530000000  0.4750380000000 1.0
C      1  0.4744010000000  0.5231090000000  0.4285520000000 1.0
C      1  0.4643570000000  0.5758980000000  0.5147230000000 1.0
C      1  0.4840690000000  0.5749110000000  0.4655490000000 1.0
C      1  0.5331400000000  0.5739690000000  0.4852920000000 1.0
C      1  0.5137210000000  0.5751270000000  0.5345340000000 1.0
C      1  0.4638110000000  0.5786860000000  0.4858210000000 1.0
C      1  0.4848280000000  0.5777150000000  0.5350640000000 1.0
C      1  0.5340190000000  0.5770130000000  0.5140860000000 1.0
C      1  0.5129170000000  0.5778600000000  0.4650740000000 1.0
C      1  0.5150220000000  0.4210850000000  0.5349750000000 1.0
C      1  0.4660180000000  0.4217460000000  0.5140430000000 1.0
C      1  0.4870900000000  0.4208930000000  0.4652170000000 1.0
C      1  0.5360120000000  0.4201320000000  0.4859020000000 1.0
C      1  0.5158460000000  0.4244900000000  0.4657770000000 1.0
C      1  0.4670260000000  0.4254760000000  0.4853520000000 1.0
C      1  0.4862360000000  0.4244140000000  0.5343560000000 1.0
C      1  0.5353380000000  0.4236930000000  0.5146860000000 1.0
C      1  0.4124410000000  0.5004670000000  0.5148670000000 1.0
C      1  0.4852390000000  0.4992750000000  0.4124800000000 1.0
C      1  0.5876610000000  0.4983940000000  0.4850810000000 1.0
C      1  0.5148480000000  0.4996690000000  0.5875440000000 1.0
C      1  0.4123590000000  0.5009230000000  0.4852780000000 1.0
C      1  0.4852320000000  0.4997110000000  0.5877560000000 1.0
C      1  0.5877720000000  0.4989310000000  0.5146910000000 1.0
C      1  0.5148400000000  0.4999410000000  0.4123210000000 1.0
C      1  0.4207210000000  0.5519550000000  0.5148680000000 1.0
C      1  0.4843360000000  0.5505490000000  0.4219510000000 1.0
C      1  0.5765090000000  0.5491450000000  0.4850630000000 1.0
C      1  0.5140060000000  0.5507860000000  0.5779890000000 1.0
C      1  0.4204690000000  0.5525590000000  0.4858690000000 1.0
C      1  0.4850880000000  0.5510770000000  0.5781570000000 1.0
C      1  0.5769590000000  0.5499170000000  0.5138850000000 1.0
C      1  0.5132350000000  0.5510820000000  0.4220760000000 1.0
C      1  0.4458990000000  0.5234530000000  0.4279090000000 1.0
C      1  0.5712600000000  0.5222210000000  0.4466240000000 1.0
C      1  0.5528460000000  0.5243990000000  0.5715900000000 1.0
C      1  0.4276090000000  0.5250890000000  0.5535010000000 1.0
C      1  0.4460530000000  0.5244050000000  0.5727410000000 1.0
C      1  0.5721370000000  0.5238530000000  0.5532420000000 1.0
C      1  0.5526500000000  0.5251710000000  0.4278410000000 1.0
C      1  0.4270220000000  0.5262060000000  0.4465770000000 1.0
C      1  0.4251900000000  0.4507890000000  0.5140370000000 1.0
C      1  0.4867150000000  0.4493810000000  0.4240870000000 1.0
C      1  0.5775750000000  0.4479740000000  0.4857560000000 1.0
C      1  0.5148780000000  0.4496220000000  0.5759760000000 1.0
C      1  0.4253930000000  0.4514370000000  0.4851870000000 1.0
C      1  0.4859200000000  0.4498870000000  0.5760500000000 1.0
C      1  0.5773000000000  0.4487280000000  0.5148210000000 1.0
C      1  0.5156730000000  0.4498670000000  0.4237720000000 1.0
C      1  0.4376660000000  0.5732440000000  0.4770930000000 1.0
C      1  0.5218670000000  0.5718520000000  0.4391600000000 1.0
C      1  0.5598600000000  0.5705330000000  0.5228820000000 1.0
C      1  0.4759850000000  0.5716390000000  0.5610000000000 1.0
C      1  0.4382670000000  0.5719970000000  0.5242370000000 1.0
C      1  0.5233380000000  0.5708480000000  0.5605000000000 1.0
C      1  0.5588780000000  0.5689400000000  0.4754880000000 1.0
C      1  0.4746500000000  0.5704270000000  0.4395220000000 1.0
C      1  0.5745700000000  0.4732490000000  0.4448320000000 1.0
C      1  0.5554000000000  0.4751070000000  0.5740830000000 1.0
C      1  0.4264400000000  0.4756740000000  0.5548120000000 1.0
C      1  0.4458800000000  0.4743320000000  0.4265470000000 1.0
C      1  0.5741930000000  0.4746810000000  0.5549990000000 1.0
C      1  0.5558200000000  0.4757230000000  0.4258070000000 1.0
C      1  0.4268460000000  0.4770250000000  0.4451460000000 1.0
C      1  0.4454790000000  0.4752140000000  0.5736000000000 1.0
END
