TITL C-3578205-846-611 7.89774969294519e-07 125000 -904.216717251158 0 0 144 (C1) n - 1
REM
REM in /home/bkarasulu/work/CARBON/AIRSS/Generating-Clusters/EDIP-Nigel-Params/with-SteepDescent/Higher-Symm/SD-CG/HFTN-CG
REM
REM
REM
REM
REM
REM ./C.cell (12c818d87b63d06a65506943cc24bca4)
REM
REM compiler GCC version 9.2.1 20190827 (Red Hat 9.2.1-1)
REM options -cpp -mtune=generic -march=x86-64 -g -O0 -fpre-include=/usr/include/finclude/math-vector-fortran.h
REM seed 1812278462 -931105685 -623280605 2090262529 1046326900 1687834787 1274496524 -1397587134 1594717379 1656235919 309150323 2036206 489732976 66418924 613402764 1397774027 324440519 -469253588 -1975396095 105488224 1484966207 1049668444 1213772149 -93502083 -633215938 -1182163539 1268313082 -42894127 -355767449 765067471 -1576296570 33636308 -1516687521
REM
CELL 1.54180   50.00000   50.00000   50.00000   90.00000   90.00000   90.00000
LATT -1
SFAC C  
C      1  0.4359300000000  0.4228860000000  0.4878880000000 1.0
C      1  0.4631670000000  0.4249340000000  0.5598230000000 1.0
C      1  0.5473560000000  0.4154350000000  0.5401500000000 1.0
C      1  0.5620780000000  0.4220170000000  0.4695730000000 1.0
C      1  0.4955660000000  0.4189130000000  0.4376150000000 1.0
C      1  0.4188770000000  0.4595060000000  0.5222280000000 1.0
C      1  0.4939840000000  0.4595990000000  0.5800040000000 1.0
C      1  0.5759590000000  0.4552870000000  0.5268260000000 1.0
C      1  0.5518370000000  0.4573620000000  0.4352770000000 1.0
C      1  0.4564970000000  0.4535250000000  0.4333810000000 1.0
C      1  0.5039000000000  0.5162280000000  0.4734620000000 1.0
C      1  0.4747660000000  0.5192030000000  0.4882190000000 1.0
C      1  0.4808890000000  0.5175460000000  0.5205500000000 1.0
C      1  0.5152810000000  0.5175990000000  0.5261160000000 1.0
C      1  0.5296860000000  0.5170500000000  0.4969770000000 1.0
C      1  0.4924200000000  0.5215950000000  0.4145850000000 1.0
C      1  0.4199100000000  0.5253230000000  0.4763050000000 1.0
C      1  0.4533170000000  0.5256040000000  0.5709320000000 1.0
C      1  0.5574950000000  0.5229300000000  0.5682460000000 1.0
C      1  0.5814280000000  0.5245090000000  0.4666820000000 1.0
C      1  0.5247040000000  0.5438120000000  0.5392520000000 1.0
C      1  0.5470870000000  0.5422120000000  0.4948650000000 1.0
C      1  0.5034420000000  0.5417910000000  0.4591920000000 1.0
C      1  0.4618590000000  0.5531300000000  0.4854080000000 1.0
C      1  0.4705150000000  0.5432440000000  0.5299070000000 1.0
C      1  0.5635140000000  0.5043110000000  0.4565780000000 1.0
C      1  0.4763820000000  0.4999240000000  0.4244100000000 1.0
C      1  0.4203220000000  0.5073990000000  0.4983250000000 1.0
C      1  0.4738420000000  0.5056510000000  0.5751440000000 1.0
C      1  0.5636490000000  0.5027210000000  0.5487060000000 1.0
C      1  0.4670460000000  0.5736610000000  0.4595240000000 1.0
C      1  0.4696600000000  0.5663280000000  0.5127830000000 1.0
C      1  0.5085040000000  0.5685130000000  0.5451150000000 1.0
C      1  0.5452490000000  0.5688170000000  0.5093580000000 1.0
C      1  0.5176290000000  0.5673560000000  0.4660220000000 1.0
C      1  0.4288700000000  0.4665940000000  0.4310250000000 1.0
C      1  0.4079750000000  0.4733170000000  0.5467290000000 1.0
C      1  0.5154640000000  0.4699530000000  0.5987570000000 1.0
C      1  0.5997320000000  0.4682710000000  0.5131020000000 1.0
C      1  0.5450160000000  0.4719900000000  0.4093430000000 1.0
C      1  0.5805550000000  0.4938670000000  0.4343500000000 1.0
C      1  0.4617540000000  0.4872840000000  0.4015740000000 1.0
C      1  0.3940800000000  0.4941350000000  0.5044970000000 1.0
C      1  0.4725270000000  0.4941260000000  0.6024380000000 1.0
C      1  0.5882260000000  0.4878880000000  0.5565040000000 1.0
C      1  0.5472870000000  0.5619110000000  0.4527110000000 1.0
C      1  0.4631720000000  0.5540080000000  0.4370060000000 1.0
C      1  0.4164860000000  0.5589710000000  0.5089770000000 1.0
C      1  0.4895230000000  0.5606710000000  0.5684760000000 1.0
C      1  0.5707890000000  0.5574680000000  0.5360080000000 1.0
C      1  0.4907230000000  0.5451650000000  0.4320550000000 1.0
C      1  0.4296690000000  0.5529680000000  0.4837420000000 1.0
C      1  0.4634660000000  0.5502370000000  0.5571640000000 1.0
C      1  0.5499590000000  0.5483570000000  0.5547160000000 1.0
C      1  0.5660020000000  0.5494010000000  0.4733330000000 1.0
C      1  0.5909820000000  0.5158520000000  0.5164240000000 1.0
C      1  0.5416980000000  0.5201150000000  0.4216880000000 1.0
C      1  0.4350780000000  0.5140870000000  0.4313990000000 1.0
C      1  0.4144400000000  0.5207320000000  0.5400170000000 1.0
C      1  0.5127020000000  0.5182970000000  0.5914620000000 1.0
C      1  0.5457190000000  0.4299050000000  0.5645000000000 1.0
C      1  0.5880730000000  0.4323100000000  0.4691030000000 1.0
C      1  0.5040410000000  0.4301690000000  0.4132560000000 1.0
C      1  0.4142160000000  0.4312510000000  0.4723750000000 1.0
C      1  0.4413910000000  0.4345250000000  0.5750590000000 1.0
C      1  0.4817990000000  0.4319170000000  0.5188810000000 1.0
C      1  0.5054950000000  0.4333870000000  0.5366280000000 1.0
C      1  0.5290000000000  0.4523130000000  0.4942950000000 1.0
C      1  0.5055390000000  0.4442200000000  0.4772540000000 1.0
C      1  0.4874890000000  0.4233870000000  0.4916510000000 1.0
C      1  0.3977070000000  0.4651620000000  0.5008510000000 1.0
C      1  0.4679370000000  0.4664140000000  0.5953090000000 1.0
C      1  0.5801960000000  0.4596020000000  0.5566890000000 1.0
C      1  0.5820160000000  0.4650040000000  0.4384850000000 1.0
C      1  0.4693870000000  0.4597480000000  0.4062310000000 1.0
C      1  0.5466440000000  0.5502540000000  0.4248220000000 1.0
C      1  0.4374020000000  0.5434300000000  0.4269530000000 1.0
C      1  0.4095530000000  0.5494080000000  0.5347080000000 1.0
C      1  0.5054310000000  0.5480310000000  0.5923100000000 1.0
C      1  0.5939190000000  0.5443410000000  0.5240250000000 1.0
C      1  0.5392630000000  0.5079390000000  0.5851560000000 1.0
C      1  0.5943460000000  0.5084920000000  0.4880940000000 1.0
C      1  0.5173760000000  0.5087180000000  0.4101070000000 1.0
C      1  0.4187750000000  0.5071340000000  0.4537950000000 1.0
C      1  0.4292020000000  0.5117780000000  0.5633340000000 1.0
C      1  0.4055090000000  0.4579570000000  0.4734100000000 1.0
C      1  0.4422600000000  0.4616980000000  0.5817480000000 1.0
C      1  0.5555820000000  0.4551430000000  0.5719280000000 1.0
C      1  0.5947250000000  0.4588380000000  0.4641780000000 1.0
C      1  0.4983310000000  0.4561210000000  0.4045800000000 1.0
C      1  0.5253910000000  0.4941280000000  0.5456260000000 1.0
C      1  0.5530310000000  0.4951180000000  0.4931160000000 1.0
C      1  0.5054760000000  0.4930280000000  0.4498360000000 1.0
C      1  0.4529320000000  0.4965050000000  0.4791250000000 1.0
C      1  0.4626880000000  0.4967000000000  0.5387530000000 1.0
C      1  0.5649040000000  0.5881260000000  0.4987690000000 1.0
C      1  0.4974460000000  0.5850620000000  0.4507030000000 1.0
C      1  0.4439100000000  0.5916000000000  0.4592080000000 1.0
C      1  0.4497610000000  0.5837600000000  0.5253770000000 1.0
C      1  0.5273280000000  0.5885280000000  0.5561490000000 1.0
C      1  0.4226900000000  0.5730020000000  0.4625600000000 1.0
C      1  0.4441570000000  0.5724250000000  0.5510380000000 1.0
C      1  0.5433160000000  0.5715840000000  0.5726340000000 1.0
C      1  0.5828080000000  0.5707820000000  0.4855980000000 1.0
C      1  0.5014190000000  0.5719160000000  0.4226260000000 1.0
C      1  0.5168490000000  0.4213480000000  0.4592760000000 1.0
C      1  0.4625020000000  0.4218070000000  0.4751970000000 1.0
C      1  0.4585670000000  0.4210650000000  0.5312500000000 1.0
C      1  0.5213850000000  0.4089680000000  0.5274230000000 1.0
C      1  0.5464980000000  0.4267640000000  0.4946680000000 1.0
C      1  0.4296500000000  0.4822920000000  0.5642670000000 1.0
C      1  0.5396550000000  0.4778410000000  0.5840780000000 1.0
C      1  0.5933350000000  0.4786990000000  0.4863890000000 1.0
C      1  0.5169340000000  0.4791160000000  0.4093070000000 1.0
C      1  0.4196190000000  0.4777080000000  0.4566340000000 1.0
C      1  0.5228180000000  0.4613070000000  0.5266700000000 1.0
C      1  0.5413140000000  0.4734850000000  0.4788300000000 1.0
C      1  0.4930440000000  0.4689490000000  0.4629470000000 1.0
C      1  0.4593510000000  0.4737620000000  0.4968250000000 1.0
C      1  0.4812560000000  0.4734520000000  0.5349770000000 1.0
C      1  0.5271650000000  0.5670220000000  0.4134010000000 1.0
C      1  0.4168410000000  0.5587170000000  0.4392210000000 1.0
C      1  0.4174710000000  0.5661960000000  0.5557500000000 1.0
C      1  0.5293940000000  0.5629310000000  0.5950870000000 1.0
C      1  0.6026840000000  0.5599150000000  0.5021290000000 1.0
C      1  0.4347200000000  0.4907990000000  0.4129680000000 1.0
C      1  0.3958200000000  0.4984720000000  0.5339700000000 1.0
C      1  0.5015810000000  0.4962120000000  0.6080970000000 1.0
C      1  0.6029080000000  0.4928910000000  0.5311070000000 1.0
C      1  0.5605920000000  0.4984610000000  0.4130920000000 1.0
C      1  0.4337030000000  0.4258320000000  0.5170230000000 1.0
C      1  0.4921630000000  0.4328370000000  0.5648790000000 1.0
C      1  0.5640150000000  0.4277820000000  0.5193010000000 1.0
C      1  0.5443570000000  0.4287120000000  0.4472540000000 1.0
C      1  0.4672460000000  0.4258920000000  0.4460990000000 1.0
C      1  0.4412400000000  0.4818030000000  0.5180500000000 1.0
C      1  0.4981900000000  0.4810530000000  0.5575310000000 1.0
C      1  0.5546090000000  0.4770340000000  0.5208740000000 1.0
C      1  0.5351080000000  0.4794180000000  0.4514400000000 1.0
C      1  0.4658870000000  0.4770080000000  0.4534930000000 1.0
C      1  0.4860330000000  0.4740590000000  0.5066620000000 1.0
C      1  0.5182070000000  0.5756090000000  0.4966970000000 1.0
C      1  0.5224430000000  0.4068780000000  0.4958690000000 1.0
C      1  0.4972100000000  0.5767790000000  0.5174030000000 1.0
END
