TITL C-3577080-309-450 -6.87087852499961e-07 125000 -512.907927980346 0 0 84 (C1) n - 1
REM
REM in /home/bkarasulu/work/CARBON/AIRSS/Generating-Clusters/EDIP-Nigel-Params/with-SteepDescent/Higher-Symm/SD-CG/HFTN-CG
REM
REM
REM
REM
REM
REM ./C.cell (12c818d87b63d06a65506943cc24bca4)
REM
REM compiler GCC version 9.2.1 20190827 (Red Hat 9.2.1-1)
REM options -cpp -mtune=generic -march=x86-64 -g -O0 -fpre-include=/usr/include/finclude/math-vector-fortran.h
REM seed 1967243161 793142302 94347582 1551563683 -1206555973 1294677885 -1737211905 2016350631 -2007452249 -1983642670 -1219638086 -1651375823 1105722143 -303021826 -1254332541 -1003158503 -695854479 682439474 -951913691 -1004814840 1077672029 4530668 564875369 -39483851 2131524165 -1068220264 502265898 -658791946 -167013840 -507763474 1122951084 1410389391 124586346
REM
CELL 1.54180   50.00000   50.00000   50.00000   90.00000   90.00000   90.00000
LATT -1
SFAC C  
C      1  0.5591000000000  0.4717620000000  0.5163610000000 1.0
C      1  0.4419160000000  0.4346500000000  0.4728550000000 1.0
C      1  0.5678800000000  0.4732200000000  0.5432010000000 1.0
C      1  0.5444590000000  0.5414500000000  0.4604680000000 1.0
C      1  0.4456400000000  0.5503070000000  0.4606000000000 1.0
C      1  0.5566870000000  0.4435010000000  0.5114940000000 1.0
C      1  0.4711980000000  0.5645830000000  0.5329170000000 1.0
C      1  0.5461800000000  0.4537560000000  0.4649630000000 1.0
C      1  0.5125570000000  0.4236780000000  0.4953290000000 1.0
C      1  0.4916190000000  0.5635900000000  0.5564170000000 1.0
C      1  0.5235570000000  0.4725740000000  0.4676220000000 1.0
C      1  0.4527370000000  0.5412530000000  0.5270970000000 1.0
C      1  0.5410190000000  0.4351810000000  0.4880080000000 1.0
C      1  0.4833570000000  0.4471070000000  0.4643270000000 1.0
C      1  0.5213660000000  0.4464550000000  0.5381900000000 1.0
C      1  0.5437650000000  0.5405030000000  0.5697840000000 1.0
C      1  0.4771060000000  0.5039290000000  0.5103040000000 1.0
C      1  0.4744090000000  0.5161840000000  0.5558380000000 1.0
C      1  0.4550130000000  0.4540420000000  0.4959370000000 1.0
C      1  0.5775330000000  0.4962540000000  0.4618260000000 1.0
C      1  0.5542780000000  0.4980950000000  0.5012780000000 1.0
C      1  0.4765410000000  0.4322000000000  0.5272530000000 1.0
C      1  0.5484440000000  0.4336890000000  0.5368590000000 1.0
C      1  0.5781910000000  0.5100790000000  0.5482440000000 1.0
C      1  0.5040760000000  0.4265020000000  0.5241640000000 1.0
C      1  0.4365890000000  0.5162510000000  0.5598640000000 1.0
C      1  0.5566520000000  0.5515110000000  0.4859970000000 1.0
C      1  0.4476380000000  0.4576910000000  0.4533960000000 1.0
C      1  0.4852170000000  0.5677810000000  0.4820270000000 1.0
C      1  0.4621500000000  0.4126680000000  0.4822460000000 1.0
C      1  0.5833870000000  0.5047310000000  0.4895190000000 1.0
C      1  0.5527640000000  0.5486590000000  0.5444640000000 1.0
C      1  0.4845140000000  0.4600320000000  0.5699080000000 1.0
C      1  0.4795930000000  0.5792390000000  0.5087000000000 1.0
C      1  0.5155650000000  0.5766790000000  0.5470820000000 1.0
C      1  0.5735170000000  0.5335880000000  0.5321880000000 1.0
C      1  0.5151120000000  0.4721660000000  0.5205790000000 1.0
C      1  0.4282140000000  0.4888790000000  0.4929580000000 1.0
C      1  0.4910110000000  0.4197770000000  0.4733360000000 1.0
C      1  0.5141930000000  0.4601890000000  0.5650020000000 1.0
C      1  0.5703740000000  0.4685800000000  0.4619970000000 1.0
C      1  0.4615080000000  0.5457360000000  0.4346110000000 1.0
C      1  0.5351980000000  0.4992300000000  0.4761490000000 1.0
C      1  0.5227840000000  0.5023500000000  0.5297560000000 1.0
C      1  0.5548520000000  0.4933460000000  0.5588660000000 1.0
C      1  0.5419730000000  0.5070130000000  0.4278690000000 1.0
C      1  0.4680950000000  0.4518190000000  0.5470110000000 1.0
C      1  0.5032130000000  0.5487010000000  0.5176290000000 1.0
C      1  0.5387340000000  0.5700730000000  0.5314660000000 1.0
C      1  0.5522170000000  0.5124160000000  0.4544570000000 1.0
C      1  0.5124710000000  0.5184660000000  0.4808540000000 1.0
C      1  0.4699640000000  0.4849140000000  0.5772780000000 1.0
C      1  0.5279920000000  0.4860390000000  0.5701490000000 1.0
C      1  0.4584320000000  0.4181130000000  0.5106370000000 1.0
C      1  0.4666530000000  0.4684410000000  0.4219010000000 1.0
C      1  0.4425400000000  0.4878460000000  0.5644800000000 1.0
C      1  0.4534030000000  0.5164850000000  0.4290580000000 1.0
C      1  0.4909160000000  0.5599180000000  0.4387660000000 1.0
C      1  0.5091070000000  0.4748710000000  0.4414090000000 1.0
C      1  0.5740050000000  0.5319460000000  0.5020260000000 1.0
C      1  0.4276480000000  0.5282450000000  0.5355330000000 1.0
C      1  0.5047730000000  0.5189590000000  0.5101250000000 1.0
C      1  0.4577320000000  0.5267800000000  0.5027250000000 1.0
C      1  0.4282950000000  0.5183590000000  0.4979140000000 1.0
C      1  0.5036570000000  0.4666230000000  0.4905650000000 1.0
C      1  0.4778700000000  0.4840160000000  0.4865240000000 1.0
C      1  0.5219450000000  0.5226980000000  0.5623850000000 1.0
C      1  0.4962110000000  0.5012140000000  0.4381960000000 1.0
C      1  0.5168250000000  0.5200300000000  0.4283890000000 1.0
C      1  0.4256470000000  0.5291710000000  0.4677190000000 1.0
C      1  0.4883460000000  0.4549610000000  0.4361190000000 1.0
C      1  0.5166190000000  0.5441010000000  0.4451890000000 1.0
C      1  0.4733650000000  0.4967800000000  0.4195800000000 1.0
C      1  0.4685470000000  0.5420050000000  0.4779770000000 1.0
C      1  0.5128330000000  0.5564770000000  0.4875280000000 1.0
C      1  0.4867600000000  0.4909080000000  0.5392100000000 1.0
C      1  0.4362670000000  0.4692740000000  0.5133300000000 1.0
C      1  0.4951590000000  0.5351390000000  0.5655220000000 1.0
C      1  0.4340890000000  0.5069450000000  0.4498720000000 1.0
C      1  0.5378960000000  0.5699480000000  0.5006520000000 1.0
C      1  0.4871950000000  0.5823160000000  0.4564950000000 1.0
C      1  0.4388170000000  0.4832830000000  0.4659760000000 1.0
C      1  0.4868570000000  0.5098190000000  0.4667930000000 1.0
C      1  0.4474700000000  0.4712610000000  0.5407110000000 1.0
END
