TITL C-3577090-796-478 -6.32160368859328e-07 125000 -460.10247210077 0 0 76 (C2) n - 1
REM
REM in /home/bkarasulu/work/CARBON/AIRSS/Generating-Clusters/EDIP-Nigel-Params/with-SteepDescent/Higher-Symm/SD-CG/HFTN-CG
REM
REM
REM
REM
REM
REM ./C.cell (12c818d87b63d06a65506943cc24bca4)
REM
REM compiler GCC version 9.2.1 20190827 (Red Hat 9.2.1-1)
REM options -cpp -mtune=generic -march=x86-64 -g -O0 -fpre-include=/usr/include/finclude/math-vector-fortran.h
REM seed 1988853979 1791846560 -1008259670 1545096719 871507029 2092035347 1715017465 -881688764 -115169075 1098961865 -1161485018 251148291 -539679072 -2030110822 1775819664 1455567364 150673044 -1661697033 -661878028 267204176 -1841010655 -1028799988 -832299592 1186506195 790225627 479697260 1798616772 1618138539 -478992842 -435371826 -1855158909 1466962859 -1633618015
REM
CELL 1.54180   50.00000   50.00000   50.00000   90.00000   90.00000   90.00000
LATT -1
SFAC C  
C      1  0.5473940000000  0.4342590000000  0.4836090000000 1.0
C      1  0.4523250000000  0.4345390000000  0.5166950000000 1.0
C      1  0.4774710000000  0.5350910000000  0.4487170000000 1.0
C      1  0.5226790000000  0.5352310000000  0.5511210000000 1.0
C      1  0.4930950000000  0.5693840000000  0.5391560000000 1.0
C      1  0.5072020000000  0.5691720000000  0.4605240000000 1.0
C      1  0.4634870000000  0.4772050000000  0.5633400000000 1.0
C      1  0.5364140000000  0.4767550000000  0.4367670000000 1.0
C      1  0.4775380000000  0.5788240000000  0.5047370000000 1.0
C      1  0.5228000000000  0.5787040000000  0.4948990000000 1.0
C      1  0.4235770000000  0.5287540000000  0.5222680000000 1.0
C      1  0.5765460000000  0.5283230000000  0.4776000000000 1.0
C      1  0.5107330000000  0.5213420000000  0.5257140000000 1.0
C      1  0.4893590000000  0.5212680000000  0.4741870000000 1.0
C      1  0.4615210000000  0.5543600000000  0.4647980000000 1.0
C      1  0.5387120000000  0.5543560000000  0.5349510000000 1.0
C      1  0.5142270000000  0.5370490000000  0.4883650000000 1.0
C      1  0.4859320000000  0.5371630000000  0.5114630000000 1.0
C      1  0.4301220000000  0.5042610000000  0.4862730000000 1.0
C      1  0.5698960000000  0.5040250000000  0.5137080000000 1.0
C      1  0.5910470000000  0.5129600000000  0.4965590000000 1.0
C      1  0.4090090000000  0.5133660000000  0.5033800000000 1.0
C      1  0.4280860000000  0.4752150000000  0.4841160000000 1.0
C      1  0.5718080000000  0.4749810000000  0.5160000000000 1.0
C      1  0.4424330000000  0.5409900000000  0.4824200000000 1.0
C      1  0.5577430000000  0.5408240000000  0.5173910000000 1.0
C      1  0.5236160000000  0.5247580000000  0.4379720000000 1.0
C      1  0.4764910000000  0.5251450000000  0.5619120000000 1.0
C      1  0.4970800000000  0.4561580000000  0.4367600000000 1.0
C      1  0.5027320000000  0.4564380000000  0.5634420000000 1.0
C      1  0.5454770000000  0.4626110000000  0.5548440000000 1.0
C      1  0.4543630000000  0.4625530000000  0.4453290000000 1.0
C      1  0.4747960000000  0.4273510000000  0.5340200000000 1.0
C      1  0.5248920000000  0.4270870000000  0.4663170000000 1.0
C      1  0.4918590000000  0.4857530000000  0.4402110000000 1.0
C      1  0.5080810000000  0.4859950000000  0.5598540000000 1.0
C      1  0.5847430000000  0.4637510000000  0.4939630000000 1.0
C      1  0.4151020000000  0.4641430000000  0.5062040000000 1.0
C      1  0.4536680000000  0.4627030000000  0.4754110000000 1.0
C      1  0.5461720000000  0.4626190000000  0.5247610000000 1.0
C      1  0.5036500000000  0.5463010000000  0.4404920000000 1.0
C      1  0.4965500000000  0.5465910000000  0.5592930000000 1.0
C      1  0.4491310000000  0.5304250000000  0.5625890000000 1.0
C      1  0.5509990000000  0.5299170000000  0.4372710000000 1.0
C      1  0.4723380000000  0.4424340000000  0.4367750000000 1.0
C      1  0.5274150000000  0.4426090000000  0.5634910000000 1.0
C      1  0.4754580000000  0.4886420000000  0.5154340000000 1.0
C      1  0.5244930000000  0.4884650000000  0.4846190000000 1.0
C      1  0.4830550000000  0.4983360000000  0.5715380000000 1.0
C      1  0.5169370000000  0.4979330000000  0.4284710000000 1.0
C      1  0.4426360000000  0.4833420000000  0.5443580000000 1.0
C      1  0.5572910000000  0.4828910000000  0.4557200000000 1.0
C      1  0.5171270000000  0.5671800000000  0.5207070000000 1.0
C      1  0.4831610000000  0.5671560000000  0.4789830000000 1.0
C      1  0.4357710000000  0.4600200000000  0.5249110000000 1.0
C      1  0.5640570000000  0.4596300000000  0.4752740000000 1.0
C      1  0.4385870000000  0.5136240000000  0.5422790000000 1.0
C      1  0.5614700000000  0.5131650000000  0.4576590000000 1.0
C      1  0.4581080000000  0.5675070000000  0.5223530000000 1.0
C      1  0.5421800000000  0.5672220000000  0.4773350000000 1.0
C      1  0.4626010000000  0.4877380000000  0.4342190000000 1.0
C      1  0.5373460000000  0.4878820000000  0.5658380000000 1.0
C      1  0.5157080000000  0.4535880000000  0.4594260000000 1.0
C      1  0.4840940000000  0.4538440000000  0.5407880000000 1.0
C      1  0.4621890000000  0.4359940000000  0.4877850000000 1.0
C      1  0.5375370000000  0.4358900000000  0.5125120000000 1.0
C      1  0.5060650000000  0.4364190000000  0.5137760000000 1.0
C      1  0.4936620000000  0.4363820000000  0.4865180000000 1.0
C      1  0.5033960000000  0.4925180000000  0.5289810000000 1.0
C      1  0.4965720000000  0.4923990000000  0.4710530000000 1.0
C      1  0.4775090000000  0.4774360000000  0.4878390000000 1.0
C      1  0.5223950000000  0.4773960000000  0.5122650000000 1.0
C      1  0.5380060000000  0.5151170000000  0.4950090000000 1.0
C      1  0.4620590000000  0.5153020000000  0.5049210000000 1.0
C      1  0.4373840000000  0.5517760000000  0.5093700000000 1.0
C      1  0.5628370000000  0.5514630000000  0.4903910000000 1.0
END
