TITL C-3577088-510-539 9.20039570310992e-08 125000 -923.72076754232 0 0 149 (C1) n - 1
REM
REM in /home/bkarasulu/work/CARBON/AIRSS/Generating-Clusters/EDIP-Nigel-Params/with-SteepDescent/Higher-Symm/SD-CG/HFTN-CG
REM
REM
REM
REM
REM
REM ./C.cell (12c818d87b63d06a65506943cc24bca4)
REM
REM compiler GCC version 9.2.1 20190827 (Red Hat 9.2.1-1)
REM options -cpp -mtune=generic -march=x86-64 -g -O0 -fpre-include=/usr/include/finclude/math-vector-fortran.h
REM seed -845181006 1539605633 -744045467 -137258151 1509946421 869586863 -1387610458 1473509538 999364125 155839543 1211552062 -1492304066 -938997676 -1411780319 646087212 -1076187437 -24503328 -1266187786 152687367 1768369241 1976119929 1863776706 1345360612 -130561315 2024344390 -330804491 -1378471695 -431166656 -651565116 496271560 1026877683 1635235509 -182287355
REM
CELL 1.54180   50.00000   50.00000   50.00000   90.00000   90.00000   90.00000
LATT -1
SFAC C  
C      1  0.4559680000000  0.5988110000000  0.5322080000000 1.0
C      1  0.3912870000000  0.4874800000000  0.5297630000000 1.0
C      1  0.4850000000000  0.3998960000000  0.5311210000000 1.0
C      1  0.6000400000000  0.4504740000000  0.5358900000000 1.0
C      1  0.5816460000000  0.5712880000000  0.5320490000000 1.0
C      1  0.5458270000000  0.5930170000000  0.4666520000000 1.0
C      1  0.6083980000000  0.4846550000000  0.4649250000000 1.0
C      1  0.5242410000000  0.3943730000000  0.4674310000000 1.0
C      1  0.4053030000000  0.4458810000000  0.4661050000000 1.0
C      1  0.4192620000000  0.5763400000000  0.4678970000000 1.0
C      1  0.5248440000000  0.4079850000000  0.5580320000000 1.0
C      1  0.5919740000000  0.4921540000000  0.5603130000000 1.0
C      1  0.5391710000000  0.5919940000000  0.5537280000000 1.0
C      1  0.4282890000000  0.5629380000000  0.5557830000000 1.0
C      1  0.4145770000000  0.4477020000000  0.5505640000000 1.0
C      1  0.4790700000000  0.4041530000000  0.4477200000000 1.0
C      1  0.4040890000000  0.4904640000000  0.4394920000000 1.0
C      1  0.4608090000000  0.5919710000000  0.4453810000000 1.0
C      1  0.5701190000000  0.5562220000000  0.4432590000000 1.0
C      1  0.5857210000000  0.4475700000000  0.4454810000000 1.0
C      1  0.5597360000000  0.4471590000000  0.4355390000000 1.0
C      1  0.5621290000000  0.5293370000000  0.4431370000000 1.0
C      1  0.4818410000000  0.5734330000000  0.4429830000000 1.0
C      1  0.4272480000000  0.5067110000000  0.4384280000000 1.0
C      1  0.4703590000000  0.4307100000000  0.4432190000000 1.0
C      1  0.4412760000000  0.4469810000000  0.5603380000000 1.0
C      1  0.4358020000000  0.5358830000000  0.5580960000000 1.0
C      1  0.5172800000000  0.5744820000000  0.5578520000000 1.0
C      1  0.5677940000000  0.5062180000000  0.5640960000000 1.0
C      1  0.5378160000000  0.4322250000000  0.5625120000000 1.0
C      1  0.5168710000000  0.6001680000000  0.4673150000000 1.0
C      1  0.4049660000000  0.5500010000000  0.4674110000000 1.0
C      1  0.4271610000000  0.4270830000000  0.4692080000000 1.0
C      1  0.5488180000000  0.4092070000000  0.4673630000000 1.0
C      1  0.5997060000000  0.5101370000000  0.4720090000000 1.0
C      1  0.4856320000000  0.6031930000000  0.5318000000000 1.0
C      1  0.5932220000000  0.5442210000000  0.5351030000000 1.0
C      1  0.5797840000000  0.4316180000000  0.5296450000000 1.0
C      1  0.4589260000000  0.4107910000000  0.5303650000000 1.0
C      1  0.3973720000000  0.5157290000000  0.5300600000000 1.0
C      1  0.4719040000000  0.4501520000000  0.4884550000000 1.0
C      1  0.5435550000000  0.4548710000000  0.4850080000000 1.0
C      1  0.5562600000000  0.5348100000000  0.4945090000000 1.0
C      1  0.4859090000000  0.5676710000000  0.4924110000000 1.0
C      1  0.4379280000000  0.5142300000000  0.4845220000000 1.0
C      1  0.5302040000000  0.4415290000000  0.5108260000000 1.0
C      1  0.4522870000000  0.4571120000000  0.5113530000000 1.0
C      1  0.4404450000000  0.5343010000000  0.5078400000000 1.0
C      1  0.5139410000000  0.5655620000000  0.5071640000000 1.0
C      1  0.5569570000000  0.5151360000000  0.5182410000000 1.0
C      1  0.5014130000000  0.5740960000000  0.4641030000000 1.0
C      1  0.4261710000000  0.5291980000000  0.4585300000000 1.0
C      1  0.4528260000000  0.4426170000000  0.4633770000000 1.0
C      1  0.5419690000000  0.4367930000000  0.4575430000000 1.0
C      1  0.5700630000000  0.5160190000000  0.4676160000000 1.0
C      1  0.4983800000000  0.5758730000000  0.5357430000000 1.0
C      1  0.5690520000000  0.5282310000000  0.5441430000000 1.0
C      1  0.5510180000000  0.4409570000000  0.5366110000000 1.0
C      1  0.4601420000000  0.4398700000000  0.5377310000000 1.0
C      1  0.4274160000000  0.5198570000000  0.5351210000000 1.0
C      1  0.4548260000000  0.4908070000000  0.4439690000000 1.0
C      1  0.4917690000000  0.4508440000000  0.4419590000000 1.0
C      1  0.5530460000000  0.4731760000000  0.4247020000000 1.0
C      1  0.5309820000000  0.5269210000000  0.4390520000000 1.0
C      1  0.4723660000000  0.5453620000000  0.4384970000000 1.0
C      1  0.5428760000000  0.4899140000000  0.5536870000000 1.0
C      1  0.5150020000000  0.4514250000000  0.5712700000000 1.0
C      1  0.4458110000000  0.4749880000000  0.5690280000000 1.0
C      1  0.4664420000000  0.5319520000000  0.5618700000000 1.0
C      1  0.5249570000000  0.5459380000000  0.5636900000000 1.0
C      1  0.4524990000000  0.5761440000000  0.5504650000000 1.0
C      1  0.4135020000000  0.4732460000000  0.5383640000000 1.0
C      1  0.4993130000000  0.4154380000000  0.5491740000000 1.0
C      1  0.5853270000000  0.4756200000000  0.5371630000000 1.0
C      1  0.5613880000000  0.5745970000000  0.5534970000000 1.0
C      1  0.5463640000000  0.5700880000000  0.4490810000000 1.0
C      1  0.5841720000000  0.4688640000000  0.4654220000000 1.0
C      1  0.5069680000000  0.4063500000000  0.4481940000000 1.0
C      1  0.4139840000000  0.4655530000000  0.4474340000000 1.0
C      1  0.4376860000000  0.5757260000000  0.4453370000000 1.0
C      1  0.4780300000000  0.4555770000000  0.6003470000000 1.0
C      1  0.5205460000000  0.4671770000000  0.6157600000000 1.0
C      1  0.5346380000000  0.5187020000000  0.6074180000000 1.0
C      1  0.4942980000000  0.5437840000000  0.6015530000000 1.0
C      1  0.4696020000000  0.5027050000000  0.6019950000000 1.0
C      1  0.5141970000000  0.4614910000000  0.3960270000000 1.0
C      1  0.4674080000000  0.4734670000000  0.3897820000000 1.0
C      1  0.4617980000000  0.5215150000000  0.3954670000000 1.0
C      1  0.5034570000000  0.5428640000000  0.4018450000000 1.0
C      1  0.5310010000000  0.5057230000000  0.3946180000000 1.0
C      1  0.5052310000000  0.4492490000000  0.5995900000000 1.0
C      1  0.5208820000000  0.4956830000000  0.6200470000000 1.0
C      1  0.5204150000000  0.5396430000000  0.5931290000000 1.0
C      1  0.4739170000000  0.5284620000000  0.5908400000000 1.0
C      1  0.4672350000000  0.4782150000000  0.5881320000000 1.0
C      1  0.4873340000000  0.4563390000000  0.3984470000000 1.0
C      1  0.4731600000000  0.4998270000000  0.3815300000000 1.0
C      1  0.4771810000000  0.5402730000000  0.4096010000000 1.0
C      1  0.5264030000000  0.5296880000000  0.4094070000000 1.0
C      1  0.5333070000000  0.4793880000000  0.4049050000000 1.0
C      1  0.3937930000000  0.5212460000000  0.5019610000000 1.0
C      1  0.4519380000000  0.4086540000000  0.5032300000000 1.0
C      1  0.5786340000000  0.4296760000000  0.5009170000000 1.0
C      1  0.5995630000000  0.5379270000000  0.5084990000000 1.0
C      1  0.4888180000000  0.6098820000000  0.5044400000000 1.0
C      1  0.6011700000000  0.5105770000000  0.5006930000000 1.0
C      1  0.5582370000000  0.4106170000000  0.4938680000000 1.0
C      1  0.4278070000000  0.4211400000000  0.4966290000000 1.0
C      1  0.4003190000000  0.5475390000000  0.4953240000000 1.0
C      1  0.5149890000000  0.6077980000000  0.4946600000000 1.0
C      1  0.4439780000000  0.5477520000000  0.4439580000000 1.0
C      1  0.4417290000000  0.4664370000000  0.4512270000000 1.0
C      1  0.5150300000000  0.4336020000000  0.4450370000000 1.0
C      1  0.5596660000000  0.4881670000000  0.4591390000000 1.0
C      1  0.5241310000000  0.5528710000000  0.4594700000000 1.0
C      1  0.5531740000000  0.5478730000000  0.5581960000000 1.0
C      1  0.5579970000000  0.4681390000000  0.5425780000000 1.0
C      1  0.4924760000000  0.4446460000000  0.5456300000000 1.0
C      1  0.4369840000000  0.4903900000000  0.5422140000000 1.0
C      1  0.4735400000000  0.5580450000000  0.5398070000000 1.0
C      1  0.4319140000000  0.5700940000000  0.4959590000000 1.0
C      1  0.4221300000000  0.4587230000000  0.4981020000000 1.0
C      1  0.5197800000000  0.4142950000000  0.4997480000000 1.0
C      1  0.5790870000000  0.4921220000000  0.5109790000000 1.0
C      1  0.5456000000000  0.5840080000000  0.4964110000000 1.0
C      1  0.5701450000000  0.5632430000000  0.5023940000000 1.0
C      1  0.5731720000000  0.4587140000000  0.4923880000000 1.0
C      1  0.4874770000000  0.4215650000000  0.4992240000000 1.0
C      1  0.4141920000000  0.4915260000000  0.4981370000000 1.0
C      1  0.4558890000000  0.5898190000000  0.5023000000000 1.0
C      1  0.4878010000000  0.4802090000000  0.4839440000000 1.0
C      1  0.5102470000000  0.4843390000000  0.4640620000000 1.0
C      1  0.5076370000000  0.5098810000000  0.4501950000000 1.0
C      1  0.4834160000000  0.5239580000000  0.4574710000000 1.0
C      1  0.4657750000000  0.5029980000000  0.4706080000000 1.0
C      1  0.5032630000000  0.4839050000000  0.5127030000000 1.0
C      1  0.4814990000000  0.4936270000000  0.5285790000000 1.0
C      1  0.4862070000000  0.5159900000000  0.5453600000000 1.0
C      1  0.5131790000000  0.5255550000000  0.5438510000000 1.0
C      1  0.5291490000000  0.5043430000000  0.5296000000000 1.0
C      1  0.4673100000000  0.5487310000000  0.5112940000000 1.0
C      1  0.5061030000000  0.4554460000000  0.5205870000000 1.0
C      1  0.5285690000000  0.5443000000000  0.4884720000000 1.0
C      1  0.4561370000000  0.4843370000000  0.5215330000000 1.0
C      1  0.5360660000000  0.4814900000000  0.4760500000000 1.0
C      1  0.5219880000000  0.4799980000000  0.5719160000000 1.0
C      1  0.4833360000000  0.4796790000000  0.4293460000000 1.0
C      1  0.5065350000000  0.4979850000000  0.5912350000000 1.0
C      1  0.4941230000000  0.4998040000000  0.4054540000000 1.0
END
