TITL C-3578204-4308-399 -3.28455634540807e-07 125000 -1225.07958981691 0 0 194 (C1) n - 1
REM
REM in /home/bkarasulu/work/CARBON/AIRSS/Generating-Clusters/EDIP-Nigel-Params/with-SteepDescent/Higher-Symm/SD-CG/HFTN-CG
REM
REM
REM
REM
REM
REM ./C.cell (12c818d87b63d06a65506943cc24bca4)
REM
REM compiler GCC version 9.2.1 20190827 (Red Hat 9.2.1-1)
REM options -cpp -mtune=generic -march=x86-64 -g -O0 -fpre-include=/usr/include/finclude/math-vector-fortran.h
REM seed 2075610114 -1386836016 1960032422 858897009 -1518784240 1025008239 1488567662 404541069 94013223 613922214 611707816 -1306113580 -2041673065 1974290666 -1294204618 1740720872 -2050220989 -484352970 1225320104 -243448670 -1907309717 102040754 643154919 993904592 -2132049479 381673489 1251066156 -872608458 1673438785 -435437866 613080822 1363110791 703234139
REM
CELL 1.54180   50.00000   50.00000   50.00000   90.00000   90.00000   90.00000
LATT -1
SFAC C  
C      1  0.4875800000000  0.4378370000000  0.5992550000000 1.0
C      1  0.4855500000000  0.3916780000000  0.5500330000000 1.0
C      1  0.4890350000000  0.3729490000000  0.4782720000000 1.0
C      1  0.4830470000000  0.4055730000000  0.4072600000000 1.0
C      1  0.4815200000000  0.4701290000000  0.3786420000000 1.0
C      1  0.4829090000000  0.5324970000000  0.3901550000000 1.0
C      1  0.4856290000000  0.5880520000000  0.4234090000000 1.0
C      1  0.4876240000000  0.6261750000000  0.4842520000000 1.0
C      1  0.4841920000000  0.6185180000000  0.5600870000000 1.0
C      1  0.4841230000000  0.5653490000000  0.6076340000000 1.0
C      1  0.4845670000000  0.5021460000000  0.6205940000000 1.0
C      1  0.4996090000000  0.5443970000000  0.4784550000000 1.0
C      1  0.5168760000000  0.5632790000000  0.4959080000000 1.0
C      1  0.5053530000000  0.5662970000000  0.5231650000000 1.0
C      1  0.5105250000000  0.5443960000000  0.5427360000000 1.0
C      1  0.4945240000000  0.5196890000000  0.5438300000000 1.0
C      1  0.4879790000000  0.4724580000000  0.5193430000000 1.0
C      1  0.4988240000000  0.4455920000000  0.5087680000000 1.0
C      1  0.5190960000000  0.4386690000000  0.4847350000000 1.0
C      1  0.5050390000000  0.4418620000000  0.4580660000000 1.0
C      1  0.5080190000000  0.4694730000000  0.4470770000000 1.0
C      1  0.4923470000000  0.4940910000000  0.4556660000000 1.0
C      1  0.4180430000000  0.5396050000000  0.4684410000000 1.0
C      1  0.4211220000000  0.5549970000000  0.4942750000000 1.0
C      1  0.4199110000000  0.5548160000000  0.5237940000000 1.0
C      1  0.4218190000000  0.5344310000000  0.5456520000000 1.0
C      1  0.4202210000000  0.5042700000000  0.5512260000000 1.0
C      1  0.4218700000000  0.4748850000000  0.5419850000000 1.0
C      1  0.4204090000000  0.4559480000000  0.5175710000000 1.0
C      1  0.4232440000000  0.4449290000000  0.4893010000000 1.0
C      1  0.4193210000000  0.4544500000000  0.4618680000000 1.0
C      1  0.4201840000000  0.4812940000000  0.4483360000000 1.0
C      1  0.4175030000000  0.5120800000000  0.4535430000000 1.0
C      1  0.5429340000000  0.5133560000000  0.3986890000000 1.0
C      1  0.5448620000000  0.5585060000000  0.4233450000000 1.0
C      1  0.5438330000000  0.5891460000000  0.4623360000000 1.0
C      1  0.5430190000000  0.6021650000000  0.5232730000000 1.0
C      1  0.5435380000000  0.5722350000000  0.5800750000000 1.0
C      1  0.5442160000000  0.5155100000000  0.6027800000000 1.0
C      1  0.5470640000000  0.4613140000000  0.5956570000000 1.0
C      1  0.5493880000000  0.4186630000000  0.5610970000000 1.0
C      1  0.5459410000000  0.4039690000000  0.5109230000000 1.0
C      1  0.5427640000000  0.4095530000000  0.4487670000000 1.0
C      1  0.5418570000000  0.4546790000000  0.4041320000000 1.0
C      1  0.5699050000000  0.4193310000000  0.5073140000000 1.0
C      1  0.5624580000000  0.4282740000000  0.4599400000000 1.0
C      1  0.5642020000000  0.4609700000000  0.4224440000000 1.0
C      1  0.5694160000000  0.5089910000000  0.4108630000000 1.0
C      1  0.5736280000000  0.5541270000000  0.4288210000000 1.0
C      1  0.5701550000000  0.5791150000000  0.4699900000000 1.0
C      1  0.5650590000000  0.5830310000000  0.5192840000000 1.0
C      1  0.5667270000000  0.5612670000000  0.5649820000000 1.0
C      1  0.5704040000000  0.5167370000000  0.5894990000000 1.0
C      1  0.5743710000000  0.4672660000000  0.5855960000000 1.0
C      1  0.5765810000000  0.4283300000000  0.5543940000000 1.0
C      1  0.4202220000000  0.5195530000000  0.4261950000000 1.0
C      1  0.4223910000000  0.5603170000000  0.4496450000000 1.0
C      1  0.4270210000000  0.5821090000000  0.4890790000000 1.0
C      1  0.4255350000000  0.5812410000000  0.5332280000000 1.0
C      1  0.4232920000000  0.5492580000000  0.5698290000000 1.0
C      1  0.4231270000000  0.5032470000000  0.5795180000000 1.0
C      1  0.4254180000000  0.4591750000000  0.5656530000000 1.0
C      1  0.4251740000000  0.4318490000000  0.5314160000000 1.0
C      1  0.4292390000000  0.4171130000000  0.4875570000000 1.0
C      1  0.4251110000000  0.4322050000000  0.4447850000000 1.0
C      1  0.4220080000000  0.4765960000000  0.4202380000000 1.0
C      1  0.4565180000000  0.5547550000000  0.6041330000000 1.0
C      1  0.4561060000000  0.4939930000000  0.6143950000000 1.0
C      1  0.4606390000000  0.4332100000000  0.5871740000000 1.0
C      1  0.4612240000000  0.3981390000000  0.5339830000000 1.0
C      1  0.4626960000000  0.3841920000000  0.4694790000000 1.0
C      1  0.4561690000000  0.4185200000000  0.4110080000000 1.0
C      1  0.4534410000000  0.4773630000000  0.3823030000000 1.0
C      1  0.4561940000000  0.5385650000000  0.4010340000000 1.0
C      1  0.4601110000000  0.5899530000000  0.4376880000000 1.0
C      1  0.4619220000000  0.6167770000000  0.4960950000000 1.0
C      1  0.4571180000000  0.6054630000000  0.5607580000000 1.0
C      1  0.4944890000000  0.6126220000000  0.5316460000000 1.0
C      1  0.4892460000000  0.5744060000000  0.5798280000000 1.0
C      1  0.4884350000000  0.5195300000000  0.5970980000000 1.0
C      1  0.4910770000000  0.4667750000000  0.5941820000000 1.0
C      1  0.4927910000000  0.4203810000000  0.5564160000000 1.0
C      1  0.4983170000000  0.3908250000000  0.5021760000000 1.0
C      1  0.4943940000000  0.3998200000000  0.4358290000000 1.0
C      1  0.4875570000000  0.4536970000000  0.4025080000000 1.0
C      1  0.4895640000000  0.5082390000000  0.4054340000000 1.0
C      1  0.4913530000000  0.5588600000000  0.4258180000000 1.0
C      1  0.4966110000000  0.6013010000000  0.4681080000000 1.0
C      1  0.5792850000000  0.5697050000000  0.5403670000000 1.0
C      1  0.5817050000000  0.5379270000000  0.5730150000000 1.0
C      1  0.5852810000000  0.4936090000000  0.5814200000000 1.0
C      1  0.5883540000000  0.4521070000000  0.5653960000000 1.0
C      1  0.5884850000000  0.4260380000000  0.5279930000000 1.0
C      1  0.5812990000000  0.4242400000000  0.4817650000000 1.0
C      1  0.5768840000000  0.4462260000000  0.4433040000000 1.0
C      1  0.5803930000000  0.4844480000000  0.4207850000000 1.0
C      1  0.5856660000000  0.5285770000000  0.4245700000000 1.0
C      1  0.5872660000000  0.5644790000000  0.4523670000000 1.0
C      1  0.5820340000000  0.5795530000000  0.4961540000000 1.0
C      1  0.5414060000000  0.4585540000000  0.4847080000000 1.0
C      1  0.5321250000000  0.4859490000000  0.4803620000000 1.0
C      1  0.5371510000000  0.5013010000000  0.4557660000000 1.0
C      1  0.5395810000000  0.5299750000000  0.4570900000000 1.0
C      1  0.5486940000000  0.5360390000000  0.4826260000000 1.0
C      1  0.5482660000000  0.5355820000000  0.5094480000000 1.0
C      1  0.5486500000000  0.5239640000000  0.5336610000000 1.0
C      1  0.5396160000000  0.5040000000000  0.5492140000000 1.0
C      1  0.5307460000000  0.4783100000000  0.5547570000000 1.0
C      1  0.5392620000000  0.4608210000000  0.5350790000000 1.0
C      1  0.5511970000000  0.4596290000000  0.5108170000000 1.0
C      1  0.4998140000000  0.4271970000000  0.3950480000000 1.0
C      1  0.5004860000000  0.4928720000000  0.3819240000000 1.0
C      1  0.5032860000000  0.5504660000000  0.3999220000000 1.0
C      1  0.5069440000000  0.5986500000000  0.4392270000000 1.0
C      1  0.5060690000000  0.6293760000000  0.5077670000000 1.0
C      1  0.5010960000000  0.6021980000000  0.5789960000000 1.0
C      1  0.5022010000000  0.5417330000000  0.6112290000000 1.0
C      1  0.5048200000000  0.4805050000000  0.6169510000000 1.0
C      1  0.5073740000000  0.4239800000000  0.5831190000000 1.0
C      1  0.5077830000000  0.3838590000000  0.5318330000000 1.0
C      1  0.5072760000000  0.3776380000000  0.4549650000000 1.0
C      1  0.4602780000000  0.4580560000000  0.4463400000000 1.0
C      1  0.4632310000000  0.4904600000000  0.4452240000000 1.0
C      1  0.4585630000000  0.5275630000000  0.4565300000000 1.0
C      1  0.4713140000000  0.5564810000000  0.4797250000000 1.0
C      1  0.4748420000000  0.5677440000000  0.5153830000000 1.0
C      1  0.4603400000000  0.5557870000000  0.5409470000000 1.0
C      1  0.4646130000000  0.5258970000000  0.5527560000000 1.0
C      1  0.4611150000000  0.4913710000000  0.5614850000000 1.0
C      1  0.4730110000000  0.4676450000000  0.5451740000000 1.0
C      1  0.4745920000000  0.4343020000000  0.4962890000000 1.0
C      1  0.4755690000000  0.4363770000000  0.4649830000000 1.0
C      1  0.5307240000000  0.6143510000000  0.5002300000000 1.0
C      1  0.5267640000000  0.5947650000000  0.5666090000000 1.0
C      1  0.5304170000000  0.5427000000000  0.6020200000000 1.0
C      1  0.5331020000000  0.4866380000000  0.6075920000000 1.0
C      1  0.5353130000000  0.4345720000000  0.5825110000000 1.0
C      1  0.5312310000000  0.4058700000000  0.5363820000000 1.0
C      1  0.5319520000000  0.3899140000000  0.4665220000000 1.0
C      1  0.5251080000000  0.4296890000000  0.4095290000000 1.0
C      1  0.5288550000000  0.4884200000000  0.3897500000000 1.0
C      1  0.5311500000000  0.5406330000000  0.4041440000000 1.0
C      1  0.5315540000000  0.5812120000000  0.4375860000000 1.0
C      1  0.4444150000000  0.6027680000000  0.5346290000000 1.0
C      1  0.4398200000000  0.5677380000000  0.5836510000000 1.0
C      1  0.4393170000000  0.5140300000000  0.6001240000000 1.0
C      1  0.4419320000000  0.4557430000000  0.5887790000000 1.0
C      1  0.4461570000000  0.4199640000000  0.5454510000000 1.0
C      1  0.4479800000000  0.3959240000000  0.4917940000000 1.0
C      1  0.4434900000000  0.4119390000000  0.4361100000000 1.0
C      1  0.4384380000000  0.4621960000000  0.4019220000000 1.0
C      1  0.4400460000000  0.5153420000000  0.4065430000000 1.0
C      1  0.4423990000000  0.5678410000000  0.4313040000000 1.0
C      1  0.4468840000000  0.5993520000000  0.4787450000000 1.0
C      1  0.4688120000000  0.4082080000000  0.4523760000000 1.0
C      1  0.4603120000000  0.4481830000000  0.4164610000000 1.0
C      1  0.4626000000000  0.4965490000000  0.4136690000000 1.0
C      1  0.4627100000000  0.5465220000000  0.4289770000000 1.0
C      1  0.4694700000000  0.5848930000000  0.4660480000000 1.0
C      1  0.4692970000000  0.5990240000000  0.5185320000000 1.0
C      1  0.4617930000000  0.5756160000000  0.5652030000000 1.0
C      1  0.4615450000000  0.5294850000000  0.5880830000000 1.0
C      1  0.4622310000000  0.4775280000000  0.5898820000000 1.0
C      1  0.4671820000000  0.4364650000000  0.5577020000000 1.0
C      1  0.4713080000000  0.4064310000000  0.5068690000000 1.0
C      1  0.6007980000000  0.4968790000000  0.5563380000000 1.0
C      1  0.6035440000000  0.4679520000000  0.5455030000000 1.0
C      1  0.6050820000000  0.4498410000000  0.5206940000000 1.0
C      1  0.6004830000000  0.4469020000000  0.4847460000000 1.0
C      1  0.5957720000000  0.4621040000000  0.4591580000000 1.0
C      1  0.5974500000000  0.4885970000000  0.4446260000000 1.0
C      1  0.6008400000000  0.5189530000000  0.4483270000000 1.0
C      1  0.6029800000000  0.5438680000000  0.4677170000000 1.0
C      1  0.6002910000000  0.5558040000000  0.4987660000000 1.0
C      1  0.5977990000000  0.5492200000000  0.5292430000000 1.0
C      1  0.5990170000000  0.5273500000000  0.5511750000000 1.0
C      1  0.5095480000000  0.4285080000000  0.5330360000000 1.0
C      1  0.5244210000000  0.4062140000000  0.4904230000000 1.0
C      1  0.5172680000000  0.4210300000000  0.4376380000000 1.0
C      1  0.5092990000000  0.4696650000000  0.4175480000000 1.0
C      1  0.5059450000000  0.5123480000000  0.4351900000000 1.0
C      1  0.5118830000000  0.5430890000000  0.4490210000000 1.0
C      1  0.5222450000000  0.5912960000000  0.4828210000000 1.0
C      1  0.5177450000000  0.5928820000000  0.5370680000000 1.0
C      1  0.5112170000000  0.5545620000000  0.5704490000000 1.0
C      1  0.5011800000000  0.5073500000000  0.5708090000000 1.0
C      1  0.5030690000000  0.4779490000000  0.5673750000000 1.0
C      1  0.4169750000000  0.4983370000000  0.5044330000000 1.0
C      1  0.5002570000000  0.4999140000000  0.5151080000000 1.0
C      1  0.4429730000000  0.5022520000000  0.4983200000000 1.0
C      1  0.4920460000000  0.5131800000000  0.4868650000000 1.0
C      1  0.5280310000000  0.4963450000000  0.5066470000000 1.0
C      1  0.4629320000000  0.5134320000000  0.4827420000000 1.0
C      1  0.3918810000000  0.5032590000000  0.5000990000000 1.0
END
