TITL C-3578194-7807-294 9.9546154737558e-07 125000 -480.479609489583 0 0 78 (Ci) n - 1
REM
REM in /home/bkarasulu/work/CARBON/AIRSS/Generating-Clusters/EDIP-Nigel-Params/with-SteepDescent/Higher-Symm/SD-CG/HFTN-CG
REM
REM
REM
REM
REM
REM ./C.cell (12c818d87b63d06a65506943cc24bca4)
REM
REM compiler GCC version 9.2.1 20190827 (Red Hat 9.2.1-1)
REM options -cpp -mtune=generic -march=x86-64 -g -O0 -fpre-include=/usr/include/finclude/math-vector-fortran.h
REM seed -1742351038 -1516777907 -992369830 -1035032204 -1662635596 -1319574589 -1146286109 -1944015321 -1621961401 619992947 -1699913026 912950260 368380308 -711870292 -899633536 1120676633 -798821300 1014367405 -812131520 123944768 -27496367 -1406741712 1158198122 -2131466370 -845542908 1033161676 -700558619 67819687 2099745833 -976834301 179479633 -1016249889 1394628401
REM
CELL 1.54180   50.00000   50.00000   50.00000   90.00000   90.00000   90.00000
LATT -1
SFAC C  
C      1  0.5896960000000  0.4987930000000  0.5340860000000 1.0
C      1  0.4103040000000  0.5012070000000  0.4659140000000 1.0
C      1  0.5803900000000  0.5138030000000  0.4909030000000 1.0
C      1  0.4196100000000  0.4861970000000  0.5090970000000 1.0
C      1  0.4684490000000  0.4238000000000  0.4813130000000 1.0
C      1  0.5315510000000  0.5762000000000  0.5186870000000 1.0
C      1  0.4600580000000  0.5523050000000  0.5276110000000 1.0
C      1  0.5399420000000  0.4476950000000  0.4723890000000 1.0
C      1  0.5673080000000  0.4812590000000  0.5346240000000 1.0
C      1  0.4326920000000  0.5187410000000  0.4653760000000 1.0
C      1  0.4665770000000  0.4322530000000  0.4512380000000 1.0
C      1  0.5334230000000  0.5677470000000  0.5487620000000 1.0
C      1  0.5544170000000  0.5567370000000  0.4739610000000 1.0
C      1  0.4455830000000  0.4432630000000  0.5260390000000 1.0
C      1  0.4265250000000  0.5168420000000  0.5139850000000 1.0
C      1  0.5734750000000  0.4831580000000  0.4860150000000 1.0
C      1  0.5116320000000  0.4851660000000  0.4266720000000 1.0
C      1  0.4883680000000  0.5148340000000  0.5733280000000 1.0
C      1  0.5024850000000  0.5661340000000  0.4809290000000 1.0
C      1  0.4975150000000  0.4338660000000  0.5190710000000 1.0
C      1  0.5320680000000  0.5256470000000  0.4404300000000 1.0
C      1  0.4679320000000  0.4743530000000  0.5595700000000 1.0
C      1  0.4699450000000  0.4470930000000  0.5424850000000 1.0
C      1  0.5300550000000  0.5529070000000  0.4575150000000 1.0
C      1  0.4613740000000  0.5451200000000  0.4962260000000 1.0
C      1  0.5386260000000  0.4548800000000  0.5037740000000 1.0
C      1  0.4342950000000  0.5338420000000  0.4900170000000 1.0
C      1  0.5657050000000  0.4661580000000  0.5099830000000 1.0
C      1  0.5234940000000  0.4418540000000  0.5276860000000 1.0
C      1  0.4765060000000  0.5581460000000  0.4723140000000 1.0
C      1  0.4288330000000  0.4654240000000  0.5254640000000 1.0
C      1  0.5711670000000  0.5345760000000  0.4745360000000 1.0
C      1  0.5197340000000  0.4784150000000  0.4992380000000 1.0
C      1  0.4802660000000  0.5215850000000  0.5007620000000 1.0
C      1  0.5512900000000  0.5707370000000  0.4981310000000 1.0
C      1  0.4487100000000  0.4292630000000  0.5018690000000 1.0
C      1  0.5438660000000  0.5002400000000  0.4527260000000 1.0
C      1  0.4561340000000  0.4997600000000  0.5472740000000 1.0
C      1  0.4205040000000  0.4791620000000  0.4806420000000 1.0
C      1  0.5794960000000  0.5208380000000  0.5193580000000 1.0
C      1  0.4906430000000  0.5559570000000  0.5316330000000 1.0
C      1  0.5093570000000  0.4440430000000  0.4683670000000 1.0
C      1  0.4943900000000  0.4396650000000  0.4420660000000 1.0
C      1  0.5056100000000  0.5603350000000  0.5579340000000 1.0
C      1  0.5246390000000  0.5252760000000  0.4835600000000 1.0
C      1  0.4753610000000  0.4747240000000  0.5164400000000 1.0
C      1  0.5278330000000  0.5370950000000  0.5108840000000 1.0
C      1  0.4721670000000  0.4629050000000  0.4891160000000 1.0
C      1  0.4612680000000  0.4999000000000  0.5095600000000 1.0
C      1  0.5387320000000  0.5001000000000  0.4904400000000 1.0
C      1  0.4581330000000  0.5018040000000  0.4605400000000 1.0
C      1  0.5418670000000  0.4981960000000  0.5394600000000 1.0
C      1  0.4437490000000  0.5267880000000  0.5386030000000 1.0
C      1  0.5562510000000  0.4732120000000  0.4613970000000 1.0
C      1  0.4925110000000  0.4941560000000  0.4590490000000 1.0
C      1  0.5074890000000  0.5058440000000  0.5409510000000 1.0
C      1  0.5084040000000  0.5353780000000  0.5741400000000 1.0
C      1  0.4915960000000  0.4646220000000  0.4258600000000 1.0
C      1  0.5037830000000  0.4815280000000  0.5236620000000 1.0
C      1  0.4962170000000  0.5184720000000  0.4763380000000 1.0
C      1  0.5228720000000  0.4546750000000  0.5529330000000 1.0
C      1  0.4771280000000  0.5453250000000  0.4470670000000 1.0
C      1  0.4595010000000  0.5023810000000  0.4306260000000 1.0
C      1  0.5404990000000  0.4976190000000  0.5693740000000 1.0
C      1  0.4810340000000  0.5242330000000  0.4280520000000 1.0
C      1  0.5189660000000  0.4757670000000  0.5719480000000 1.0
C      1  0.4492200000000  0.4561960000000  0.4453590000000 1.0
C      1  0.5507800000000  0.5438040000000  0.5546410000000 1.0
C      1  0.5509940000000  0.5259670000000  0.5299170000000 1.0
C      1  0.4490060000000  0.4740330000000  0.4700830000000 1.0
C      1  0.4989810000000  0.4706990000000  0.4776470000000 1.0
C      1  0.5010190000000  0.5293010000000  0.5223530000000 1.0
C      1  0.4632360000000  0.4728280000000  0.4239760000000 1.0
C      1  0.5367640000000  0.5271720000000  0.5760240000000 1.0
C      1  0.4906790000000  0.4860570000000  0.5754530000000 1.0
C      1  0.5093210000000  0.5139430000000  0.4245470000000 1.0
C      1  0.5035120000000  0.5736950000000  0.5092770000000 1.0
C      1  0.4964880000000  0.4263050000000  0.4907230000000 1.0
END
