TITL C-3577078-809-147 -1.74384607671553e-06 125000 -866.979494509481 0 0 140 (C1) n - 1
REM
REM in /home/bkarasulu/work/CARBON/AIRSS/Generating-Clusters/EDIP-Nigel-Params/with-SteepDescent/Higher-Symm/SD-CG/HFTN-CG
REM
REM
REM
REM
REM
REM ./C.cell (12c818d87b63d06a65506943cc24bca4)
REM
REM compiler GCC version 9.2.1 20190827 (Red Hat 9.2.1-1)
REM options -cpp -mtune=generic -march=x86-64 -g -O0 -fpre-include=/usr/include/finclude/math-vector-fortran.h
REM seed 874364061 1490066947 454190405 1590263117 774946023 -1822748874 1101572025 -1842188925 -1092428607 -659682338 538967096 -381579306 -1135372776 -1066908422 -847742263 1106784492 1352058598 948422151 -1990927437 4449827 -1008641304 -1680777605 1927741580 -554658677 990934176 4121605 1013360114 1395568153 1866803710 -379319472 -1750489944 923950303 -384181166
REM
CELL 1.54180   50.00000   50.00000   50.00000   90.00000   90.00000   90.00000
LATT -1
SFAC C  
C      1  0.5763820000000  0.4282910000000  0.5008610000000 1.0
C      1  0.5970630000000  0.5410200000000  0.4949490000000 1.0
C      1  0.4860670000000  0.6037960000000  0.4913000000000 1.0
C      1  0.3951310000000  0.5141600000000  0.4936410000000 1.0
C      1  0.4503790000000  0.4070760000000  0.4854650000000 1.0
C      1  0.4745080000000  0.5779890000000  0.4566080000000 1.0
C      1  0.4189770000000  0.4988070000000  0.4570040000000 1.0
C      1  0.4740150000000  0.4290160000000  0.4521800000000 1.0
C      1  0.5691880000000  0.4541970000000  0.4654270000000 1.0
C      1  0.5660980000000  0.5461430000000  0.4636570000000 1.0
C      1  0.4298830000000  0.5314700000000  0.4281980000000 1.0
C      1  0.4472350000000  0.4465440000000  0.4215040000000 1.0
C      1  0.5397360000000  0.4393890000000  0.4353920000000 1.0
C      1  0.5643210000000  0.5146290000000  0.4281380000000 1.0
C      1  0.5061570000000  0.5721420000000  0.4258720000000 1.0
C      1  0.4872510000000  0.4794760000000  0.4682360000000 1.0
C      1  0.5182650000000  0.4826710000000  0.4646550000000 1.0
C      1  0.5233940000000  0.5149700000000  0.4621920000000 1.0
C      1  0.4946490000000  0.5283130000000  0.4624980000000 1.0
C      1  0.4734680000000  0.5070030000000  0.4681640000000 1.0
C      1  0.5478310000000  0.4957890000000  0.5669740000000 1.0
C      1  0.5231920000000  0.5498590000000  0.5581650000000 1.0
C      1  0.4631910000000  0.5309530000000  0.5628800000000 1.0
C      1  0.4573500000000  0.4712310000000  0.5641130000000 1.0
C      1  0.5149980000000  0.4448010000000  0.5634450000000 1.0
C      1  0.5437830000000  0.4407650000000  0.5733970000000 1.0
C      1  0.5787590000000  0.5394560000000  0.5654640000000 1.0
C      1  0.5004950000000  0.5691010000000  0.5669480000000 1.0
C      1  0.4353250000000  0.5182160000000  0.5686630000000 1.0
C      1  0.4615460000000  0.4410810000000  0.5676220000000 1.0
C      1  0.4874280000000  0.5848400000000  0.5166600000000 1.0
C      1  0.4146400000000  0.5154880000000  0.5190570000000 1.0
C      1  0.4593660000000  0.4205670000000  0.5125140000000 1.0
C      1  0.5585570000000  0.4366170000000  0.5241520000000 1.0
C      1  0.5771300000000  0.5366600000000  0.5186110000000 1.0
C      1  0.4163530000000  0.5432900000000  0.5269320000000 1.0
C      1  0.4364910000000  0.4348380000000  0.5222920000000 1.0
C      1  0.5419690000000  0.4135580000000  0.5283550000000 1.0
C      1  0.5878210000000  0.5128600000000  0.5313890000000 1.0
C      1  0.5138490000000  0.5938040000000  0.5244670000000 1.0
C      1  0.5439790000000  0.5650490000000  0.4554820000000 1.0
C      1  0.4369300000000  0.5714130000000  0.4634550000000 1.0
C      1  0.4171720000000  0.4571740000000  0.4660550000000 1.0
C      1  0.5097150000000  0.4143110000000  0.4572240000000 1.0
C      1  0.5897790000000  0.4909550000000  0.4791240000000 1.0
C      1  0.5809610000000  0.4860060000000  0.5324330000000 1.0
C      1  0.5373520000000  0.5799410000000  0.5214930000000 1.0
C      1  0.4401910000000  0.5575050000000  0.5263520000000 1.0
C      1  0.4307980000000  0.4618270000000  0.5231300000000 1.0
C      1  0.5147410000000  0.4143360000000  0.5249270000000 1.0
C      1  0.6006350000000  0.5191420000000  0.4736640000000 1.0
C      1  0.5099420000000  0.5991980000000  0.4721710000000 1.0
C      1  0.4040800000000  0.5365540000000  0.4748360000000 1.0
C      1  0.4317970000000  0.4217710000000  0.4670600000000 1.0
C      1  0.5574110000000  0.4140010000000  0.4802820000000 1.0
C      1  0.4899300000000  0.5667360000000  0.5929720000000 1.0
C      1  0.4338180000000  0.5046890000000  0.5932970000000 1.0
C      1  0.4749400000000  0.4363530000000  0.5917220000000 1.0
C      1  0.5491540000000  0.4523160000000  0.5986130000000 1.0
C      1  0.5588320000000  0.5229790000000  0.5764380000000 1.0
C      1  0.4566480000000  0.5585540000000  0.5507880000000 1.0
C      1  0.4315400000000  0.4749350000000  0.5486370000000 1.0
C      1  0.5014400000000  0.4213260000000  0.5493940000000 1.0
C      1  0.5713820000000  0.4763910000000  0.5581650000000 1.0
C      1  0.5467190000000  0.5673560000000  0.5458440000000 1.0
C      1  0.5609350000000  0.4870540000000  0.4362700000000 1.0
C      1  0.5379680000000  0.5544540000000  0.4126510000000 1.0
C      1  0.4585490000000  0.5569390000000  0.4211580000000 1.0
C      1  0.4293380000000  0.4808660000000  0.4198030000000 1.0
C      1  0.4956550000000  0.4318130000000  0.4148930000000 1.0
C      1  0.3992540000000  0.4892200000000  0.4780160000000 1.0
C      1  0.4748450000000  0.4041260000000  0.4692690000000 1.0
C      1  0.5882540000000  0.4525440000000  0.4881000000000 1.0
C      1  0.5851630000000  0.5617060000000  0.4802170000000 1.0
C      1  0.4619380000000  0.5975770000000  0.4761410000000 1.0
C      1  0.5009000000000  0.4781230000000  0.5894480000000 1.0
C      1  0.5279050000000  0.4907660000000  0.5919520000000 1.0
C      1  0.5169630000000  0.5189610000000  0.5967100000000 1.0
C      1  0.4865060000000  0.5228570000000  0.5927910000000 1.0
C      1  0.4793340000000  0.4943090000000  0.6009260000000 1.0
C      1  0.5156900000000  0.4827090000000  0.4201070000000 1.0
C      1  0.5170800000000  0.5112270000000  0.4186190000000 1.0
C      1  0.4915820000000  0.5230590000000  0.4184520000000 1.0
C      1  0.4721470000000  0.5025140000000  0.4154930000000 1.0
C      1  0.4870710000000  0.4777410000000  0.4166130000000 1.0
C      1  0.5644090000000  0.4476570000000  0.5537680000000 1.0
C      1  0.5741680000000  0.5551700000000  0.5427090000000 1.0
C      1  0.4798280000000  0.5760220000000  0.5470100000000 1.0
C      1  0.4219610000000  0.5024640000000  0.5470510000000 1.0
C      1  0.4727560000000  0.4247320000000  0.5455200000000 1.0
C      1  0.5186780000000  0.4923030000000  0.4962750000000 1.0
C      1  0.5073220000000  0.5225810000000  0.4998170000000 1.0
C      1  0.4785310000000  0.5160440000000  0.5129050000000 1.0
C      1  0.4764950000000  0.4852350000000  0.5063270000000 1.0
C      1  0.5034080000000  0.4706930000000  0.5142770000000 1.0
C      1  0.5131860000000  0.5242710000000  0.5387410000000 1.0
C      1  0.4825070000000  0.5147350000000  0.5432120000000 1.0
C      1  0.4818360000000  0.4855130000000  0.5502130000000 1.0
C      1  0.5088030000000  0.4739580000000  0.5440860000000 1.0
C      1  0.5295970000000  0.4975410000000  0.5424610000000 1.0
C      1  0.5273070000000  0.4284610000000  0.4787590000000 1.0
C      1  0.5622240000000  0.4972720000000  0.4890860000000 1.0
C      1  0.5212850000000  0.5700640000000  0.4755760000000 1.0
C      1  0.4353490000000  0.5444910000000  0.4780140000000 1.0
C      1  0.4443430000000  0.4632090000000  0.4771730000000 1.0
C      1  0.5451560000000  0.4592380000000  0.5091190000000 1.0
C      1  0.5484410000000  0.5359790000000  0.5055690000000 1.0
C      1  0.4826300000000  0.5580350000000  0.5012480000000 1.0
C      1  0.4375990000000  0.5052030000000  0.5015710000000 1.0
C      1  0.4796820000000  0.4378870000000  0.4980190000000 1.0
C      1  0.4065850000000  0.5246600000000  0.4466000000000 1.0
C      1  0.4463580000000  0.4244330000000  0.4415040000000 1.0
C      1  0.5628820000000  0.4276020000000  0.4519140000000 1.0
C      1  0.5831440000000  0.5307930000000  0.4437110000000 1.0
C      1  0.4970580000000  0.5949240000000  0.4439840000000 1.0
C      1  0.4550900000000  0.5456440000000  0.5042080000000 1.0
C      1  0.4461920000000  0.4772280000000  0.5031520000000 1.0
C      1  0.5091510000000  0.4338350000000  0.5037090000000 1.0
C      1  0.5559260000000  0.4858080000000  0.5164410000000 1.0
C      1  0.5316580000000  0.5596930000000  0.5025120000000 1.0
C      1  0.5393650000000  0.5278310000000  0.4231380000000 1.0
C      1  0.4858670000000  0.5500790000000  0.4246700000000 1.0
C      1  0.4441140000000  0.5055340000000  0.4214560000000 1.0
C      1  0.4759550000000  0.4516090000000  0.4141420000000 1.0
C      1  0.5394430000000  0.4685210000000  0.4284530000000 1.0
C      1  0.4148920000000  0.4625460000000  0.4367070000000 1.0
C      1  0.5169640000000  0.4218660000000  0.4300670000000 1.0
C      1  0.5827410000000  0.4767830000000  0.4512400000000 1.0
C      1  0.5445700000000  0.5756730000000  0.4292140000000 1.0
C      1  0.4371720000000  0.5684410000000  0.4349450000000 1.0
C      1  0.5434070000000  0.4756600000000  0.6117340000000 1.0
C      1  0.5346100000000  0.5376170000000  0.5831890000000 1.0
C      1  0.4793240000000  0.5465460000000  0.6081230000000 1.0
C      1  0.4534730000000  0.4847910000000  0.5914550000000 1.0
C      1  0.4996640000000  0.4493440000000  0.5887820000000 1.0
C      1  0.4925950000000  0.5574040000000  0.4732230000000 1.0
C      1  0.4433030000000  0.5130490000000  0.4733050000000 1.0
C      1  0.4717660000000  0.4520520000000  0.4726840000000 1.0
C      1  0.5400680000000  0.4578540000000  0.4784550000000 1.0
C      1  0.5499570000000  0.5231580000000  0.4795520000000 1.0
END
