TITL C-3577084-3642-260 -4.93427242886164e-06 125000 -573.188145256929 0 0 95 (C1) n - 1
REM
REM in /home/bkarasulu/work/CARBON/AIRSS/Generating-Clusters/EDIP-Nigel-Params/with-SteepDescent/Higher-Symm/SD-CG/HFTN-CG
REM
REM
REM
REM
REM
REM ./C.cell (12c818d87b63d06a65506943cc24bca4)
REM
REM compiler GCC version 9.2.1 20190827 (Red Hat 9.2.1-1)
REM options -cpp -mtune=generic -march=x86-64 -g -O0 -fpre-include=/usr/include/finclude/math-vector-fortran.h
REM seed -1270286548 -1904672117 -1113499706 1733648740 564989681 -1174969914 1872415845 -1315085473 1421467159 -749533065 -1411105767 534668282 -617501245 1163769806 -1636162734 187550416 -707834172 1731261641 871603280 -1323770299 -379204396 -1880141032 407873960 233179191 -1096940593 -316687339 1175669974 2120149767 282389798 -545131294 -809815955 579263102 910252091
REM
CELL 1.54180   50.00000   50.00000   50.00000   90.00000   90.00000   90.00000
LATT -1
SFAC C  
C      1  0.4517590000000  0.4833600000000  0.5535920000000 1.0
C      1  0.4701810000000  0.4594120000000  0.5516140000000 1.0
C      1  0.4980100000000  0.4477540000000  0.5475790000000 1.0
C      1  0.5273620000000  0.4557880000000  0.5456760000000 1.0
C      1  0.5463280000000  0.4796720000000  0.5499400000000 1.0
C      1  0.5512390000000  0.5097000000000  0.5576910000000 1.0
C      1  0.5385580000000  0.5379220000000  0.5571130000000 1.0
C      1  0.5138230000000  0.5555200000000  0.5572700000000 1.0
C      1  0.4842230000000  0.5579190000000  0.5606240000000 1.0
C      1  0.4598720000000  0.5408640000000  0.5570830000000 1.0
C      1  0.4488390000000  0.5132590000000  0.5537750000000 1.0
C      1  0.4953470000000  0.5371310000000  0.4259650000000 1.0
C      1  0.4708120000000  0.5265480000000  0.4334840000000 1.0
C      1  0.4619480000000  0.5008090000000  0.4266330000000 1.0
C      1  0.4515460000000  0.4791960000000  0.4416160000000 1.0
C      1  0.4725680000000  0.4574280000000  0.4422510000000 1.0
C      1  0.4964060000000  0.4669820000000  0.4266320000000 1.0
C      1  0.5222660000000  0.4514960000000  0.4263400000000 1.0
C      1  0.5434000000000  0.4684060000000  0.4187600000000 1.0
C      1  0.5523040000000  0.4944920000000  0.4230950000000 1.0
C      1  0.5357640000000  0.5156740000000  0.4153970000000 1.0
C      1  0.5229960000000  0.5371070000000  0.4282500000000 1.0
C      1  0.5176630000000  0.5410680000000  0.5048840000000 1.0
C      1  0.4891710000000  0.5420040000000  0.5092260000000 1.0
C      1  0.4643300000000  0.5358170000000  0.4968950000000 1.0
C      1  0.4558350000000  0.5085740000000  0.4954470000000 1.0
C      1  0.4607570000000  0.4813840000000  0.4943710000000 1.0
C      1  0.4781420000000  0.4605540000000  0.4973410000000 1.0
C      1  0.5042610000000  0.4503910000000  0.4950000000000 1.0
C      1  0.5212350000000  0.4637210000000  0.4750630000000 1.0
C      1  0.5450740000000  0.4732660000000  0.4897330000000 1.0
C      1  0.5408150000000  0.4932800000000  0.5079490000000 1.0
C      1  0.5349470000000  0.5196640000000  0.5098980000000 1.0
C      1  0.4921130000000  0.5863270000000  0.5059470000000 1.0
C      1  0.4455940000000  0.5967960000000  0.5219850000000 1.0
C      1  0.4121310000000  0.5377860000000  0.4986920000000 1.0
C      1  0.4047130000000  0.4887070000000  0.5060380000000 1.0
C      1  0.4212370000000  0.4475730000000  0.5069160000000 1.0
C      1  0.4583940000000  0.4153650000000  0.5009740000000 1.0
C      1  0.5346940000000  0.4102350000000  0.4904250000000 1.0
C      1  0.5707610000000  0.4350080000000  0.4844930000000 1.0
C      1  0.6011430000000  0.4988250000000  0.5091040000000 1.0
C      1  0.5754980000000  0.5378780000000  0.5071420000000 1.0
C      1  0.5337010000000  0.5662630000000  0.5015960000000 1.0
C      1  0.5208330000000  0.5808380000000  0.5457440000000 1.0
C      1  0.4783780000000  0.5847820000000  0.5532140000000 1.0
C      1  0.4386420000000  0.5578140000000  0.5495900000000 1.0
C      1  0.4225750000000  0.5180350000000  0.5437910000000 1.0
C      1  0.4256490000000  0.4744320000000  0.5472900000000 1.0
C      1  0.4526820000000  0.4382400000000  0.5441060000000 1.0
C      1  0.4921330000000  0.4220040000000  0.5364600000000 1.0
C      1  0.5424260000000  0.4363580000000  0.5316720000000 1.0
C      1  0.5716120000000  0.4724760000000  0.5383520000000 1.0
C      1  0.5783460000000  0.5140180000000  0.5501000000000 1.0
C      1  0.5566550000000  0.5565730000000  0.5449100000000 1.0
C      1  0.4309130000000  0.5222160000000  0.4612460000000 1.0
C      1  0.4324520000000  0.4914190000000  0.4616340000000 1.0
C      1  0.4727730000000  0.4294840000000  0.4529520000000 1.0
C      1  0.4999970000000  0.4204350000000  0.4595250000000 1.0
C      1  0.5247020000000  0.4402420000000  0.4542130000000 1.0
C      1  0.5841920000000  0.4851160000000  0.4639730000000 1.0
C      1  0.5642570000000  0.5015740000000  0.4484280000000 1.0
C      1  0.5614370000000  0.5295900000000  0.4576200000000 1.0
C      1  0.5355420000000  0.5449330000000  0.4534080000000 1.0
C      1  0.4705660000000  0.5631100000000  0.4642400000000 1.0
C      1  0.4558630000000  0.5400710000000  0.4536220000000 1.0
C      1  0.4140800000000  0.5147830000000  0.5165680000000 1.0
C      1  0.4099150000000  0.4671210000000  0.5248270000000 1.0
C      1  0.4415920000000  0.4310420000000  0.5189730000000 1.0
C      1  0.4859950000000  0.4100500000000  0.5110610000000 1.0
C      1  0.5542050000000  0.4222050000000  0.5097500000000 1.0
C      1  0.5864560000000  0.4732660000000  0.5137090000000 1.0
C      1  0.5911210000000  0.5215970000000  0.5258890000000 1.0
C      1  0.5604090000000  0.5606820000000  0.5167670000000 1.0
C      1  0.5188980000000  0.5862280000000  0.5176530000000 1.0
C      1  0.4728920000000  0.5949460000000  0.5272490000000 1.0
C      1  0.4323830000000  0.5725470000000  0.5262950000000 1.0
C      1  0.4071410000000  0.5332490000000  0.4717710000000 1.0
C      1  0.4159590000000  0.4760290000000  0.4814570000000 1.0
C      1  0.4554320000000  0.4196490000000  0.4730480000000 1.0
C      1  0.5056480000000  0.4206500000000  0.4903990000000 1.0
C      1  0.5487110000000  0.4229890000000  0.4657060000000 1.0
C      1  0.5729990000000  0.4655720000000  0.4869620000000 1.0
C      1  0.5980520000000  0.5067430000000  0.4799310000000 1.0
C      1  0.5817090000000  0.5321090000000  0.4791980000000 1.0
C      1  0.5246830000000  0.5679000000000  0.4705010000000 1.0
C      1  0.4940440000000  0.5760250000000  0.4762870000000 1.0
C      1  0.4333420000000  0.5565510000000  0.5027610000000 1.0
C      1  0.4993580000000  0.5045140000000  0.4876140000000 1.0
C      1  0.5083260000000  0.4887850000000  0.4657790000000 1.0
C      1  0.5027280000000  0.4923870000000  0.4380380000000 1.0
C      1  0.4979020000000  0.5017800000000  0.5685720000000 1.0
C      1  0.4970760000000  0.4965100000000  0.5151920000000 1.0
C      1  0.5010180000000  0.5041050000000  0.5940290000000 1.0
C      1  0.4967130000000  0.5043960000000  0.5417350000000 1.0
END
