TITL C-3578209-2550-312 -1.32664191667755e-06 125000 -238.326786482889 0 0 40 (C1) n - 1
REM
REM in /home/bkarasulu/work/CARBON/AIRSS/Generating-Clusters/EDIP-Nigel-Params/with-SteepDescent/Higher-Symm/SD-CG/HFTN-CG
REM
REM
REM
REM
REM
REM ./C.cell (12c818d87b63d06a65506943cc24bca4)
REM
REM compiler GCC version 9.2.1 20190827 (Red Hat 9.2.1-1)
REM options -cpp -mtune=generic -march=x86-64 -g -O0 -fpre-include=/usr/include/finclude/math-vector-fortran.h
REM seed -1621217728 -1129050576 -1444020840 304625429 2130654712 -699465682 1283452575 2054037859 410719696 1941147198 -304398448 1371756813 -1391803808 -1906363423 1233157656 2079508450 -852446192 36331059 1308230364 -1018414313 775934572 -1906952933 1560413115 1079365456 -734669340 -56075520 1240691996 664287933 -884958500 1294218583 480404632 -2039139372 -1410375539
REM
CELL 1.54180   50.00000   50.00000   50.00000   90.00000   90.00000   90.00000
LATT -1
SFAC C  
C      1  0.4449450000000  0.5125790000000  0.4831160000000 1.0
C      1  0.4522850000000  0.5105010000000  0.5113550000000 1.0
C      1  0.4716610000000  0.5558180000000  0.5110610000000 1.0
C      1  0.4682510000000  0.5576240000000  0.4823290000000 1.0
C      1  0.4610370000000  0.4623240000000  0.5219680000000 1.0
C      1  0.4656220000000  0.4679500000000  0.4783010000000 1.0
C      1  0.4555290000000  0.4934110000000  0.5552750000000 1.0
C      1  0.4564570000000  0.4935750000000  0.4402000000000 1.0
C      1  0.4863890000000  0.5116940000000  0.5391320000000 1.0
C      1  0.4834470000000  0.5111210000000  0.4623000000000 1.0
C      1  0.4458440000000  0.4873280000000  0.5285270000000 1.0
C      1  0.4464220000000  0.4874510000000  0.4669450000000 1.0
C      1  0.5140960000000  0.5632930000000  0.5353710000000 1.0
C      1  0.5116070000000  0.5642230000000  0.4584890000000 1.0
C      1  0.5539700000000  0.5382180000000  0.5218820000000 1.0
C      1  0.5512630000000  0.5394350000000  0.4751690000000 1.0
C      1  0.4586410000000  0.5347030000000  0.5251590000000 1.0
C      1  0.4547900000000  0.5360210000000  0.4689470000000 1.0
C      1  0.4864590000000  0.4622880000000  0.5376430000000 1.0
C      1  0.4877980000000  0.4631430000000  0.4597890000000 1.0
C      1  0.5138460000000  0.4591540000000  0.5236120000000 1.0
C      1  0.5154420000000  0.4605960000000  0.4723800000000 1.0
C      1  0.4906580000000  0.5710300000000  0.5245940000000 1.0
C      1  0.4872960000000  0.5717040000000  0.4675370000000 1.0
C      1  0.5253220000000  0.4293590000000  0.4728420000000 1.0
C      1  0.5243170000000  0.4283300000000  0.5228130000000 1.0
C      1  0.5092090000000  0.5178180000000  0.4758390000000 1.0
C      1  0.5132180000000  0.5150750000000  0.5266940000000 1.0
C      1  0.4848100000000  0.4869980000000  0.4428250000000 1.0
C      1  0.4836870000000  0.4859640000000  0.5552310000000 1.0
C      1  0.5242420000000  0.5395710000000  0.4636330000000 1.0
C      1  0.5279590000000  0.5387130000000  0.5359090000000 1.0
C      1  0.5382920000000  0.4492550000000  0.4573380000000 1.0
C      1  0.5364310000000  0.4481760000000  0.5391610000000 1.0
C      1  0.5233410000000  0.5048520000000  0.4996410000000 1.0
C      1  0.5214330000000  0.4746650000000  0.4985820000000 1.0
C      1  0.5554540000000  0.5560830000000  0.4988050000000 1.0
C      1  0.4574910000000  0.4489610000000  0.4971870000000 1.0
C      1  0.5337110000000  0.4212660000000  0.4978520000000 1.0
C      1  0.5522080000000  0.5170900000000  0.4980160000000 1.0
END
