TITL C-3577087-600-639 4.51150329369254e-06 125000 -938.389682057229 0 0 147 (C1) n - 1
REM
REM in /home/bkarasulu/work/CARBON/AIRSS/Generating-Clusters/EDIP-Nigel-Params/with-SteepDescent/Higher-Symm/SD-CG/HFTN-CG
REM
REM
REM
REM
REM
REM ./C.cell (12c818d87b63d06a65506943cc24bca4)
REM
REM compiler GCC version 9.2.1 20190827 (Red Hat 9.2.1-1)
REM options -cpp -mtune=generic -march=x86-64 -g -O0 -fpre-include=/usr/include/finclude/math-vector-fortran.h
REM seed -1910271593 -1672306067 1844028047 -943158437 -962608653 -1554023674 -471032824 480862978 1787429713 -1805015098 -1654237249 2139229988 1540469491 1608683906 1798853831 -1418494768 -506591421 1154481266 -227527365 769037824 -992212459 -2122002358 -1307536547 -911510135 903137887 -713222491 -2102662300 -34236590 -1589160894 -1126647081 817502277 -1939164233 -1560923772
REM
CELL 1.54180   50.00000   50.00000   50.00000   90.00000   90.00000   90.00000
LATT -1
SFAC C  
C      1  0.4843790000000  0.5015930000000  0.4118750000000 1.0
C      1  0.5157240000000  0.4997590000000  0.5909320000000 1.0
C      1  0.5136600000000  0.5023060000000  0.4118160000000 1.0
C      1  0.4868770000000  0.5000720000000  0.5837880000000 1.0
C      1  0.5198000000000  0.4101650000000  0.5306110000000 1.0
C      1  0.4814720000000  0.4145380000000  0.4725750000000 1.0
C      1  0.4833980000000  0.4142280000000  0.5256330000000 1.0
C      1  0.5185990000000  0.4163990000000  0.4724620000000 1.0
C      1  0.4414990000000  0.4415340000000  0.4742500000000 1.0
C      1  0.5577940000000  0.4409310000000  0.5289820000000 1.0
C      1  0.5578730000000  0.4434590000000  0.4748180000000 1.0
C      1  0.4357810000000  0.4414590000000  0.5267440000000 1.0
C      1  0.5101380000000  0.4714250000000  0.5473040000000 1.0
C      1  0.4843900000000  0.4629650000000  0.4625660000000 1.0
C      1  0.4802070000000  0.4647620000000  0.5373920000000 1.0
C      1  0.5157540000000  0.4663000000000  0.4621220000000 1.0
C      1  0.4409610000000  0.5130130000000  0.4541130000000 1.0
C      1  0.5546640000000  0.5120240000000  0.5423530000000 1.0
C      1  0.5492280000000  0.5233040000000  0.4571350000000 1.0
C      1  0.4494860000000  0.5193070000000  0.5426960000000 1.0
C      1  0.5828570000000  0.4874420000000  0.4717120000000 1.0
C      1  0.4151230000000  0.4873970000000  0.5301040000000 1.0
C      1  0.4057370000000  0.4850580000000  0.4721960000000 1.0
C      1  0.5892780000000  0.4849080000000  0.5307580000000 1.0
C      1  0.5138290000000  0.4333860000000  0.5795940000000 1.0
C      1  0.4845210000000  0.4348400000000  0.4230490000000 1.0
C      1  0.4827250000000  0.4335830000000  0.5754320000000 1.0
C      1  0.5157180000000  0.4366410000000  0.4225230000000 1.0
C      1  0.4234490000000  0.4644890000000  0.4865570000000 1.0
C      1  0.5681450000000  0.4680700000000  0.5161670000000 1.0
C      1  0.5744850000000  0.4643660000000  0.4876030000000 1.0
C      1  0.4186260000000  0.4621450000000  0.5155270000000 1.0
C      1  0.5276570000000  0.5414580000000  0.5172690000000 1.0
C      1  0.4761780000000  0.5356820000000  0.4799650000000 1.0
C      1  0.4574330000000  0.5335190000000  0.5040370000000 1.0
C      1  0.5457360000000  0.5341260000000  0.4950990000000 1.0
C      1  0.4757640000000  0.5725760000000  0.5711550000000 1.0
C      1  0.5259840000000  0.5745450000000  0.4257450000000 1.0
C      1  0.5298690000000  0.5724650000000  0.5727810000000 1.0
C      1  0.4707520000000  0.5745460000000  0.4243560000000 1.0
C      1  0.4180080000000  0.4593170000000  0.5671490000000 1.0
C      1  0.5800550000000  0.4595090000000  0.4332320000000 1.0
C      1  0.5809530000000  0.4564340000000  0.5688150000000 1.0
C      1  0.4202170000000  0.4595630000000  0.4347260000000 1.0
C      1  0.5313800000000  0.5306540000000  0.5435380000000 1.0
C      1  0.4615310000000  0.5367560000000  0.4532610000000 1.0
C      1  0.4786220000000  0.5351150000000  0.5367250000000 1.0
C      1  0.5221670000000  0.5381050000000  0.4580790000000 1.0
C      1  0.5469890000000  0.4908690000000  0.5179620000000 1.0
C      1  0.4482030000000  0.4933220000000  0.4780890000000 1.0
C      1  0.4478800000000  0.5047840000000  0.5066040000000 1.0
C      1  0.5465130000000  0.5038010000000  0.4897720000000 1.0
C      1  0.4347070000000  0.4143430000000  0.5146580000000 1.0
C      1  0.5655270000000  0.4156520000000  0.4848560000000 1.0
C      1  0.5672280000000  0.4143910000000  0.5157560000000 1.0
C      1  0.4338170000000  0.4137830000000  0.4836410000000 1.0
C      1  0.4718610000000  0.4929620000000  0.5248540000000 1.0
C      1  0.5213870000000  0.4961560000000  0.4724100000000 1.0
C      1  0.5182780000000  0.4814240000000  0.5200310000000 1.0
C      1  0.4759020000000  0.4880430000000  0.4733860000000 1.0
C      1  0.5743670000000  0.5600150000000  0.5160760000000 1.0
C      1  0.4267180000000  0.5576730000000  0.4843800000000 1.0
C      1  0.4290130000000  0.5583260000000  0.5146880000000 1.0
C      1  0.5725310000000  0.5605090000000  0.4849850000000 1.0
C      1  0.4435040000000  0.5791380000000  0.5336370000000 1.0
C      1  0.5576650000000  0.5805690000000  0.4646060000000 1.0
C      1  0.5619330000000  0.5795910000000  0.5356470000000 1.0
C      1  0.4427340000000  0.5743680000000  0.4660370000000 1.0
C      1  0.4723130000000  0.4423500000000  0.4817360000000 1.0
C      1  0.5288300000000  0.4372440000000  0.5260700000000 1.0
C      1  0.5267580000000  0.4454800000000  0.4804010000000 1.0
C      1  0.4838600000000  0.4435420000000  0.5130570000000 1.0
C      1  0.4660310000000  0.4557140000000  0.5628330000000 1.0
C      1  0.5305110000000  0.4590730000000  0.4363790000000 1.0
C      1  0.5297510000000  0.4561210000000  0.5663200000000 1.0
C      1  0.4692090000000  0.4568440000000  0.4364130000000 1.0
C      1  0.4758360000000  0.5268580000000  0.5875020000000 1.0
C      1  0.5257920000000  0.5289330000000  0.4088920000000 1.0
C      1  0.5282670000000  0.5269410000000  0.5924470000000 1.0
C      1  0.4713970000000  0.5273530000000  0.4062190000000 1.0
C      1  0.4274520000000  0.5443970000000  0.4255400000000 1.0
C      1  0.5724770000000  0.5451830000000  0.5750140000000 1.0
C      1  0.5695600000000  0.5479870000000  0.4265160000000 1.0
C      1  0.4323760000000  0.5471630000000  0.5724660000000 1.0
C      1  0.4388730000000  0.4443040000000  0.5558160000000 1.0
C      1  0.5576210000000  0.4478490000000  0.4448410000000 1.0
C      1  0.5580400000000  0.4444840000000  0.5583900000000 1.0
C      1  0.4421830000000  0.4457650000000  0.4445920000000 1.0
C      1  0.4120630000000  0.5376630000000  0.5284510000000 1.0
C      1  0.5879320000000  0.5381350000000  0.4722340000000 1.0
C      1  0.5879340000000  0.5366150000000  0.5279040000000 1.0
C      1  0.4093710000000  0.5365190000000  0.4727250000000 1.0
C      1  0.4062420000000  0.5117430000000  0.5159640000000 1.0
C      1  0.5894770000000  0.5121540000000  0.4857480000000 1.0
C      1  0.5889890000000  0.5112710000000  0.5148550000000 1.0
C      1  0.4084140000000  0.5110170000000  0.4868740000000 1.0
C      1  0.5136160000000  0.5469180000000  0.4301070000000 1.0
C      1  0.4875370000000  0.5449320000000  0.5664640000000 1.0
C      1  0.4812330000000  0.5460900000000  0.4275910000000 1.0
C      1  0.5191370000000  0.5440420000000  0.5688240000000 1.0
C      1  0.4089500000000  0.4832760000000  0.4433300000000 1.0
C      1  0.5846280000000  0.4831170000000  0.5613000000000 1.0
C      1  0.5804190000000  0.4859810000000  0.4422110000000 1.0
C      1  0.4170050000000  0.4861280000000  0.5595180000000 1.0
C      1  0.4857410000000  0.5644860000000  0.5179080000000 1.0
C      1  0.5171750000000  0.5615260000000  0.4788930000000 1.0
C      1  0.5169980000000  0.5680970000000  0.5169220000000 1.0
C      1  0.4865270000000  0.5627400000000  0.4856350000000 1.0
C      1  0.4642760000000  0.4816890000000  0.5780000000000 1.0
C      1  0.5342730000000  0.4849050000000  0.4225630000000 1.0
C      1  0.5365810000000  0.4809250000000  0.5816580000000 1.0
C      1  0.4646480000000  0.4819590000000  0.4205530000000 1.0
C      1  0.5151680000000  0.4067640000000  0.5618950000000 1.0
C      1  0.4864150000000  0.4104900000000  0.4423500000000 1.0
C      1  0.4844750000000  0.4097540000000  0.5568310000000 1.0
C      1  0.5172550000000  0.4119230000000  0.4415330000000 1.0
C      1  0.5564330000000  0.5025800000000  0.4324380000000 1.0
C      1  0.4423670000000  0.5005320000000  0.5686720000000 1.0
C      1  0.4397090000000  0.4977510000000  0.4262420000000 1.0
C      1  0.5592820000000  0.4984040000000  0.5706640000000 1.0
C      1  0.4702720000000  0.5843250000000  0.4720760000000 1.0
C      1  0.5346180000000  0.5908350000000  0.5283570000000 1.0
C      1  0.5290040000000  0.5877510000000  0.4702410000000 1.0
C      1  0.4712050000000  0.5889740000000  0.5269970000000 1.0
C      1  0.5556940000000  0.5257540000000  0.4127340000000 1.0
C      1  0.4458820000000  0.5250220000000  0.5864480000000 1.0
C      1  0.4416720000000  0.5232260000000  0.4095070000000 1.0
C      1  0.5581460000000  0.5232540000000  0.5899910000000 1.0
C      1  0.4600550000000  0.3963190000000  0.4835080000000 1.0
C      1  0.5420700000000  0.3950250000000  0.5158990000000 1.0
C      1  0.5402840000000  0.3980920000000  0.4848950000000 1.0
C      1  0.4607190000000  0.3974410000000  0.5142550000000 1.0
C      1  0.5584540000000  0.5705210000000  0.5650770000000 1.0
C      1  0.4436600000000  0.5675140000000  0.4369130000000 1.0
C      1  0.4476420000000  0.5704040000000  0.5623090000000 1.0
C      1  0.5544600000000  0.5722160000000  0.4353440000000 1.0
C      1  0.5140040000000  0.5938580000000  0.4448270000000 1.0
C      1  0.4871910000000  0.5925780000000  0.5526990000000 1.0
C      1  0.4832280000000  0.5918540000000  0.4457000000000 1.0
C      1  0.5180490000000  0.5923270000000  0.5536710000000 1.0
C      1  0.5884110000000  0.5386520000000  0.4446970000000 1.0
C      1  0.4120790000000  0.5381720000000  0.5559370000000 1.0
C      1  0.4089900000000  0.5325060000000  0.4443610000000 1.0
C      1  0.5865170000000  0.5309630000000  0.5549140000000 1.0
C      1  0.4971520000000  0.5025410000000  0.5133380000000 1.0
C      1  0.4952470000000  0.5073700000000  0.4840840000000 1.0
C      1  0.5140680000000  0.4524870000000  0.5073000000000 1.0
END
