TITL C-3578202-4305-32 -6.66721480690194e-06 125000 -1066.16136229349 0 0 171 (C1) n - 1
REM
REM in /home/bkarasulu/work/CARBON/AIRSS/Generating-Clusters/EDIP-Nigel-Params/with-SteepDescent/Higher-Symm/SD-CG/HFTN-CG
REM
REM
REM
REM
REM
REM ./C.cell (12c818d87b63d06a65506943cc24bca4)
REM
REM compiler GCC version 9.2.1 20190827 (Red Hat 9.2.1-1)
REM options -cpp -mtune=generic -march=x86-64 -g -O0 -fpre-include=/usr/include/finclude/math-vector-fortran.h
REM seed 35217676 -523862691 1272351750 -1331294265 -1763691946 1322225599 1821316300 -678428593 -1278793123 -789776968 241072825 -216929375 -368718639 1940506624 -887894859 645779895 -1434468576 -1708509512 -380932813 843892717 -1457287066 -1340267406 -1281529749 346945487 -230918639 194082897 -44998978 1425801488 -1159981841 -1085267372 58184412 -271131262 -816605827
REM
CELL 1.54180   50.00000   50.00000   50.00000   90.00000   90.00000   90.00000
LATT -1
SFAC C  
C      1  0.4039450000000  0.5647730000000  0.4926260000000 1.0
C      1  0.4097320000000  0.4941830000000  0.4332910000000 1.0
C      1  0.4035940000000  0.4339980000000  0.5065990000000 1.0
C      1  0.4109100000000  0.5054180000000  0.5679090000000 1.0
C      1  0.5878330000000  0.5671060000000  0.4958780000000 1.0
C      1  0.5924320000000  0.4929010000000  0.4334180000000 1.0
C      1  0.5899630000000  0.4345490000000  0.5076610000000 1.0
C      1  0.5916930000000  0.5047490000000  0.5711500000000 1.0
C      1  0.4799380000000  0.4417880000000  0.5266500000000 1.0
C      1  0.4860620000000  0.5296480000000  0.5577780000000 1.0
C      1  0.4835290000000  0.5600190000000  0.4702390000000 1.0
C      1  0.4831510000000  0.4685530000000  0.4394060000000 1.0
C      1  0.5091940000000  0.4427980000000  0.5306270000000 1.0
C      1  0.5172290000000  0.5302110000000  0.5593270000000 1.0
C      1  0.5152560000000  0.5595180000000  0.4704810000000 1.0
C      1  0.5144960000000  0.4681410000000  0.4397820000000 1.0
C      1  0.5267590000000  0.4525450000000  0.4164320000000 1.0
C      1  0.5232760000000  0.4216250000000  0.5469520000000 1.0
C      1  0.5270500000000  0.5461420000000  0.5836920000000 1.0
C      1  0.5251080000000  0.5823870000000  0.4528190000000 1.0
C      1  0.4732110000000  0.4521270000000  0.4158650000000 1.0
C      1  0.4698900000000  0.4209000000000  0.5469750000000 1.0
C      1  0.4746710000000  0.5465150000000  0.5803240000000 1.0
C      1  0.4716830000000  0.5822590000000  0.4533080000000 1.0
C      1  0.4454910000000  0.4246470000000  0.4949810000000 1.0
C      1  0.4470920000000  0.5063170000000  0.5519620000000 1.0
C      1  0.4488090000000  0.5614170000000  0.5044370000000 1.0
C      1  0.4475940000000  0.4971010000000  0.4550220000000 1.0
C      1  0.5458990000000  0.4560950000000  0.5069200000000 1.0
C      1  0.5574200000000  0.5104260000000  0.5536620000000 1.0
C      1  0.5524110000000  0.5510200000000  0.4960140000000 1.0
C      1  0.5504130000000  0.4936800000000  0.4480020000000 1.0
C      1  0.4282050000000  0.4214500000000  0.5179310000000 1.0
C      1  0.4295560000000  0.5231670000000  0.5822870000000 1.0
C      1  0.4313250000000  0.5717090000000  0.4828100000000 1.0
C      1  0.4329710000000  0.4800680000000  0.4233190000000 1.0
C      1  0.5619650000000  0.4317920000000  0.5166660000000 1.0
C      1  0.5736350000000  0.5229630000000  0.5865800000000 1.0
C      1  0.5681620000000  0.5817020000000  0.4783640000000 1.0
C      1  0.5654850000000  0.4833830000000  0.4243540000000 1.0
C      1  0.4822150000000  0.3954410000000  0.5328210000000 1.0
C      1  0.4846640000000  0.5270320000000  0.6029130000000 1.0
C      1  0.4835490000000  0.6061300000000  0.4699040000000 1.0
C      1  0.4846730000000  0.4699900000000  0.3932630000000 1.0
C      1  0.5129950000000  0.3969010000000  0.5315890000000 1.0
C      1  0.5148560000000  0.5265020000000  0.6044200000000 1.0
C      1  0.5137740000000  0.6061640000000  0.4695950000000 1.0
C      1  0.5149130000000  0.4699120000000  0.3935190000000 1.0
C      1  0.5951380000000  0.4640980000000  0.5051470000000 1.0
C      1  0.6006710000000  0.5068440000000  0.5402600000000 1.0
C      1  0.5933860000000  0.5363290000000  0.4965680000000 1.0
C      1  0.5945650000000  0.4950460000000  0.4636720000000 1.0
C      1  0.4079110000000  0.4637030000000  0.5054220000000 1.0
C      1  0.4054760000000  0.5045010000000  0.5370630000000 1.0
C      1  0.4031370000000  0.5349150000000  0.4951480000000 1.0
C      1  0.4047150000000  0.4947810000000  0.4632810000000 1.0
C      1  0.5629380000000  0.5912880000000  0.5347250000000 1.0
C      1  0.5599760000000  0.5287050000000  0.4123080000000 1.0
C      1  0.5604800000000  0.4120610000000  0.4699510000000 1.0
C      1  0.5634500000000  0.4652430000000  0.5916020000000 1.0
C      1  0.4430760000000  0.5805790000000  0.5274530000000 1.0
C      1  0.4355270000000  0.5334160000000  0.4107640000000 1.0
C      1  0.4397320000000  0.4109000000000  0.4693100000000 1.0
C      1  0.4345810000000  0.4651470000000  0.5901070000000 1.0
C      1  0.4638560000000  0.5278030000000  0.4050770000000 1.0
C      1  0.4671490000000  0.3971970000000  0.4672090000000 1.0
C      1  0.4623680000000  0.4737160000000  0.5940750000000 1.0
C      1  0.4696690000000  0.5967060000000  0.5294990000000 1.0
C      1  0.5311120000000  0.5266110000000  0.4057400000000 1.0
C      1  0.5316200000000  0.4053620000000  0.4721290000000 1.0
C      1  0.5353420000000  0.4725400000000  0.5949940000000 1.0
C      1  0.5346600000000  0.5972180000000  0.5289100000000 1.0
C      1  0.5521200000000  0.4710490000000  0.4796550000000 1.0
C      1  0.5610900000000  0.4889210000000  0.5340940000000 1.0
C      1  0.5481350000000  0.5267500000000  0.5154580000000 1.0
C      1  0.5520010000000  0.5146290000000  0.4726940000000 1.0
C      1  0.4526610000000  0.4775580000000  0.4774950000000 1.0
C      1  0.4440160000000  0.4800840000000  0.5378180000000 1.0
C      1  0.4502340000000  0.5235900000000  0.5142200000000 1.0
C      1  0.4447620000000  0.5226740000000  0.4701740000000 1.0
C      1  0.4853310000000  0.4239830000000  0.4193540000000 1.0
C      1  0.4817170000000  0.4263710000000  0.5748410000000 1.0
C      1  0.4868320000000  0.5742450000000  0.5771890000000 1.0
C      1  0.4828030000000  0.5787010000000  0.4247240000000 1.0
C      1  0.5159000000000  0.4238830000000  0.4183670000000 1.0
C      1  0.5129270000000  0.4241480000000  0.5755670000000 1.0
C      1  0.5157070000000  0.5741830000000  0.5827250000000 1.0
C      1  0.5133970000000  0.5782430000000  0.4249370000000 1.0
C      1  0.4767430000000  0.5005390000000  0.3969800000000 1.0
C      1  0.4837450000000  0.3982760000000  0.4989650000000 1.0
C      1  0.4715200000000  0.5002820000000  0.6025660000000 1.0
C      1  0.4843890000000  0.6042310000000  0.5023690000000 1.0
C      1  0.5157180000000  0.5009190000000  0.3986240000000 1.0
C      1  0.5156330000000  0.3993180000000  0.4977440000000 1.0
C      1  0.5271610000000  0.4994270000000  0.6031010000000 1.0
C      1  0.5227330000000  0.6060340000000  0.5006390000000 1.0
C      1  0.4737330000000  0.4274270000000  0.5002410000000 1.0
C      1  0.4750870000000  0.5028000000000  0.5639800000000 1.0
C      1  0.4767590000000  0.5668070000000  0.4976730000000 1.0
C      1  0.4714580000000  0.4967260000000  0.4352870000000 1.0
C      1  0.5207070000000  0.4428380000000  0.5049560000000 1.0
C      1  0.5296140000000  0.5032940000000  0.5645510000000 1.0
C      1  0.5278590000000  0.5679030000000  0.4971030000000 1.0
C      1  0.5235530000000  0.4957680000000  0.4363990000000 1.0
C      1  0.5286940000000  0.5335010000000  0.4633490000000 1.0
C      1  0.5274040000000  0.4599640000000  0.4646160000000 1.0
C      1  0.5368330000000  0.4803690000000  0.5227210000000 1.0
C      1  0.5305440000000  0.5403490000000  0.5351930000000 1.0
C      1  0.4701540000000  0.5350990000000  0.4630180000000 1.0
C      1  0.4685680000000  0.4575370000000  0.4626010000000 1.0
C      1  0.4701180000000  0.4734410000000  0.5256710000000 1.0
C      1  0.4726970000000  0.5362170000000  0.5317760000000 1.0
C      1  0.4043470000000  0.4247750000000  0.4786090000000 1.0
C      1  0.4095650000000  0.4776440000000  0.5797640000000 1.0
C      1  0.4056630000000  0.5743350000000  0.5201890000000 1.0
C      1  0.4099490000000  0.5223150000000  0.4220730000000 1.0
C      1  0.5877080000000  0.4226880000000  0.4792060000000 1.0
C      1  0.5892680000000  0.4760560000000  0.5806580000000 1.0
C      1  0.5874960000000  0.5783640000000  0.5236490000000 1.0
C      1  0.5880530000000  0.5217310000000  0.4231650000000 1.0
C      1  0.4141500000000  0.5240380000000  0.4690380000000 1.0
C      1  0.4189930000000  0.4705830000000  0.4772850000000 1.0
C      1  0.4149480000000  0.4757440000000  0.5327660000000 1.0
C      1  0.4173410000000  0.5280890000000  0.5217620000000 1.0
C      1  0.5825280000000  0.5224070000000  0.4710880000000 1.0
C      1  0.5836330000000  0.4695490000000  0.4768760000000 1.0
C      1  0.5888360000000  0.4781250000000  0.5326640000000 1.0
C      1  0.5859090000000  0.5298220000000  0.5259740000000 1.0
C      1  0.4399350000000  0.4260620000000  0.5446050000000 1.0
C      1  0.4454220000000  0.5451440000000  0.5736350000000 1.0
C      1  0.4408900000000  0.5769170000000  0.4549600000000 1.0
C      1  0.4426470000000  0.4530890000000  0.4203010000000 1.0
C      1  0.5545230000000  0.4250440000000  0.5445840000000 1.0
C      1  0.5575470000000  0.5459340000000  0.5803900000000 1.0
C      1  0.5553610000000  0.5791230000000  0.4528720000000 1.0
C      1  0.5579280000000  0.4541980000000  0.4205320000000 1.0
C      1  0.5917290000000  0.4588600000000  0.5568970000000 1.0
C      1  0.5888740000000  0.5555600000000  0.5418990000000 1.0
C      1  0.5867050000000  0.5398470000000  0.4465440000000 1.0
C      1  0.5891500000000  0.4450590000000  0.4601430000000 1.0
C      1  0.4052680000000  0.4591570000000  0.5570570000000 1.0
C      1  0.4115870000000  0.5528800000000  0.5387180000000 1.0
C      1  0.4067930000000  0.5413860000000  0.4443060000000 1.0
C      1  0.4134450000000  0.4453930000000  0.4608320000000 1.0
C      1  0.5686380000000  0.5638760000000  0.5609630000000 1.0
C      1  0.5652830000000  0.5570310000000  0.4374430000000 1.0
C      1  0.5683360000000  0.4370320000000  0.4417780000000 1.0
C      1  0.5702970000000  0.4397870000000  0.5637890000000 1.0
C      1  0.4348860000000  0.5631070000000  0.5532400000000 1.0
C      1  0.4262190000000  0.5615780000000  0.4350370000000 1.0
C      1  0.4319980000000  0.4356890000000  0.4408780000000 1.0
C      1  0.4240220000000  0.4382680000000  0.5652750000000 1.0
C      1  0.5134650000000  0.5501450000000  0.4106260000000 1.0
C      1  0.5155890000000  0.4069840000000  0.4469270000000 1.0
C      1  0.5139500000000  0.4525590000000  0.5898110000000 1.0
C      1  0.5168370000000  0.5955910000000  0.5524170000000 1.0
C      1  0.4828430000000  0.5506080000000  0.4090200000000 1.0
C      1  0.4854850000000  0.4094120000000  0.4469700000000 1.0
C      1  0.4832260000000  0.4541290000000  0.5881440000000 1.0
C      1  0.4883980000000  0.5882300000000  0.5508920000000 1.0
C      1  0.4902350000000  0.5474860000000  0.5131020000000 1.0
C      1  0.4859050000000  0.5189230000000  0.4464170000000 1.0
C      1  0.4855140000000  0.4412220000000  0.4777330000000 1.0
C      1  0.4888810000000  0.4855460000000  0.5447650000000 1.0
C      1  0.5142250000000  0.5586160000000  0.5210060000000 1.0
C      1  0.5109170000000  0.5127340000000  0.4554610000000 1.0
C      1  0.5076090000000  0.4559760000000  0.4842650000000 1.0
C      1  0.5176460000000  0.4832670000000  0.5460910000000 1.0
C      1  0.4702630000000  0.4932350000000  0.5012130000000 1.0
C      1  0.5295610000000  0.5016300000000  0.5019690000000 1.0
C      1  0.4994920000000  0.5009270000000  0.4967200000000 1.0
END
