TITL C-3577090-796-337 -2.06091741917208e-06 125000 -249.935401748325 0 0 42 (Ci) n - 1
REM
REM in /home/bkarasulu/work/CARBON/AIRSS/Generating-Clusters/EDIP-Nigel-Params/with-SteepDescent/Higher-Symm/SD-CG/HFTN-CG
REM
REM
REM
REM
REM
REM ./C.cell (12c818d87b63d06a65506943cc24bca4)
REM
REM compiler GCC version 9.2.1 20190827 (Red Hat 9.2.1-1)
REM options -cpp -mtune=generic -march=x86-64 -g -O0 -fpre-include=/usr/include/finclude/math-vector-fortran.h
REM seed 819667321 -1009286649 950355155 1652140746 590961472 -623885098 500437803 -316706314 -874609107 -2040950839 -414426292 -584727599 1462618006 1793369 -982584094 -519761508 1483399569 1651232611 -1648518472 1746328723 202737606 985966912 310613241 529854919 1068411359 837194813 -1347582257 -79217442 -827304923 432146308 2019530161 -1194452459 1959934438
REM
CELL 1.54180   50.00000   50.00000   50.00000   90.00000   90.00000   90.00000
LATT -1
SFAC C  
C      1  0.5198500000000  0.4415260000000  0.4970890000000 1.0
C      1  0.4801500000000  0.5584740000000  0.5029110000000 1.0
C      1  0.5461550000000  0.4821490000000  0.4916200000000 1.0
C      1  0.4538450000000  0.5178510000000  0.5083800000000 1.0
C      1  0.5462740000000  0.5384880000000  0.5300060000000 1.0
C      1  0.4537260000000  0.4615120000000  0.4699940000000 1.0
C      1  0.4892610000000  0.5492790000000  0.5279210000000 1.0
C      1  0.5107390000000  0.4507210000000  0.4720790000000 1.0
C      1  0.5484800000000  0.4611000000000  0.5322480000000 1.0
C      1  0.4515200000000  0.5389000000000  0.4677520000000 1.0
C      1  0.4819750000000  0.5028470000000  0.4876830000000 1.0
C      1  0.5180250000000  0.4971530000000  0.5123170000000 1.0
C      1  0.5028420000000  0.4460290000000  0.5235950000000 1.0
C      1  0.4971580000000  0.5539710000000  0.4764050000000 1.0
C      1  0.4545630000000  0.5446310000000  0.4970970000000 1.0
C      1  0.5454370000000  0.4553690000000  0.5029030000000 1.0
C      1  0.4377760000000  0.5121770000000  0.4651840000000 1.0
C      1  0.5622240000000  0.4878230000000  0.5348160000000 1.0
C      1  0.4382810000000  0.4996680000000  0.4926130000000 1.0
C      1  0.5617190000000  0.5003320000000  0.5073870000000 1.0
C      1  0.5382440000000  0.5212130000000  0.5508440000000 1.0
C      1  0.4617560000000  0.4787870000000  0.4491560000000 1.0
C      1  0.5307630000000  0.5267030000000  0.4824810000000 1.0
C      1  0.4692370000000  0.4732970000000  0.5175190000000 1.0
C      1  0.5260340000000  0.5509260000000  0.4642870000000 1.0
C      1  0.4739660000000  0.4490740000000  0.5357130000000 1.0
C      1  0.5529060000000  0.5286050000000  0.5042890000000 1.0
C      1  0.4470940000000  0.4713950000000  0.4957110000000 1.0
C      1  0.5212810000000  0.4567550000000  0.5448590000000 1.0
C      1  0.4787190000000  0.5432450000000  0.4551410000000 1.0
C      1  0.4788250000000  0.4709510000000  0.5552270000000 1.0
C      1  0.5211750000000  0.5290490000000  0.4447730000000 1.0
C      1  0.5139120000000  0.5058450000000  0.5417790000000 1.0
C      1  0.4860880000000  0.4941550000000  0.4582210000000 1.0
C      1  0.5588530000000  0.5037240000000  0.5583230000000 1.0
C      1  0.4411470000000  0.4962760000000  0.4416770000000 1.0
C      1  0.4931990000000  0.5256290000000  0.5404490000000 1.0
C      1  0.5068010000000  0.4743710000000  0.4595510000000 1.0
C      1  0.5045660000000  0.5222420000000  0.4978460000000 1.0
C      1  0.4954340000000  0.4777580000000  0.5021540000000 1.0
C      1  0.5066980000000  0.4799910000000  0.5571040000000 1.0
C      1  0.4933020000000  0.5200090000000  0.4428960000000 1.0
END
