TITL C-3578201-9217-158 4.77171229477088e-07 125000 -441.591639593382 0 0 73 (C1) n - 1
REM
REM in /home/bkarasulu/work/CARBON/AIRSS/Generating-Clusters/EDIP-Nigel-Params/with-SteepDescent/Higher-Symm/SD-CG/HFTN-CG
REM
REM
REM
REM
REM
REM ./C.cell (12c818d87b63d06a65506943cc24bca4)
REM
REM compiler GCC version 9.2.1 20190827 (Red Hat 9.2.1-1)
REM options -cpp -mtune=generic -march=x86-64 -g -O0 -fpre-include=/usr/include/finclude/math-vector-fortran.h
REM seed 1964790660 -1838578209 -547524673 1107815835 386219154 978104676 -1861964857 207507367 -2122868708 -586051114 -354325407 -59434947 -1203408038 1487198972 -484310820 -1631808732 -377552368 62673422 1643632166 -825213130 1696293680 -1640641632 1874374250 -404769509 -598202447 -1408400500 1584949251 -675913144 -1801293471 -1748598669 90721942 -1829958177 -347172680
REM
CELL 1.54180   50.00000   50.00000   50.00000   90.00000   90.00000   90.00000
LATT -1
SFAC C  
C      1  0.5215530000000  0.5244180000000  0.4350790000000 1.0
C      1  0.4813710000000  0.4745420000000  0.5627880000000 1.0
C      1  0.4400930000000  0.5109440000000  0.5051860000000 1.0
C      1  0.5669400000000  0.4907300000000  0.4919080000000 1.0
C      1  0.4410780000000  0.4520910000000  0.4644300000000 1.0
C      1  0.5573190000000  0.5486010000000  0.5330620000000 1.0
C      1  0.5411380000000  0.4889590000000  0.5737560000000 1.0
C      1  0.4599240000000  0.5110610000000  0.4245160000000 1.0
C      1  0.5087580000000  0.4847850000000  0.5202570000000 1.0
C      1  0.4947440000000  0.5204250000000  0.4755190000000 1.0
C      1  0.5934900000000  0.5180700000000  0.5234750000000 1.0
C      1  0.4087260000000  0.4874660000000  0.4739740000000 1.0
C      1  0.5885220000000  0.5119920000000  0.4965070000000 1.0
C      1  0.4169060000000  0.4918800000000  0.5004110000000 1.0
C      1  0.5328870000000  0.5608440000000  0.4922030000000 1.0
C      1  0.4607930000000  0.4350760000000  0.5076140000000 1.0
C      1  0.4833340000000  0.4950860000000  0.4280030000000 1.0
C      1  0.5190180000000  0.5058610000000  0.5671340000000 1.0
C      1  0.5090140000000  0.4277520000000  0.4925980000000 1.0
C      1  0.4905250000000  0.5784870000000  0.5153690000000 1.0
C      1  0.5415900000000  0.4583680000000  0.5332460000000 1.0
C      1  0.4610260000000  0.5451500000000  0.4633960000000 1.0
C      1  0.5316380000000  0.5019180000000  0.5159870000000 1.0
C      1  0.4737960000000  0.4763940000000  0.4707090000000 1.0
C      1  0.4823750000000  0.4236930000000  0.4941500000000 1.0
C      1  0.5156730000000  0.5768480000000  0.5068440000000 1.0
C      1  0.4747480000000  0.5600660000000  0.5284700000000 1.0
C      1  0.5249040000000  0.4449140000000  0.4774700000000 1.0
C      1  0.5249050000000  0.5355960000000  0.4775890000000 1.0
C      1  0.4665840000000  0.4584770000000  0.5245030000000 1.0
C      1  0.4506500000000  0.4925530000000  0.4575030000000 1.0
C      1  0.5514350000000  0.5011170000000  0.5385680000000 1.0
C      1  0.5732730000000  0.5341600000000  0.4844710000000 1.0
C      1  0.4245850000000  0.4664710000000  0.5134430000000 1.0
C      1  0.4632230000000  0.5377090000000  0.5711100000000 1.0
C      1  0.5315340000000  0.4635320000000  0.4340920000000 1.0
C      1  0.4825000000000  0.5517060000000  0.5553540000000 1.0
C      1  0.5146570000000  0.4470640000000  0.4504980000000 1.0
C      1  0.5633860000000  0.5299320000000  0.4584320000000 1.0
C      1  0.4347980000000  0.4686250000000  0.5422980000000 1.0
C      1  0.4257740000000  0.4767400000000  0.4550490000000 1.0
C      1  0.5715200000000  0.5234210000000  0.5404190000000 1.0
C      1  0.5677290000000  0.4722190000000  0.4670720000000 1.0
C      1  0.4356670000000  0.5283320000000  0.5307610000000 1.0
C      1  0.4852770000000  0.4564790000000  0.4500940000000 1.0
C      1  0.5109140000000  0.5492140000000  0.5628880000000 1.0
C      1  0.4484590000000  0.5523050000000  0.5171820000000 1.0
C      1  0.5536910000000  0.4499580000000  0.4831760000000 1.0
C      1  0.5575030000000  0.5511180000000  0.5035210000000 1.0
C      1  0.4371020000000  0.4455320000000  0.4942260000000 1.0
C      1  0.4978090000000  0.4949150000000  0.5481510000000 1.0
C      1  0.5038570000000  0.5053990000000  0.4492130000000 1.0
C      1  0.4465300000000  0.5454050000000  0.4885270000000 1.0
C      1  0.5600920000000  0.4578040000000  0.5107860000000 1.0
C      1  0.5493860000000  0.5143360000000  0.4397520000000 1.0
C      1  0.4521470000000  0.4856950000000  0.5603530000000 1.0
C      1  0.4777090000000  0.5122770000000  0.5353790000000 1.0
C      1  0.5235290000000  0.4870140000000  0.4652560000000 1.0
C      1  0.5393120000000  0.5057230000000  0.4875690000000 1.0
C      1  0.4663670000000  0.4956510000000  0.5130700000000 1.0
C      1  0.5518790000000  0.4678260000000  0.5582980000000 1.0
C      1  0.4490570000000  0.5287960000000  0.4434600000000 1.0
C      1  0.4875270000000  0.4517530000000  0.5441750000000 1.0
C      1  0.5131130000000  0.5506950000000  0.4445980000000 1.0
C      1  0.5142750000000  0.4482910000000  0.5318650000000 1.0
C      1  0.4881730000000  0.5552240000000  0.4592270000000 1.0
C      1  0.4624920000000  0.4393290000000  0.4466930000000 1.0
C      1  0.5332120000000  0.5555460000000  0.5467690000000 1.0
C      1  0.5153840000000  0.5294400000000  0.5820460000000 1.0
C      1  0.4792410000000  0.4668490000000  0.4243890000000 1.0
C      1  0.5483170000000  0.4837360000000  0.4470970000000 1.0
C      1  0.4542550000000  0.5174520000000  0.5521700000000 1.0
C      1  0.4882920000000  0.4933250000000  0.4920570000000 1.0
END
