TITL C-3577086-586-498 -2.40385634252265e-06 125000 -1087.8121870689 0 0 173 (C1) n - 1
REM
REM in /home/bkarasulu/work/CARBON/AIRSS/Generating-Clusters/EDIP-Nigel-Params/with-SteepDescent/Higher-Symm/SD-CG/HFTN-CG
REM
REM
REM
REM
REM
REM ./C.cell (12c818d87b63d06a65506943cc24bca4)
REM
REM compiler GCC version 9.2.1 20190827 (Red Hat 9.2.1-1)
REM options -cpp -mtune=generic -march=x86-64 -g -O0 -fpre-include=/usr/include/finclude/math-vector-fortran.h
REM seed 1782853190 305094268 846788280 -983428764 -1536435133 532917520 1024899636 354254643 -1192132718 -1334693500 -765266766 -192041280 -372569604 896135884 -232371476 -1874068005 1946170790 -1527944006 370119985 -308923892 -215627029 -2069881166 -1592022594 -190892832 -922090268 -1634186352 -1138105507 1469503009 -300776496 2110255691 1296322647 1910718093 680294105
REM
CELL 1.54180   50.00000   50.00000   50.00000   90.00000   90.00000   90.00000
LATT -1
SFAC C  
C      1  0.5315540000000  0.5894940000000  0.5061650000000 1.0
C      1  0.4707290000000  0.5874990000000  0.5072910000000 1.0
C      1  0.4248150000000  0.4771090000000  0.4244420000000 1.0
C      1  0.5715610000000  0.4825790000000  0.4322210000000 1.0
C      1  0.5460170000000  0.4567250000000  0.5247170000000 1.0
C      1  0.4538960000000  0.4626370000000  0.5325780000000 1.0
C      1  0.5975590000000  0.5060950000000  0.4975800000000 1.0
C      1  0.4012420000000  0.4980640000000  0.4968260000000 1.0
C      1  0.4658900000000  0.5339430000000  0.5571670000000 1.0
C      1  0.5409440000000  0.5573000000000  0.5576190000000 1.0
C      1  0.5439030000000  0.5185350000000  0.4804160000000 1.0
C      1  0.4563960000000  0.4978080000000  0.4935620000000 1.0
C      1  0.5569610000000  0.4237470000000  0.5540070000000 1.0
C      1  0.4358300000000  0.4214750000000  0.5495490000000 1.0
C      1  0.4477890000000  0.4115090000000  0.5249990000000 1.0
C      1  0.5469610000000  0.4076930000000  0.5317840000000 1.0
C      1  0.3976220000000  0.4823390000000  0.5222610000000 1.0
C      1  0.5847740000000  0.4880270000000  0.5208780000000 1.0
C      1  0.5271560000000  0.4267410000000  0.4423410000000 1.0
C      1  0.4765580000000  0.4241170000000  0.4374030000000 1.0
C      1  0.4544540000000  0.5993190000000  0.4851490000000 1.0
C      1  0.5430070000000  0.6051460000000  0.4829130000000 1.0
C      1  0.5415100000000  0.4504170000000  0.5931030000000 1.0
C      1  0.4505250000000  0.4434440000000  0.5899950000000 1.0
C      1  0.5239070000000  0.5376650000000  0.6020430000000 1.0
C      1  0.4708380000000  0.5330810000000  0.6015710000000 1.0
C      1  0.5396630000000  0.4916850000000  0.4906830000000 1.0
C      1  0.4501360000000  0.4706710000000  0.5040020000000 1.0
C      1  0.4600840000000  0.5328450000000  0.4173540000000 1.0
C      1  0.5446600000000  0.5367080000000  0.4155340000000 1.0
C      1  0.4352530000000  0.4123350000000  0.4985500000000 1.0
C      1  0.5606160000000  0.4079380000000  0.5057830000000 1.0
C      1  0.4602890000000  0.4086310000000  0.4544660000000 1.0
C      1  0.5414050000000  0.4086660000000  0.4581470000000 1.0
C      1  0.4700280000000  0.4621100000000  0.4058020000000 1.0
C      1  0.5325190000000  0.4623290000000  0.4093000000000 1.0
C      1  0.5379430000000  0.5103080000000  0.4026940000000 1.0
C      1  0.4700720000000  0.5082950000000  0.4062810000000 1.0
C      1  0.5270900000000  0.5445500000000  0.4385740000000 1.0
C      1  0.4771900000000  0.5466030000000  0.4366070000000 1.0
C      1  0.5861730000000  0.5435760000000  0.5436560000000 1.0
C      1  0.4027240000000  0.5373030000000  0.5430780000000 1.0
C      1  0.5933000000000  0.5355730000000  0.4930860000000 1.0
C      1  0.4140760000000  0.5242510000000  0.4961740000000 1.0
C      1  0.4587320000000  0.4107170000000  0.4819760000000 1.0
C      1  0.5401130000000  0.4060870000000  0.4854880000000 1.0
C      1  0.5390810000000  0.5073750000000  0.5384500000000 1.0
C      1  0.4919910000000  0.5120140000000  0.5616620000000 1.0
C      1  0.4356640000000  0.4673390000000  0.5871850000000 1.0
C      1  0.5543190000000  0.4746940000000  0.5830110000000 1.0
C      1  0.4508710000000  0.5170740000000  0.5370750000000 1.0
C      1  0.5494440000000  0.5357330000000  0.5336340000000 1.0
C      1  0.4667300000000  0.5190380000000  0.5109710000000 1.0
C      1  0.5509170000000  0.5404620000000  0.5012470000000 1.0
C      1  0.5514040000000  0.5858340000000  0.5533930000000 1.0
C      1  0.4706810000000  0.5568550000000  0.5393880000000 1.0
C      1  0.5788940000000  0.5829710000000  0.5106140000000 1.0
C      1  0.4282140000000  0.5683110000000  0.5160680000000 1.0
C      1  0.4332420000000  0.5308660000000  0.4242870000000 1.0
C      1  0.5715150000000  0.5383030000000  0.4216510000000 1.0
C      1  0.4643050000000  0.5505540000000  0.4964580000000 1.0
C      1  0.5310350000000  0.5611360000000  0.4932120000000 1.0
C      1  0.5647520000000  0.4573070000000  0.4466600000000 1.0
C      1  0.4320830000000  0.4491140000000  0.4342460000000 1.0
C      1  0.5862300000000  0.5288940000000  0.4431800000000 1.0
C      1  0.4189630000000  0.5222190000000  0.4463320000000 1.0
C      1  0.4305990000000  0.5168680000000  0.5809500000000 1.0
C      1  0.5659290000000  0.5233880000000  0.5852450000000 1.0
C      1  0.4264880000000  0.4491310000000  0.5415120000000 1.0
C      1  0.5706410000000  0.4492830000000  0.5428760000000 1.0
C      1  0.4728000000000  0.5025820000000  0.6005440000000 1.0
C      1  0.5235240000000  0.5085450000000  0.6039510000000 1.0
C      1  0.3986790000000  0.4840190000000  0.4710360000000 1.0
C      1  0.5989970000000  0.4907910000000  0.4726900000000 1.0
C      1  0.4075700000000  0.4457590000000  0.4914220000000 1.0
C      1  0.5865950000000  0.4465830000000  0.4956490000000 1.0
C      1  0.4530240000000  0.5771970000000  0.5291410000000 1.0
C      1  0.5551520000000  0.5934750000000  0.5250940000000 1.0
C      1  0.4379960000000  0.4489230000000  0.4863160000000 1.0
C      1  0.5565230000000  0.4449210000000  0.4965790000000 1.0
C      1  0.5192970000000  0.4215910000000  0.4972440000000 1.0
C      1  0.4757410000000  0.4297460000000  0.4949940000000 1.0
C      1  0.4113100000000  0.4941360000000  0.4459760000000 1.0
C      1  0.5837080000000  0.5013590000000  0.4505970000000 1.0
C      1  0.5519390000000  0.4874690000000  0.5189090000000 1.0
C      1  0.4607800000000  0.4901940000000  0.5512020000000 1.0
C      1  0.4162940000000  0.4652070000000  0.5647020000000 1.0
C      1  0.5756220000000  0.4705760000000  0.5639730000000 1.0
C      1  0.4499930000000  0.4932090000000  0.5812820000000 1.0
C      1  0.5512660000000  0.5000720000000  0.5967590000000 1.0
C      1  0.4066730000000  0.4891640000000  0.5496470000000 1.0
C      1  0.5882580000000  0.4939620000000  0.5505230000000 1.0
C      1  0.4322050000000  0.5279060000000  0.4719790000000 1.0
C      1  0.5874430000000  0.5468250000000  0.4658720000000 1.0
C      1  0.4641350000000  0.5060400000000  0.4662630000000 1.0
C      1  0.5219960000000  0.5185910000000  0.4576130000000 1.0
C      1  0.5851480000000  0.5535040000000  0.5156230000000 1.0
C      1  0.4223060000000  0.5383250000000  0.5217630000000 1.0
C      1  0.4308840000000  0.5785330000000  0.4872200000000 1.0
C      1  0.5711390000000  0.5921520000000  0.4825180000000 1.0
C      1  0.5266470000000  0.5966680000000  0.4594120000000 1.0
C      1  0.4737290000000  0.5924520000000  0.4633080000000 1.0
C      1  0.5425280000000  0.4874000000000  0.4226810000000 1.0
C      1  0.4556320000000  0.4850380000000  0.4191350000000 1.0
C      1  0.5465240000000  0.4648910000000  0.4718510000000 1.0
C      1  0.4477200000000  0.4579310000000  0.4579500000000 1.0
C      1  0.5314840000000  0.4335190000000  0.5696700000000 1.0
C      1  0.4571560000000  0.4237640000000  0.5708590000000 1.0
C      1  0.5922040000000  0.4575940000000  0.5214180000000 1.0
C      1  0.4029830000000  0.4531780000000  0.5198920000000 1.0
C      1  0.4620880000000  0.5672400000000  0.4514010000000 1.0
C      1  0.5381070000000  0.5671740000000  0.4601470000000 1.0
C      1  0.5250250000000  0.4880550000000  0.4486680000000 1.0
C      1  0.4669170000000  0.4809240000000  0.4483530000000 1.0
C      1  0.5972470000000  0.4631910000000  0.4760670000000 1.0
C      1  0.3900180000000  0.4575630000000  0.4725650000000 1.0
C      1  0.4572150000000  0.4388120000000  0.4189210000000 1.0
C      1  0.5463150000000  0.4424920000000  0.4270560000000 1.0
C      1  0.4710250000000  0.4304930000000  0.5240630000000 1.0
C      1  0.5224970000000  0.4246690000000  0.5264000000000 1.0
C      1  0.4490770000000  0.5398920000000  0.5821830000000 1.0
C      1  0.5478990000000  0.5467530000000  0.5859340000000 1.0
C      1  0.5807400000000  0.5203090000000  0.5599590000000 1.0
C      1  0.4121560000000  0.5157470000000  0.5583380000000 1.0
C      1  0.4450070000000  0.5556250000000  0.4737080000000 1.0
C      1  0.5694780000000  0.5706820000000  0.4617640000000 1.0
C      1  0.5113380000000  0.5579750000000  0.5571600000000 1.0
C      1  0.5007010000000  0.5984700000000  0.5161680000000 1.0
C      1  0.5151930000000  0.4770900000000  0.3714910000000 1.0
C      1  0.4923520000000  0.5209650000000  0.4693280000000 1.0
C      1  0.4980520000000  0.5626680000000  0.5314930000000 1.0
C      1  0.4988890000000  0.5734990000000  0.5794900000000 1.0
C      1  0.4968590000000  0.3764480000000  0.4478870000000 1.0
C      1  0.5348320000000  0.6061290000000  0.5670420000000 1.0
C      1  0.4986480000000  0.6089310000000  0.4156720000000 1.0
C      1  0.5021810000000  0.4658350000000  0.5016110000000 1.0
C      1  0.4856140000000  0.4133000000000  0.5649620000000 1.0
C      1  0.5074150000000  0.5453910000000  0.5072570000000 1.0
C      1  0.5022630000000  0.5825280000000  0.4172160000000 1.0
C      1  0.5148520000000  0.5032030000000  0.3821950000000 1.0
C      1  0.5024710000000  0.5559600000000  0.4256300000000 1.0
C      1  0.5282010000000  0.6287080000000  0.5517010000000 1.0
C      1  0.5087470000000  0.4933600000000  0.4918500000000 1.0
C      1  0.4953900000000  0.3705450000000  0.4741400000000 1.0
C      1  0.5095060000000  0.5058370000000  0.5387180000000 1.0
C      1  0.4969680000000  0.5503270000000  0.5985270000000 1.0
C      1  0.5090270000000  0.4507030000000  0.3741940000000 1.0
C      1  0.4991910000000  0.4970510000000  0.5877960000000 1.0
C      1  0.5002160000000  0.6295360000000  0.4830390000000 1.0
C      1  0.5140920000000  0.4537620000000  0.6055060000000 1.0
C      1  0.4975220000000  0.3880610000000  0.4233860000000 1.0
C      1  0.4936860000000  0.4123860000000  0.5359640000000 1.0
C      1  0.4989280000000  0.5143740000000  0.5129660000000 1.0
C      1  0.4995960000000  0.4699520000000  0.4133340000000 1.0
C      1  0.4988590000000  0.4066480000000  0.4035710000000 1.0
C      1  0.5089970000000  0.4161150000000  0.5829160000000 1.0
C      1  0.5152000000000  0.4570870000000  0.5558400000000 1.0
C      1  0.4991170000000  0.6111570000000  0.4602890000000 1.0
C      1  0.4995980000000  0.5008050000000  0.4078560000000 1.0
C      1  0.5008720000000  0.4404900000000  0.4519170000000 1.0
C      1  0.5001270000000  0.6272470000000  0.5109980000000 1.0
C      1  0.5165740000000  0.5948180000000  0.5851200000000 1.0
C      1  0.5023730000000  0.4677720000000  0.5815470000000 1.0
C      1  0.5040600000000  0.4270980000000  0.3865610000000 1.0
C      1  0.4933200000000  0.3724020000000  0.5008990000000 1.0
C      1  0.4982700000000  0.4705860000000  0.4435660000000 1.0
C      1  0.5005250000000  0.4402530000000  0.4847080000000 1.0
C      1  0.5177160000000  0.6388750000000  0.5290040000000 1.0
C      1  0.4963190000000  0.6266010000000  0.4358120000000 1.0
C      1  0.4916620000000  0.3858810000000  0.5242330000000 1.0
C      1  0.5027360000000  0.4276680000000  0.6083150000000 1.0
C      1  0.5036640000000  0.4629340000000  0.5300780000000 1.0
C      1  0.4900610000000  0.5468810000000  0.4838730000000 1.0
END
