TITL C-3578207-9274-127 2.67973284011835e-06 125000 -804.280550700289 0 0 128 (C1) n - 1
REM
REM in /home/bkarasulu/work/CARBON/AIRSS/Generating-Clusters/EDIP-Nigel-Params/with-SteepDescent/Higher-Symm/SD-CG/HFTN-CG
REM
REM
REM
REM
REM
REM ./C.cell (12c818d87b63d06a65506943cc24bca4)
REM
REM compiler GCC version 9.2.1 20190827 (Red Hat 9.2.1-1)
REM options -cpp -mtune=generic -march=x86-64 -g -O0 -fpre-include=/usr/include/finclude/math-vector-fortran.h
REM seed 2032475240 235351054 -1260515094 1610182971 1875301052 -1118638826 380987811 1047335101 -1241917707 263316492 189507627 1437597191 145539360 1678333034 -1972025988 -1861427868 -1795239153 -1301740188 -1813557389 -2054567723 -2130105644 1227930289 639347238 -2113473091 618499225 1886973265 -865735432 175664184 -1450029453 -377363962 -27519473 -1220028064 -1172174615
REM
CELL 1.54180   50.00000   50.00000   50.00000   90.00000   90.00000   90.00000
LATT -1
SFAC C  
C      1  0.5334240000000  0.4804230000000  0.5789670000000 1.0
C      1  0.4630170000000  0.5207260000000  0.5817430000000 1.0
C      1  0.5058970000000  0.4203480000000  0.5646820000000 1.0
C      1  0.4850660000000  0.5727620000000  0.5469160000000 1.0
C      1  0.5406560000000  0.5149910000000  0.4214300000000 1.0
C      1  0.4647690000000  0.4891620000000  0.4254690000000 1.0
C      1  0.4584510000000  0.4644480000000  0.4464890000000 1.0
C      1  0.5471810000000  0.5330990000000  0.4466510000000 1.0
C      1  0.4696300000000  0.4359670000000  0.4514710000000 1.0
C      1  0.5329030000000  0.5590750000000  0.4585670000000 1.0
C      1  0.4167880000000  0.4835040000000  0.4386390000000 1.0
C      1  0.5884250000000  0.5150000000000  0.4384440000000 1.0
C      1  0.5111050000000  0.4839220000000  0.5185380000000 1.0
C      1  0.5019220000000  0.5124610000000  0.5183830000000 1.0
C      1  0.4551930000000  0.5181460000000  0.5081010000000 1.0
C      1  0.5602850000000  0.4805630000000  0.5004570000000 1.0
C      1  0.4573170000000  0.4810500000000  0.5464860000000 1.0
C      1  0.5429560000000  0.5214810000000  0.5504140000000 1.0
C      1  0.4764360000000  0.5007780000000  0.5617280000000 1.0
C      1  0.5272380000000  0.5075110000000  0.5721570000000 1.0
C      1  0.4957430000000  0.4538460000000  0.4157540000000 1.0
C      1  0.5029000000000  0.5527670000000  0.4229050000000 1.0
C      1  0.5847850000000  0.5170700000000  0.5122440000000 1.0
C      1  0.4202870000000  0.4801510000000  0.5097560000000 1.0
C      1  0.5822430000000  0.4491870000000  0.5176480000000 1.0
C      1  0.4059850000000  0.5529030000000  0.5207440000000 1.0
C      1  0.4914280000000  0.4063810000000  0.5193720000000 1.0
C      1  0.5096870000000  0.5783590000000  0.5058990000000 1.0
C      1  0.4699400000000  0.4517040000000  0.5499860000000 1.0
C      1  0.5283270000000  0.5493550000000  0.5463570000000 1.0
C      1  0.5399490000000  0.5468710000000  0.4943200000000 1.0
C      1  0.4831550000000  0.4480240000000  0.4944310000000 1.0
C      1  0.4674690000000  0.4745210000000  0.4942240000000 1.0
C      1  0.5386530000000  0.5190340000000  0.4943780000000 1.0
C      1  0.5481580000000  0.5832460000000  0.4714170000000 1.0
C      1  0.4650850000000  0.4264030000000  0.4809970000000 1.0
C      1  0.4291130000000  0.5091200000000  0.4752050000000 1.0
C      1  0.5668300000000  0.4881210000000  0.4706290000000 1.0
C      1  0.4302280000000  0.4276490000000  0.5164740000000 1.0
C      1  0.5727930000000  0.5788380000000  0.5148220000000 1.0
C      1  0.5259340000000  0.4268000000000  0.4774670000000 1.0
C      1  0.4627590000000  0.5837830000000  0.4855750000000 1.0
C      1  0.5772950000000  0.5613830000000  0.5383390000000 1.0
C      1  0.4173380000000  0.4422050000000  0.5392660000000 1.0
C      1  0.5670350000000  0.4992120000000  0.4236080000000 1.0
C      1  0.4387490000000  0.5021810000000  0.4322060000000 1.0
C      1  0.5863300000000  0.5505790000000  0.4722040000000 1.0
C      1  0.4187940000000  0.4476990000000  0.4707670000000 1.0
C      1  0.5080740000000  0.4668730000000  0.5872410000000 1.0
C      1  0.4887870000000  0.5377180000000  0.5847310000000 1.0
C      1  0.4156300000000  0.5268110000000  0.5259320000000 1.0
C      1  0.5906640000000  0.4723400000000  0.5310880000000 1.0
C      1  0.4222980000000  0.5162550000000  0.5530320000000 1.0
C      1  0.5724550000000  0.4852020000000  0.5497270000000 1.0
C      1  0.5728360000000  0.5154670000000  0.5553210000000 1.0
C      1  0.4279730000000  0.4864800000000  0.5554960000000 1.0
C      1  0.4477790000000  0.5775890000000  0.5100680000000 1.0
C      1  0.5405260000000  0.4277150000000  0.5027450000000 1.0
C      1  0.4214600000000  0.5633770000000  0.4720350000000 1.0
C      1  0.5717720000000  0.4370310000000  0.4674890000000 1.0
C      1  0.4599570000000  0.4908230000000  0.4695870000000 1.0
C      1  0.5418410000000  0.5081450000000  0.4671760000000 1.0
C      1  0.4408260000000  0.5330670000000  0.5678510000000 1.0
C      1  0.5519970000000  0.4683100000000  0.5608520000000 1.0
C      1  0.4242640000000  0.4351370000000  0.5656190000000 1.0
C      1  0.5690520000000  0.5720220000000  0.5631930000000 1.0
C      1  0.4991890000000  0.4509680000000  0.5626440000000 1.0
C      1  0.4987470000000  0.5472170000000  0.5567710000000 1.0
C      1  0.5077810000000  0.5652300000000  0.4467130000000 1.0
C      1  0.4922760000000  0.4325580000000  0.4343430000000 1.0
C      1  0.5116350000000  0.4939000000000  0.4630240000000 1.0
C      1  0.4855640000000  0.5112410000000  0.4677450000000 1.0
C      1  0.4850700000000  0.5636520000000  0.4898080000000 1.0
C      1  0.5096950000000  0.4524960000000  0.4794300000000 1.0
C      1  0.5301000000000  0.4180810000000  0.5500000000000 1.0
C      1  0.4645700000000  0.5623020000000  0.5288750000000 1.0
C      1  0.5408740000000  0.4279670000000  0.4282630000000 1.0
C      1  0.4552740000000  0.5748620000000  0.4358950000000 1.0
C      1  0.5951690000000  0.5261850000000  0.4851510000000 1.0
C      1  0.4046480000000  0.4692470000000  0.4840660000000 1.0
C      1  0.4814140000000  0.5353650000000  0.4212410000000 1.0
C      1  0.5195940000000  0.4695710000000  0.4125920000000 1.0
C      1  0.4375810000000  0.4353880000000  0.4891220000000 1.0
C      1  0.5659250000000  0.5651600000000  0.4888540000000 1.0
C      1  0.5159990000000  0.4979820000000  0.4193920000000 1.0
C      1  0.4879790000000  0.5072920000000  0.4236670000000 1.0
C      1  0.4110450000000  0.4707100000000  0.5363500000000 1.0
C      1  0.5889120000000  0.5338290000000  0.5372370000000 1.0
C      1  0.4901830000000  0.5492090000000  0.4624590000000 1.0
C      1  0.5024400000000  0.4646110000000  0.4525230000000 1.0
C      1  0.4156490000000  0.5394740000000  0.4566410000000 1.0
C      1  0.5826420000000  0.4588390000000  0.4515840000000 1.0
C      1  0.4915970000000  0.4895340000000  0.5946690000000 1.0
C      1  0.5061980000000  0.5148030000000  0.5913170000000 1.0
C      1  0.4522850000000  0.4313970000000  0.5644080000000 1.0
C      1  0.5408200000000  0.5733970000000  0.5601720000000 1.0
C      1  0.4050980000000  0.4914840000000  0.4641890000000 1.0
C      1  0.5922880000000  0.5040640000000  0.4658680000000 1.0
C      1  0.4681780000000  0.4011990000000  0.5019610000000 1.0
C      1  0.5319150000000  0.5969010000000  0.4927590000000 1.0
C      1  0.4292050000000  0.4576920000000  0.4445410000000 1.0
C      1  0.5765260000000  0.5411210000000  0.4454620000000 1.0
C      1  0.5658520000000  0.4703520000000  0.4307460000000 1.0
C      1  0.4349480000000  0.5305520000000  0.4371140000000 1.0
C      1  0.4126160000000  0.5079410000000  0.5044590000000 1.0
C      1  0.5980650000000  0.4916500000000  0.5130920000000 1.0
C      1  0.5549740000000  0.5079660000000  0.5159690000000 1.0
C      1  0.4514870000000  0.4880500000000  0.5147010000000 1.0
C      1  0.5501690000000  0.5996400000000  0.5177340000000 1.0
C      1  0.4471440000000  0.4046950000000  0.5234390000000 1.0
C      1  0.5240170000000  0.4356330000000  0.5271310000000 1.0
C      1  0.4580760000000  0.5339580000000  0.5343050000000 1.0
C      1  0.4451310000000  0.5779120000000  0.4623400000000 1.0
C      1  0.5466670000000  0.4265330000000  0.4561390000000 1.0
C      1  0.5668720000000  0.4379360000000  0.4968510000000 1.0
C      1  0.4241690000000  0.5625910000000  0.5013670000000 1.0
C      1  0.5316830000000  0.5966700000000  0.5433610000000 1.0
C      1  0.4582940000000  0.4050660000000  0.5519330000000 1.0
C      1  0.4577430000000  0.5470380000000  0.4329930000000 1.0
C      1  0.5427630000000  0.4553860000000  0.4226040000000 1.0
C      1  0.4912770000000  0.4363600000000  0.5215060000000 1.0
C      1  0.5238040000000  0.5550660000000  0.5163520000000 1.0
C      1  0.5205140000000  0.4638500000000  0.5402030000000 1.0
C      1  0.4858670000000  0.5227890000000  0.5421550000000 1.0
C      1  0.4832050000000  0.5249680000000  0.4965590000000 1.0
C      1  0.5260410000000  0.4764790000000  0.4941780000000 1.0
C      1  0.4878630000000  0.4009320000000  0.5488810000000 1.0
C      1  0.5028540000000  0.5918880000000  0.5322390000000 1.0
END
