TITL C-3578202-4305-480 -1.43326837235354e-06 125000 -875.499547994452 0 0 140 (C1) n - 1
REM
REM in /home/bkarasulu/work/CARBON/AIRSS/Generating-Clusters/EDIP-Nigel-Params/with-SteepDescent/Higher-Symm/SD-CG/HFTN-CG
REM
REM
REM
REM
REM
REM ./C.cell (12c818d87b63d06a65506943cc24bca4)
REM
REM compiler GCC version 9.2.1 20190827 (Red Hat 9.2.1-1)
REM options -cpp -mtune=generic -march=x86-64 -g -O0 -fpre-include=/usr/include/finclude/math-vector-fortran.h
REM seed 1460898644 -1083133704 -662235686 1685491620 -1133976078 2127368305 -1126237503 1624510331 937135337 -405729508 1223665885 1099425940 -1204702128 1678731918 -1923523457 -536950631 -1212712239 251430160 1220293031 -1804120690 901029620 -1136527436 -1614171889 -1069269780 743230229 1985826221 -687798951 2080027990 -1781700107 400784031 824069485 -373028227 1697250141
REM
CELL 1.54180   50.00000   50.00000   50.00000   90.00000   90.00000   90.00000
LATT -1
SFAC C  
C      1  0.4637370000000  0.4414620000000  0.5505600000000 1.0
C      1  0.5367620000000  0.4405150000000  0.4498800000000 1.0
C      1  0.4601490000000  0.5602580000000  0.5518330000000 1.0
C      1  0.5344530000000  0.5596270000000  0.4486640000000 1.0
C      1  0.4778200000000  0.4101520000000  0.4824730000000 1.0
C      1  0.5227720000000  0.4087330000000  0.5172550000000 1.0
C      1  0.4750530000000  0.5944930000000  0.4826300000000 1.0
C      1  0.5228200000000  0.5917810000000  0.5171730000000 1.0
C      1  0.5042880000000  0.5543250000000  0.4662000000000 1.0
C      1  0.5013220000000  0.5588520000000  0.5373170000000 1.0
C      1  0.5005530000000  0.4435100000000  0.4638450000000 1.0
C      1  0.5002230000000  0.4415250000000  0.5366680000000 1.0
C      1  0.4782480000000  0.5278210000000  0.4121820000000 1.0
C      1  0.5226090000000  0.5261370000000  0.5874880000000 1.0
C      1  0.4769640000000  0.4727470000000  0.4108430000000 1.0
C      1  0.5231880000000  0.4738120000000  0.5883760000000 1.0
C      1  0.4644690000000  0.4839060000000  0.4801290000000 1.0
C      1  0.5349300000000  0.4836510000000  0.5205820000000 1.0
C      1  0.4669470000000  0.5167060000000  0.4797850000000 1.0
C      1  0.5335170000000  0.5175540000000  0.5209220000000 1.0
C      1  0.4801310000000  0.4352820000000  0.4416160000000 1.0
C      1  0.5209940000000  0.4343910000000  0.5594160000000 1.0
C      1  0.4829810000000  0.5636880000000  0.4449450000000 1.0
C      1  0.5218740000000  0.5660580000000  0.5598780000000 1.0
C      1  0.5522570000000  0.4732030000000  0.5451550000000 1.0
C      1  0.4486960000000  0.4735230000000  0.4546310000000 1.0
C      1  0.5517920000000  0.5271110000000  0.5446760000000 1.0
C      1  0.4499890000000  0.5272770000000  0.4555860000000 1.0
C      1  0.4195060000000  0.4631400000000  0.5610740000000 1.0
C      1  0.5815090000000  0.4616390000000  0.4405150000000 1.0
C      1  0.4178830000000  0.5347110000000  0.5559450000000 1.0
C      1  0.5794950000000  0.5359350000000  0.4427230000000 1.0
C      1  0.5101930000000  0.4838220000000  0.4255030000000 1.0
C      1  0.4901840000000  0.4848050000000  0.5733820000000 1.0
C      1  0.5104990000000  0.5146720000000  0.4272180000000 1.0
C      1  0.4888730000000  0.5162360000000  0.5730010000000 1.0
C      1  0.4103930000000  0.4424140000000  0.4963110000000 1.0
C      1  0.5891330000000  0.4411690000000  0.5023960000000 1.0
C      1  0.4114850000000  0.5568110000000  0.4981990000000 1.0
C      1  0.5875490000000  0.5575200000000  0.5006510000000 1.0
C      1  0.4557210000000  0.5340520000000  0.6064390000000 1.0
C      1  0.5413630000000  0.5347860000000  0.3932030000000 1.0
C      1  0.4572150000000  0.4675180000000  0.6065040000000 1.0
C      1  0.5468030000000  0.4725050000000  0.3930770000000 1.0
C      1  0.5376910000000  0.5221080000000  0.4177720000000 1.0
C      1  0.4608190000000  0.5227210000000  0.5813940000000 1.0
C      1  0.5385320000000  0.4776120000000  0.4191070000000 1.0
C      1  0.4623210000000  0.4784070000000  0.5812990000000 1.0
C      1  0.5468570000000  0.4240760000000  0.5250860000000 1.0
C      1  0.4520180000000  0.4224160000000  0.4729760000000 1.0
C      1  0.5457300000000  0.5740500000000  0.5235160000000 1.0
C      1  0.4540720000000  0.5748190000000  0.4768040000000 1.0
C      1  0.4173510000000  0.4718440000000  0.4912770000000 1.0
C      1  0.5813710000000  0.4707080000000  0.5065440000000 1.0
C      1  0.4220420000000  0.5279560000000  0.4957010000000 1.0
C      1  0.5780170000000  0.5281380000000  0.5037470000000 1.0
C      1  0.4378450000000  0.5773670000000  0.5432310000000 1.0
C      1  0.5578010000000  0.5765890000000  0.4579260000000 1.0
C      1  0.4407490000000  0.4231030000000  0.5438990000000 1.0
C      1  0.5592980000000  0.4211890000000  0.4556500000000 1.0
C      1  0.4595890000000  0.5147470000000  0.4300000000000 1.0
C      1  0.5425010000000  0.5143310000000  0.5702820000000 1.0
C      1  0.4594630000000  0.4862680000000  0.4296970000000 1.0
C      1  0.5429950000000  0.4858790000000  0.5708060000000 1.0
C      1  0.4458640000000  0.4753820000000  0.5037680000000 1.0
C      1  0.5525410000000  0.4740310000000  0.4960650000000 1.0
C      1  0.4518470000000  0.5272150000000  0.5042120000000 1.0
C      1  0.5481870000000  0.5265150000000  0.4954870000000 1.0
C      1  0.5486490000000  0.5576490000000  0.5476980000000 1.0
C      1  0.4546760000000  0.5575530000000  0.4536490000000 1.0
C      1  0.5483490000000  0.4424080000000  0.5481840000000 1.0
C      1  0.4522020000000  0.4426000000000  0.4511390000000 1.0
C      1  0.4426020000000  0.5928180000000  0.5180030000000 1.0
C      1  0.5543780000000  0.5923540000000  0.4823910000000 1.0
C      1  0.4450440000000  0.4105360000000  0.5176930000000 1.0
C      1  0.5550800000000  0.4078130000000  0.4816920000000 1.0
C      1  0.4213820000000  0.4849470000000  0.4633400000000 1.0
C      1  0.5793150000000  0.4844190000000  0.5346390000000 1.0
C      1  0.4226210000000  0.5160100000000  0.4659900000000 1.0
C      1  0.5784270000000  0.5155000000000  0.5329840000000 1.0
C      1  0.5508170000000  0.4855150000000  0.4686330000000 1.0
C      1  0.4485860000000  0.4869230000000  0.5314000000000 1.0
C      1  0.5419620000000  0.5143070000000  0.4680480000000 1.0
C      1  0.4580150000000  0.5158260000000  0.5317090000000 1.0
C      1  0.4313860000000  0.5783550000000  0.4940430000000 1.0
C      1  0.5673870000000  0.5785940000000  0.5056730000000 1.0
C      1  0.4342010000000  0.4255670000000  0.4950450000000 1.0
C      1  0.5667610000000  0.4225230000000  0.5047970000000 1.0
C      1  0.5077770000000  0.4048750000000  0.4422950000000 1.0
C      1  0.4937910000000  0.4062910000000  0.5601170000000 1.0
C      1  0.5052580000000  0.5947700000000  0.4409280000000 1.0
C      1  0.4942290000000  0.5937900000000  0.5591260000000 1.0
C      1  0.6011430000000  0.4850310000000  0.4900010000000 1.0
C      1  0.3964230000000  0.4867030000000  0.5039800000000 1.0
C      1  0.5966710000000  0.5129370000000  0.4849910000000 1.0
C      1  0.4044280000000  0.5109780000000  0.5140410000000 1.0
C      1  0.4533430000000  0.5142230000000  0.6243100000000 1.0
C      1  0.5473200000000  0.5163320000000  0.3747080000000 1.0
C      1  0.4540000000000  0.4874790000000  0.6240420000000 1.0
C      1  0.5502530000000  0.4897590000000  0.3729190000000 1.0
C      1  0.5080470000000  0.4691300000000  0.5242530000000 1.0
C      1  0.4910120000000  0.4697380000000  0.4794170000000 1.0
C      1  0.5062100000000  0.5310230000000  0.5250360000000 1.0
C      1  0.4953420000000  0.5271870000000  0.4774500000000 1.0
C      1  0.4729550000000  0.4032650000000  0.5106130000000 1.0
C      1  0.5265940000000  0.4017200000000  0.4890620000000 1.0
C      1  0.4713500000000  0.6004520000000  0.5111490000000 1.0
C      1  0.5260500000000  0.6000000000000  0.4894080000000 1.0
C      1  0.4033410000000  0.4860030000000  0.5566440000000 1.0
C      1  0.5986160000000  0.4826550000000  0.4517940000000 1.0
C      1  0.4042300000000  0.5113020000000  0.5434810000000 1.0
C      1  0.5929430000000  0.5120410000000  0.4558420000000 1.0
C      1  0.4885980000000  0.4471100000000  0.4160420000000 1.0
C      1  0.5113850000000  0.4481440000000  0.5836860000000 1.0
C      1  0.4905830000000  0.5529220000000  0.4183670000000 1.0
C      1  0.5117430000000  0.5517890000000  0.5833050000000 1.0
C      1  0.4956320000000  0.5966180000000  0.5292810000000 1.0
C      1  0.5028530000000  0.5933290000000  0.4710070000000 1.0
C      1  0.4960840000000  0.4031360000000  0.5299850000000 1.0
C      1  0.5033180000000  0.4005390000000  0.4703800000000 1.0
C      1  0.4130250000000  0.5606010000000  0.5423380000000 1.0
C      1  0.5834740000000  0.5616840000000  0.4566560000000 1.0
C      1  0.4145790000000  0.4379980000000  0.5459410000000 1.0
C      1  0.5858810000000  0.4351860000000  0.4532740000000 1.0
C      1  0.4803450000000  0.5702980000000  0.5706320000000 1.0
C      1  0.5203350000000  0.5740750000000  0.4257700000000 1.0
C      1  0.4804800000000  0.4295610000000  0.5727060000000 1.0
C      1  0.5188270000000  0.4280340000000  0.4284450000000 1.0
C      1  0.5131880000000  0.5111240000000  0.4606390000000 1.0
C      1  0.4871290000000  0.5139070000000  0.5395590000000 1.0
C      1  0.5089710000000  0.4806110000000  0.4573300000000 1.0
C      1  0.4912940000000  0.4843920000000  0.5422690000000 1.0
C      1  0.6027010000000  0.5634800000000  0.4774730000000 1.0
C      1  0.3949490000000  0.5623140000000  0.5205100000000 1.0
C      1  0.6009790000000  0.4360860000000  0.4773360000000 1.0
C      1  0.3993250000000  0.4389800000000  0.5220140000000 1.0
C      1  0.4482010000000  0.5331680000000  0.5562870000000 1.0
C      1  0.5494240000000  0.5328130000000  0.4428530000000 1.0
C      1  0.4489110000000  0.4679970000000  0.5567730000000 1.0
C      1  0.5517800000000  0.4668950000000  0.4436860000000 1.0
END
