TITL C-3578194-7807-281 2.79750687358528e-07 125000 -1275.60465847182 0 0 199 (C1) n - 1
REM
REM in /home/bkarasulu/work/CARBON/AIRSS/Generating-Clusters/EDIP-Nigel-Params/with-SteepDescent/Higher-Symm/SD-CG/HFTN-CG
REM
REM
REM
REM
REM
REM ./C.cell (12c818d87b63d06a65506943cc24bca4)
REM
REM compiler GCC version 9.2.1 20190827 (Red Hat 9.2.1-1)
REM options -cpp -mtune=generic -march=x86-64 -g -O0 -fpre-include=/usr/include/finclude/math-vector-fortran.h
REM seed 1975113011 1500237616 -787033935 2092879557 1322802392 -364241084 -1588451168 -163693613 -2029930790 157938025 1545820925 131706589 -635600937 -1856591130 -806642269 -1694490730 1548746715 -626911436 687330284 -19306341 -1195494091 -486395940 -1549575815 -90278131 1651152241 924965839 1667204693 -519146813 272006226 -1437490885 1958542766 1753580559 2021880176
REM
CELL 1.54180   50.00000   50.00000   50.00000   90.00000   90.00000   90.00000
LATT -1
SFAC C  
C      1  0.5583080000000  0.5630370000000  0.5940350000000 1.0
C      1  0.4964610000000  0.5657460000000  0.5142370000000 1.0
C      1  0.4717790000000  0.4531430000000  0.5891520000000 1.0
C      1  0.4398990000000  0.4173840000000  0.4383750000000 1.0
C      1  0.5416350000000  0.5502710000000  0.5099770000000 1.0
C      1  0.4042370000000  0.4507420000000  0.4946510000000 1.0
C      1  0.5509760000000  0.4178830000000  0.5403990000000 1.0
C      1  0.5378120000000  0.6177690000000  0.4750090000000 1.0
C      1  0.5624860000000  0.4132980000000  0.5137650000000 1.0
C      1  0.4606630000000  0.5003170000000  0.5687820000000 1.0
C      1  0.6053990000000  0.5205630000000  0.5307400000000 1.0
C      1  0.5466230000000  0.4707250000000  0.5773530000000 1.0
C      1  0.5030020000000  0.5450950000000  0.5356970000000 1.0
C      1  0.5774270000000  0.5138550000000  0.5261490000000 1.0
C      1  0.5480860000000  0.5021360000000  0.4217400000000 1.0
C      1  0.5747110000000  0.4241040000000  0.4574840000000 1.0
C      1  0.4215450000000  0.4483010000000  0.5642530000000 1.0
C      1  0.4143490000000  0.4487310000000  0.4661520000000 1.0
C      1  0.4561210000000  0.4364630000000  0.3981520000000 1.0
C      1  0.5298560000000  0.4154990000000  0.4464560000000 1.0
C      1  0.5390600000000  0.5477830000000  0.4598990000000 1.0
C      1  0.4373280000000  0.4903420000000  0.4726750000000 1.0
C      1  0.5573140000000  0.5912180000000  0.4375300000000 1.0
C      1  0.4754850000000  0.5539890000000  0.4957780000000 1.0
C      1  0.4936690000000  0.5167120000000  0.5302230000000 1.0
C      1  0.5251730000000  0.5270710000000  0.4764190000000 1.0
C      1  0.4408900000000  0.4408640000000  0.4209620000000 1.0
C      1  0.5048170000000  0.4034260000000  0.5243700000000 1.0
C      1  0.5149060000000  0.4646960000000  0.4419300000000 1.0
C      1  0.5119950000000  0.4134760000000  0.5709030000000 1.0
C      1  0.5146300000000  0.6120030000000  0.5211380000000 1.0
C      1  0.4807070000000  0.4300760000000  0.4663630000000 1.0
C      1  0.4553190000000  0.5434120000000  0.5440270000000 1.0
C      1  0.4598390000000  0.5103120000000  0.4803890000000 1.0
C      1  0.5640410000000  0.4902680000000  0.5368090000000 1.0
C      1  0.5586500000000  0.5788230000000  0.5689630000000 1.0
C      1  0.4691850000000  0.4267200000000  0.4954400000000 1.0
C      1  0.4893010000000  0.4693950000000  0.3935700000000 1.0
C      1  0.4822870000000  0.4750320000000  0.4488160000000 1.0
C      1  0.5661290000000  0.4660760000000  0.5190850000000 1.0
C      1  0.4256650000000  0.4385770000000  0.5154420000000 1.0
C      1  0.4509570000000  0.4501130000000  0.5011980000000 1.0
C      1  0.5777540000000  0.5476060000000  0.4298960000000 1.0
C      1  0.5598300000000  0.5144510000000  0.5782320000000 1.0
C      1  0.4537480000000  0.4770870000000  0.5867150000000 1.0
C      1  0.5894120000000  0.4496980000000  0.5268870000000 1.0
C      1  0.3944890000000  0.4987190000000  0.4469670000000 1.0
C      1  0.4104740000000  0.4806510000000  0.4990360000000 1.0
C      1  0.5747310000000  0.5187400000000  0.4263500000000 1.0
C      1  0.4625680000000  0.5616660000000  0.4058860000000 1.0
C      1  0.4071760000000  0.5775370000000  0.5130890000000 1.0
C      1  0.5169640000000  0.4754030000000  0.3935320000000 1.0
C      1  0.6145930000000  0.5224870000000  0.4549240000000 1.0
C      1  0.4495760000000  0.4936510000000  0.5266540000000 1.0
C      1  0.4976980000000  0.4718800000000  0.5586480000000 1.0
C      1  0.5394270000000  0.4815790000000  0.6060110000000 1.0
C      1  0.4568800000000  0.3849240000000  0.5005640000000 1.0
C      1  0.4376170000000  0.4139560000000  0.5341190000000 1.0
C      1  0.5719030000000  0.5169030000000  0.4980290000000 1.0
C      1  0.4674210000000  0.4332050000000  0.5663960000000 1.0
C      1  0.6124690000000  0.5320770000000  0.5552720000000 1.0
C      1  0.4897220000000  0.5948260000000  0.5247030000000 1.0
C      1  0.5302170000000  0.4590180000000  0.4145780000000 1.0
C      1  0.5138510000000  0.5004040000000  0.5161460000000 1.0
C      1  0.5101150000000  0.5728910000000  0.5975580000000 1.0
C      1  0.4490610000000  0.5673320000000  0.4865830000000 1.0
C      1  0.5007960000000  0.3897590000000  0.4751770000000 1.0
C      1  0.4843760000000  0.5750020000000  0.4491150000000 1.0
C      1  0.6126890000000  0.5167420000000  0.4823610000000 1.0
C      1  0.5688290000000  0.5469900000000  0.4954100000000 1.0
C      1  0.5211440000000  0.4342950000000  0.5892100000000 1.0
C      1  0.5010810000000  0.4578330000000  0.5947260000000 1.0
C      1  0.5353040000000  0.5210550000000  0.5587190000000 1.0
C      1  0.6000840000000  0.4917480000000  0.4889660000000 1.0
C      1  0.5415770000000  0.4125270000000  0.4921470000000 1.0
C      1  0.5158690000000  0.6241840000000  0.4938210000000 1.0
C      1  0.4382090000000  0.4039180000000  0.4907710000000 1.0
C      1  0.5554440000000  0.4602500000000  0.4893330000000 1.0
C      1  0.4723780000000  0.5354510000000  0.6021270000000 1.0
C      1  0.4789740000000  0.3881180000000  0.5478190000000 1.0
C      1  0.4737170000000  0.3803750000000  0.4771080000000 1.0
C      1  0.3870030000000  0.4986400000000  0.4979170000000 1.0
C      1  0.4396610000000  0.5752660000000  0.4143410000000 1.0
C      1  0.4615260000000  0.3975000000000  0.5273780000000 1.0
C      1  0.4430900000000  0.4602800000000  0.4735110000000 1.0
C      1  0.5015120000000  0.5112470000000  0.6118150000000 1.0
C      1  0.5180110000000  0.3948660000000  0.4984190000000 1.0
C      1  0.5076830000000  0.5179750000000  0.5744110000000 1.0
C      1  0.4388990000000  0.5709690000000  0.5488190000000 1.0
C      1  0.5314420000000  0.5536060000000  0.6000070000000 1.0
C      1  0.4797400000000  0.4510380000000  0.5424710000000 1.0
C      1  0.4208030000000  0.5556580000000  0.4944010000000 1.0
C      1  0.5269770000000  0.5032400000000  0.3977320000000 1.0
C      1  0.5074460000000  0.5256230000000  0.3945550000000 1.0
C      1  0.5336460000000  0.5504820000000  0.4316680000000 1.0
C      1  0.4655140000000  0.4526160000000  0.4559110000000 1.0
C      1  0.4463400000000  0.5941830000000  0.5329100000000 1.0
C      1  0.4881890000000  0.5674630000000  0.4197920000000 1.0
C      1  0.4309580000000  0.5690200000000  0.4400930000000 1.0
C      1  0.4973350000000  0.5256180000000  0.4380160000000 1.0
C      1  0.5595120000000  0.6011610000000  0.4856620000000 1.0
C      1  0.4168270000000  0.4202810000000  0.4560770000000 1.0
C      1  0.4004460000000  0.4975260000000  0.5452900000000 1.0
C      1  0.4473930000000  0.5968300000000  0.4938290000000 1.0
C      1  0.4831930000000  0.4414060000000  0.3971850000000 1.0
C      1  0.4738220000000  0.6076000000000  0.5013790000000 1.0
C      1  0.5543070000000  0.4645590000000  0.6241850000000 1.0
C      1  0.5105640000000  0.3933070000000  0.4475670000000 1.0
C      1  0.4254490000000  0.6007630000000  0.5141310000000 1.0
C      1  0.4539160000000  0.5617660000000  0.4574950000000 1.0
C      1  0.4568050000000  0.5312610000000  0.4576200000000 1.0
C      1  0.5704040000000  0.4872880000000  0.5669580000000 1.0
C      1  0.4685270000000  0.4063040000000  0.4498120000000 1.0
C      1  0.5273400000000  0.5275010000000  0.6129820000000 1.0
C      1  0.4322560000000  0.5177160000000  0.4044480000000 1.0
C      1  0.4886490000000  0.5013570000000  0.5572080000000 1.0
C      1  0.5438420000000  0.5073860000000  0.4917180000000 1.0
C      1  0.6135740000000  0.5359530000000  0.5062790000000 1.0
C      1  0.5808480000000  0.4446410000000  0.4795060000000 1.0
C      1  0.5389970000000  0.6021560000000  0.5328340000000 1.0
C      1  0.5685430000000  0.4334070000000  0.4314080000000 1.0
C      1  0.5727580000000  0.4613400000000  0.4332120000000 1.0
C      1  0.4650430000000  0.4921480000000  0.4298430000000 1.0
C      1  0.4971910000000  0.5542150000000  0.4716990000000 1.0
C      1  0.5662620000000  0.4273320000000  0.5628030000000 1.0
C      1  0.4925750000000  0.5430950000000  0.5822500000000 1.0
C      1  0.5825580000000  0.5762950000000  0.5249710000000 1.0
C      1  0.4128700000000  0.5199890000000  0.4287530000000 1.0
C      1  0.4596470000000  0.5319200000000  0.4062810000000 1.0
C      1  0.5704800000000  0.5850850000000  0.4633380000000 1.0
C      1  0.5670150000000  0.5552110000000  0.4656920000000 1.0
C      1  0.4389950000000  0.4249000000000  0.5615920000000 1.0
C      1  0.5562160000000  0.5661330000000  0.4210030000000 1.0
C      1  0.4108000000000  0.5473300000000  0.4433660000000 1.0
C      1  0.5942980000000  0.4767720000000  0.4456440000000 1.0
C      1  0.5313270000000  0.4896680000000  0.4498600000000 1.0
C      1  0.4237200000000  0.4664180000000  0.4229470000000 1.0
C      1  0.4789060000000  0.5184760000000  0.3870800000000 1.0
C      1  0.4033180000000  0.5425290000000  0.4715940000000 1.0
C      1  0.4006800000000  0.4677150000000  0.4446090000000 1.0
C      1  0.5077690000000  0.5444000000000  0.4186430000000 1.0
C      1  0.4674860000000  0.4706850000000  0.5183740000000 1.0
C      1  0.4207800000000  0.4570370000000  0.5369440000000 1.0
C      1  0.5336160000000  0.5883690000000  0.5580230000000 1.0
C      1  0.4072370000000  0.5386560000000  0.5348770000000 1.0
C      1  0.4412230000000  0.4898070000000  0.3976510000000 1.0
C      1  0.5199300000000  0.5653190000000  0.4958980000000 1.0
C      1  0.4497640000000  0.5741180000000  0.5771290000000 1.0
C      1  0.4816060000000  0.5853300000000  0.5581990000000 1.0
C      1  0.5896920000000  0.4391360000000  0.5531950000000 1.0
C      1  0.5264210000000  0.6079620000000  0.4494840000000 1.0
C      1  0.3830120000000  0.5106290000000  0.5244770000000 1.0
C      1  0.5946200000000  0.5061310000000  0.4430460000000 1.0
C      1  0.5306430000000  0.4414870000000  0.4876170000000 1.0
C      1  0.5333420000000  0.4273120000000  0.4157120000000 1.0
C      1  0.5152810000000  0.4386880000000  0.4607080000000 1.0
C      1  0.4487850000000  0.5461770000000  0.5886280000000 1.0
C      1  0.4828100000000  0.5538110000000  0.5556100000000 1.0
C      1  0.4208320000000  0.4839120000000  0.5278120000000 1.0
C      1  0.4276230000000  0.4672030000000  0.5843240000000 1.0
C      1  0.4971900000000  0.6032210000000  0.4544900000000 1.0
C      1  0.4139490000000  0.5215090000000  0.5597610000000 1.0
C      1  0.3912660000000  0.5144360000000  0.4728320000000 1.0
C      1  0.4092980000000  0.5673690000000  0.5415230000000 1.0
C      1  0.5484170000000  0.4851450000000  0.4742120000000 1.0
C      1  0.5556560000000  0.4741750000000  0.4156070000000 1.0
C      1  0.5506870000000  0.4414600000000  0.5850580000000 1.0
C      1  0.5082710000000  0.5897410000000  0.5738710000000 1.0
C      1  0.5016200000000  0.4224440000000  0.4107670000000 1.0
C      1  0.5868120000000  0.4292710000000  0.5057070000000 1.0
C      1  0.5100340000000  0.4510320000000  0.5056160000000 1.0
C      1  0.5414380000000  0.5486940000000  0.5410920000000 1.0
C      1  0.5341680000000  0.4960770000000  0.5396870000000 1.0
C      1  0.4960110000000  0.4781360000000  0.5027620000000 1.0
C      1  0.5526630000000  0.4071330000000  0.4646400000000 1.0
C      1  0.4536730000000  0.5201310000000  0.5129650000000 1.0
C      1  0.5622600000000  0.5955990000000  0.5149220000000 1.0
C      1  0.4696670000000  0.4899980000000  0.3865760000000 1.0
C      1  0.4697730000000  0.5212550000000  0.4333410000000 1.0
C      1  0.4159580000000  0.3995610000000  0.4749760000000 1.0
C      1  0.5098110000000  0.5093650000000  0.4592750000000 1.0
C      1  0.4907090000000  0.6181170000000  0.4798820000000 1.0
C      1  0.5710480000000  0.5612130000000  0.5486680000000 1.0
C      1  0.5801800000000  0.5436330000000  0.5917640000000 1.0
C      1  0.4917610000000  0.4311680000000  0.5174150000000 1.0
C      1  0.5261950000000  0.4725650000000  0.5551010000000 1.0
C      1  0.4867350000000  0.4930680000000  0.4745570000000 1.0
C      1  0.5099460000000  0.4816160000000  0.6114170000000 1.0
C      1  0.4437040000000  0.5256870000000  0.5663350000000 1.0
C      1  0.4898150000000  0.4008450000000  0.4278850000000 1.0
C      1  0.5489630000000  0.5093000000000  0.6059180000000 1.0
C      1  0.6005960000000  0.4675290000000  0.4724420000000 1.0
C      1  0.5637250000000  0.4427290000000  0.6108810000000 1.0
C      1  0.5893040000000  0.5441520000000  0.5647800000000 1.0
C      1  0.4264810000000  0.5336180000000  0.5123940000000 1.0
C      1  0.5250410000000  0.4076880000000  0.5456930000000 1.0
C      1  0.4835930000000  0.4076790000000  0.5692060000000 1.0
C      1  0.6014270000000  0.5634160000000  0.5062830000000 1.0
C      1  0.4371410000000  0.4916460000000  0.4409930000000 1.0
END
