TITL C-3577080-309-351 -1.32870991360063e-07 125000 -349.599206663031 0 0 60 (C1) n - 1
REM
REM in /home/bkarasulu/work/CARBON/AIRSS/Generating-Clusters/EDIP-Nigel-Params/with-SteepDescent/Higher-Symm/SD-CG/HFTN-CG
REM
REM
REM
REM
REM
REM ./C.cell (12c818d87b63d06a65506943cc24bca4)
REM
REM compiler GCC version 9.2.1 20190827 (Red Hat 9.2.1-1)
REM options -cpp -mtune=generic -march=x86-64 -g -O0 -fpre-include=/usr/include/finclude/math-vector-fortran.h
REM seed -1211511839 1647549219 440138939 -1127376792 -1641423560 -1397890873 -330750387 -219100415 -2076847438 -295715997 887108546 -1591099474 -1803082734 -45375826 1918353884 -619996806 -1084189805 645551313 865456470 893002864 694023425 82539077 1285507378 -1413177227 -1486556151 -1869591973 -1426560445 510818804 2051796363 -476915635 1524619075 -262146327 -1934476913
REM
CELL 1.54180   50.00000   50.00000   50.00000   90.00000   90.00000   90.00000
LATT -1
SFAC C  
C      1  0.5111070000000  0.4381270000000  0.4812330000000 1.0
C      1  0.5113420000000  0.5160490000000  0.5629490000000 1.0
C      1  0.5124440000000  0.5450750000000  0.4553420000000 1.0
C      1  0.4561990000000  0.4657830000000  0.5477720000000 1.0
C      1  0.4550540000000  0.5591980000000  0.5050540000000 1.0
C      1  0.4539560000000  0.4752550000000  0.4451110000000 1.0
C      1  0.4446860000000  0.5194380000000  0.5307780000000 1.0
C      1  0.4443920000000  0.5173500000000  0.4673080000000 1.0
C      1  0.4451180000000  0.4636640000000  0.5004780000000 1.0
C      1  0.4836420000000  0.4406930000000  0.4764240000000 1.0
C      1  0.4840570000000  0.5105290000000  0.5603770000000 1.0
C      1  0.4849260000000  0.5463600000000  0.4600470000000 1.0
C      1  0.4637430000000  0.5278990000000  0.5516470000000 1.0
C      1  0.4640240000000  0.5307250000000  0.4496430000000 1.0
C      1  0.4650540000000  0.4421900000000  0.4974420000000 1.0
C      1  0.4719840000000  0.5545270000000  0.5479080000000 1.0
C      1  0.4714130000000  0.5144660000000  0.4279360000000 1.0
C      1  0.4735700000000  0.4316520000000  0.5219870000000 1.0
C      1  0.5246060000000  0.4383310000000  0.5427360000000 1.0
C      1  0.5239420000000  0.5692300000000  0.5302030000000 1.0
C      1  0.5232460000000  0.4919090000000  0.4257460000000 1.0
C      1  0.5184650000000  0.4522550000000  0.5060680000000 1.0
C      1  0.5191860000000  0.5304980000000  0.5386590000000 1.0
C      1  0.5202030000000  0.5168530000000  0.4563460000000 1.0
C      1  0.4756750000000  0.5666100000000  0.5226570000000 1.0
C      1  0.4748910000000  0.4865590000000  0.4301970000000 1.0
C      1  0.4766720000000  0.4466210000000  0.5456430000000 1.0
C      1  0.5717650000000  0.5056590000000  0.4748850000000 1.0
C      1  0.5682670000000  0.4747620000000  0.5090400000000 1.0
C      1  0.5701880000000  0.5195350000000  0.5186050000000 1.0
C      1  0.5397030000000  0.5506790000000  0.5430860000000 1.0
C      1  0.5407500000000  0.5100730000000  0.4367970000000 1.0
C      1  0.5403790000000  0.4390440000000  0.5201990000000 1.0
C      1  0.5029150000000  0.5619340000000  0.5119560000000 1.0
C      1  0.5017220000000  0.4798460000000  0.4406210000000 1.0
C      1  0.5040230000000  0.4577810000000  0.5476810000000 1.0
C      1  0.5044320000000  0.5332320000000  0.4973810000000 1.0
C      1  0.5014260000000  0.4807290000000  0.4726550000000 1.0
C      1  0.5051350000000  0.4850320000000  0.5315530000000 1.0
C      1  0.5539060000000  0.4612960000000  0.4652680000000 1.0
C      1  0.5544040000000  0.4899640000000  0.5528890000000 1.0
C      1  0.5549090000000  0.5495530000000  0.4836980000000 1.0
C      1  0.4373020000000  0.4701420000000  0.5273780000000 1.0
C      1  0.4364030000000  0.5392640000000  0.5117160000000 1.0
C      1  0.4356920000000  0.4910030000000  0.4595080000000 1.0
C      1  0.5693600000000  0.4783800000000  0.4812420000000 1.0
C      1  0.5699700000000  0.4936970000000  0.5297780000000 1.0
C      1  0.5709770000000  0.5280960000000  0.4917890000000 1.0
C      1  0.4263170000000  0.4972910000000  0.5222460000000 1.0
C      1  0.4258700000000  0.5208870000000  0.4908140000000 1.0
C      1  0.4259030000000  0.4818860000000  0.4861280000000 1.0
C      1  0.5299870000000  0.5138010000000  0.4857560000000 1.0
C      1  0.5271870000000  0.4799860000000  0.4934320000000 1.0
C      1  0.5287220000000  0.5061400000000  0.5224400000000 1.0
C      1  0.4853080000000  0.5137390000000  0.5162500000000 1.0
C      1  0.4845840000000  0.5075900000000  0.4807080000000 1.0
C      1  0.4848900000000  0.4805480000000  0.5061130000000 1.0
C      1  0.5318610000000  0.5571780000000  0.4715700000000 1.0
C      1  0.5308850000000  0.4469600000000  0.4634330000000 1.0
C      1  0.5312600000000  0.4964510000000  0.5656950000000 1.0
END
