TITL C-3577082-504-400 -4.53652075541693e-06 125000 -938.277286869992 0 0 147 (C1) n - 1
REM
REM in /home/bkarasulu/work/CARBON/AIRSS/Generating-Clusters/EDIP-Nigel-Params/with-SteepDescent/Higher-Symm/SD-CG/HFTN-CG
REM
REM
REM
REM
REM
REM ./C.cell (12c818d87b63d06a65506943cc24bca4)
REM
REM compiler GCC version 9.2.1 20190827 (Red Hat 9.2.1-1)
REM options -cpp -mtune=generic -march=x86-64 -g -O0 -fpre-include=/usr/include/finclude/math-vector-fortran.h
REM seed -563727274 -1022135168 499619298 565198957 232884889 -603866599 2105792746 1404481871 -186594579 -1538855449 -196032158 -414480671 -506609611 2009649916 1269051772 2133313363 172167300 -1113603643 1530912978 1949687444 -803068307 906591208 1008388581 230276553 1649582490 -1937115827 -1919859696 552305598 -1499013719 -558355975 -524329602 58362309 -277181147
REM
CELL 1.54180   50.00000   50.00000   50.00000   90.00000   90.00000   90.00000
LATT -1
SFAC C  
C      1  0.4093720000000  0.5478620000000  0.5097330000000 1.0
C      1  0.4180260000000  0.5480720000000  0.4590200000000 1.0
C      1  0.4526240000000  0.5492140000000  0.4212750000000 1.0
C      1  0.5019680000000  0.5493230000000  0.4119710000000 1.0
C      1  0.5499770000000  0.5489000000000  0.4287370000000 1.0
C      1  0.5851270000000  0.5488970000000  0.4664710000000 1.0
C      1  0.5874300000000  0.5479430000000  0.5166680000000 1.0
C      1  0.5671750000000  0.5478030000000  0.5628510000000 1.0
C      1  0.5222310000000  0.5481990000000  0.5851760000000 1.0
C      1  0.4709360000000  0.5491030000000  0.5860020000000 1.0
C      1  0.4289030000000  0.5479220000000  0.5562160000000 1.0
C      1  0.4864240000000  0.3878570000000  0.5446430000000 1.0
C      1  0.4629470000000  0.3976160000000  0.5339080000000 1.0
C      1  0.4571270000000  0.3901760000000  0.5079270000000 1.0
C      1  0.4621240000000  0.3941380000000  0.4810060000000 1.0
C      1  0.4803030000000  0.3776280000000  0.4685780000000 1.0
C      1  0.5028590000000  0.3794890000000  0.4545140000000 1.0
C      1  0.5266890000000  0.3929990000000  0.4569300000000 1.0
C      1  0.5412880000000  0.3854510000000  0.4791650000000 1.0
C      1  0.5418500000000  0.3843150000000  0.5059110000000 1.0
C      1  0.5308850000000  0.3857780000000  0.5302710000000 1.0
C      1  0.5125240000000  0.3961090000000  0.5480750000000 1.0
C      1  0.4665700000000  0.5121510000000  0.5423690000000 1.0
C      1  0.4579690000000  0.5267330000000  0.5171440000000 1.0
C      1  0.4474400000000  0.5127850000000  0.4918390000000 1.0
C      1  0.4681750000000  0.5271070000000  0.4730940000000 1.0
C      1  0.4782770000000  0.5104840000000  0.4498770000000 1.0
C      1  0.5080070000000  0.5158970000000  0.4509350000000 1.0
C      1  0.5416070000000  0.5161990000000  0.4771100000000 1.0
C      1  0.5528020000000  0.5086990000000  0.5034370000000 1.0
C      1  0.5371610000000  0.5233980000000  0.5232630000000 1.0
C      1  0.5140900000000  0.5093890000000  0.5338380000000 1.0
C      1  0.4943360000000  0.5230240000000  0.5513940000000 1.0
C      1  0.4718900000000  0.6074040000000  0.4705750000000 1.0
C      1  0.4913510000000  0.5951910000000  0.4555020000000 1.0
C      1  0.5169050000000  0.6052100000000  0.4559320000000 1.0
C      1  0.5382460000000  0.6045680000000  0.4716980000000 1.0
C      1  0.5456600000000  0.5935300000000  0.4957120000000 1.0
C      1  0.5378320000000  0.6054990000000  0.5191170000000 1.0
C      1  0.5229840000000  0.5964330000000  0.5403330000000 1.0
C      1  0.4980950000000  0.6074910000000  0.5439980000000 1.0
C      1  0.4729510000000  0.5982790000000  0.5379260000000 1.0
C      1  0.4602010000000  0.6089360000000  0.5160180000000 1.0
C      1  0.4554170000000  0.5989560000000  0.4908630000000 1.0
C      1  0.4510180000000  0.4819420000000  0.4913440000000 1.0
C      1  0.4754170000000  0.4805920000000  0.4531110000000 1.0
C      1  0.5020940000000  0.4672280000000  0.4458280000000 1.0
C      1  0.5265210000000  0.4839920000000  0.4601970000000 1.0
C      1  0.5371360000000  0.4661050000000  0.4845210000000 1.0
C      1  0.5535390000000  0.4784810000000  0.5059820000000 1.0
C      1  0.5407860000000  0.4684700000000  0.5326720000000 1.0
C      1  0.5139550000000  0.4803770000000  0.5345300000000 1.0
C      1  0.4907610000000  0.4689900000000  0.5490770000000 1.0
C      1  0.4696200000000  0.4836940000000  0.5356070000000 1.0
C      1  0.4492190000000  0.4706660000000  0.5191660000000 1.0
C      1  0.5148620000000  0.4252960000000  0.5531750000000 1.0
C      1  0.4855750000000  0.4383120000000  0.5530800000000 1.0
C      1  0.4589490000000  0.4264980000000  0.5395520000000 1.0
C      1  0.4527840000000  0.4412980000000  0.5149290000000 1.0
C      1  0.4604020000000  0.4207500000000  0.4696480000000 1.0
C      1  0.4730560000000  0.4237980000000  0.4432170000000 1.0
C      1  0.5011310000000  0.4357130000000  0.4386100000000 1.0
C      1  0.5262510000000  0.4223240000000  0.4520610000000 1.0
C      1  0.5450990000000  0.4373670000000  0.4823520000000 1.0
C      1  0.5539960000000  0.4266000000000  0.5101670000000 1.0
C      1  0.5415350000000  0.4377400000000  0.5363170000000 1.0
C      1  0.5237110000000  0.4603440000000  0.5873140000000 1.0
C      1  0.4711740000000  0.4615710000000  0.5880430000000 1.0
C      1  0.4278280000000  0.4591830000000  0.5595750000000 1.0
C      1  0.4071470000000  0.4584800000000  0.5089060000000 1.0
C      1  0.4329000000000  0.4661530000000  0.4705840000000 1.0
C      1  0.4542720000000  0.4628130000000  0.4193090000000 1.0
C      1  0.5040950000000  0.4622040000000  0.4030130000000 1.0
C      1  0.5502510000000  0.4627100000000  0.4298140000000 1.0
C      1  0.5845800000000  0.4626020000000  0.4639930000000 1.0
C      1  0.5910120000000  0.4596250000000  0.5166030000000 1.0
C      1  0.5684910000000  0.4603800000000  0.5636430000000 1.0
C      1  0.5270580000000  0.4768830000000  0.4165090000000 1.0
C      1  0.5678540000000  0.4783530000000  0.4462390000000 1.0
C      1  0.5894080000000  0.4755140000000  0.4911500000000 1.0
C      1  0.5805390000000  0.4750490000000  0.5402230000000 1.0
C      1  0.5461120000000  0.4752680000000  0.5758770000000 1.0
C      1  0.4975650000000  0.4759540000000  0.5868330000000 1.0
C      1  0.4469330000000  0.4746390000000  0.5765090000000 1.0
C      1  0.4214870000000  0.4738020000000  0.5325210000000 1.0
C      1  0.4073720000000  0.4746770000000  0.4830520000000 1.0
C      1  0.4386080000000  0.4770150000000  0.4410170000000 1.0
C      1  0.4787070000000  0.4764960000000  0.4093910000000 1.0
C      1  0.5950740000000  0.5052010000000  0.4908750000000 1.0
C      1  0.5849480000000  0.5043780000000  0.5425670000000 1.0
C      1  0.5475840000000  0.5043910000000  0.5785930000000 1.0
C      1  0.4976480000000  0.5055650000000  0.5895360000000 1.0
C      1  0.4463690000000  0.5046910000000  0.5754390000000 1.0
C      1  0.4145520000000  0.5035860000000  0.5351250000000 1.0
C      1  0.4094940000000  0.5047870000000  0.4840840000000 1.0
C      1  0.4325560000000  0.5054870000000  0.4366720000000 1.0
C      1  0.4775090000000  0.5057230000000  0.4065410000000 1.0
C      1  0.5284840000000  0.5063590000000  0.4138250000000 1.0
C      1  0.5700500000000  0.5067000000000  0.4447960000000 1.0
C      1  0.4714390000000  0.5197110000000  0.5851440000000 1.0
C      1  0.4266220000000  0.5186970000000  0.5575620000000 1.0
C      1  0.4082500000000  0.5186700000000  0.5105350000000 1.0
C      1  0.4197690000000  0.5192650000000  0.4592870000000 1.0
C      1  0.4539230000000  0.5197680000000  0.4207400000000 1.0
C      1  0.5030880000000  0.5204600000000  0.4076780000000 1.0
C      1  0.5492740000000  0.5202940000000  0.4293520000000 1.0
C      1  0.5844400000000  0.5199270000000  0.4668660000000 1.0
C      1  0.5931930000000  0.5192450000000  0.5176200000000 1.0
C      1  0.5681960000000  0.5185130000000  0.5629470000000 1.0
C      1  0.5228480000000  0.5193700000000  0.5846930000000 1.0
C      1  0.4560500000000  0.4357910000000  0.4247770000000 1.0
C      1  0.5046570000000  0.4347140000000  0.4095470000000 1.0
C      1  0.5519290000000  0.4343180000000  0.4397570000000 1.0
C      1  0.5708680000000  0.4360040000000  0.4637460000000 1.0
C      1  0.5813530000000  0.4333560000000  0.5134130000000 1.0
C      1  0.5622610000000  0.4334190000000  0.5570020000000 1.0
C      1  0.5227030000000  0.4326930000000  0.5805130000000 1.0
C      1  0.4759980000000  0.4349600000000  0.5808950000000 1.0
C      1  0.4361780000000  0.4321750000000  0.5570060000000 1.0
C      1  0.4261340000000  0.4346630000000  0.5026870000000 1.0
C      1  0.4352850000000  0.4358480000000  0.4744020000000 1.0
C      1  0.5459110000000  0.5618390000000  0.5767370000000 1.0
C      1  0.4968360000000  0.5620340000000  0.5875740000000 1.0
C      1  0.4486720000000  0.5620890000000  0.5724360000000 1.0
C      1  0.4166960000000  0.5614120000000  0.5339610000000 1.0
C      1  0.4129230000000  0.5616680000000  0.4842470000000 1.0
C      1  0.4333410000000  0.5616600000000  0.4387170000000 1.0
C      1  0.4767000000000  0.5631410000000  0.4137850000000 1.0
C      1  0.5260250000000  0.5623850000000  0.4206380000000 1.0
C      1  0.5676170000000  0.5617410000000  0.4474240000000 1.0
C      1  0.5892070000000  0.5621350000000  0.4917980000000 1.0
C      1  0.5788890000000  0.5611720000000  0.5404660000000 1.0
C      1  0.4961390000000  0.5541910000000  0.5498550000000 1.0
C      1  0.4695490000000  0.5691790000000  0.5413960000000 1.0
C      1  0.4518990000000  0.5560000000000  0.5190980000000 1.0
C      1  0.4496280000000  0.5700350000000  0.4903290000000 1.0
C      1  0.4611920000000  0.5554690000000  0.4644690000000 1.0
C      1  0.4873270000000  0.5663840000000  0.4502890000000 1.0
C      1  0.5140400000000  0.5476030000000  0.4542780000000 1.0
C      1  0.5413810000000  0.5476610000000  0.4718890000000 1.0
C      1  0.5512910000000  0.5645930000000  0.4972340000000 1.0
C      1  0.5442940000000  0.5526350000000  0.5254880000000 1.0
C      1  0.5247640000000  0.5673210000000  0.5453330000000 1.0
C      1  0.5108610000000  0.5117190000000  0.4898180000000 1.0
C      1  0.4914640000000  0.5325210000000  0.4886860000000 1.0
C      1  0.4767720000000  0.4753180000000  0.4811730000000 1.0
C      1  0.4991130000000  0.4860150000000  0.4931460000000 1.0
END
