TITL C-3578209-2550-310 -5.13869132456566e-07 125000 -85.8894514164976 0 0 15 (C1) n - 1
REM
REM in /home/bkarasulu/work/CARBON/AIRSS/Generating-Clusters/EDIP-Nigel-Params/with-SteepDescent/Higher-Symm/SD-CG/HFTN-CG
REM
REM
REM
REM
REM
REM ./C.cell (12c818d87b63d06a65506943cc24bca4)
REM
REM compiler GCC version 9.2.1 20190827 (Red Hat 9.2.1-1)
REM options -cpp -mtune=generic -march=x86-64 -g -O0 -fpre-include=/usr/include/finclude/math-vector-fortran.h
REM seed -803242937 -1549470781 -1924012871 1286488998 -218958149 2045910543 -943175751 -1906686793 39639233 -192171673 1500129742 1931908758 -848889416 -1366464153 1754871232 153415911 -1256112811 1606216214 305601574 -1001223018 1213520123 798457475 499379256 141585038 374919573 -471077296 -49909848 766040221 -775840243 -334494157 -575414767 -766939665 469738348
REM
CELL 1.54180   50.00000   50.00000   50.00000   90.00000   90.00000   90.00000
LATT -1
SFAC C  
C      1  0.5147180000000  0.4745810000000  0.5252900000000 1.0
C      1  0.5150860000000  0.5284880000000  0.4736430000000 1.0
C      1  0.4892990000000  0.4614460000000  0.5250350000000 1.0
C      1  0.4887710000000  0.5395960000000  0.4746470000000 1.0
C      1  0.5148580000000  0.4752850000000  0.4725520000000 1.0
C      1  0.5131450000000  0.5279620000000  0.5256250000000 1.0
C      1  0.4865240000000  0.4691260000000  0.4768430000000 1.0
C      1  0.4869260000000  0.5390850000000  0.5228060000000 1.0
C      1  0.5255910000000  0.4742550000000  0.4990180000000 1.0
C      1  0.5252820000000  0.5282080000000  0.5000310000000 1.0
C      1  0.4760060000000  0.4749340000000  0.5037840000000 1.0
C      1  0.4782710000000  0.5275460000000  0.4982310000000 1.0
C      1  0.5131830000000  0.5011980000000  0.5351990000000 1.0
C      1  0.5158830000000  0.5021350000000  0.4634550000000 1.0
C      1  0.4918640000000  0.5009740000000  0.4986860000000 1.0
END
