TITL C-3578196-9646-347 -1.36694554442703e-06 125000 -425.495509466097 0 0 70 (D5h) n - 1
REM
REM in /home/bkarasulu/work/CARBON/AIRSS/Generating-Clusters/EDIP-Nigel-Params/with-SteepDescent/Higher-Symm/SD-CG/HFTN-CG
REM
REM
REM
REM
REM
REM ./C.cell (12c818d87b63d06a65506943cc24bca4)
REM
REM compiler GCC version 9.2.1 20190827 (Red Hat 9.2.1-1)
REM options -cpp -mtune=generic -march=x86-64 -g -O0 -fpre-include=/usr/include/finclude/math-vector-fortran.h
REM seed -701109625 1383472132 -1165838496 444262311 828392270 686837336 -1324561418 73202641 2106766967 1952726697 -1375305658 2131704323 244348257 -1745768928 -892767279 -2075064774 2056079420 1215562114 -2110229226 1500800144 1941068513 -731635178 -952750839 -1195029451 -1495119945 512644717 596750036 -768746735 -355143673 -1319597441 1288368380 -946491958 1080792884
REM
CELL 1.54180   50.00000   50.00000   50.00000   90.00000   90.00000   90.00000
LATT -1
SFAC C  
C      1  0.4802190000000  0.5475090000000  0.5418070000000 1.0
C      1  0.5336560000000  0.5474960000000  0.5317450000000 1.0
C      1  0.5405990000000  0.5474950000000  0.4778140000000 1.0
C      1  0.4914520000000  0.5475080000000  0.4545450000000 1.0
C      1  0.4541350000000  0.5475170000000  0.4940950000000 1.0
C      1  0.4801940000000  0.4524990000000  0.5418050000000 1.0
C      1  0.5336310000000  0.4524860000000  0.5317430000000 1.0
C      1  0.5405740000000  0.4524850000000  0.4778110000000 1.0
C      1  0.4914280000000  0.4524980000000  0.4545430000000 1.0
C      1  0.4541110000000  0.4525070000000  0.4940930000000 1.0
C      1  0.5568610000000  0.5132630000000  0.5073200000000 1.0
C      1  0.5245350000000  0.5132720000000  0.4481880000000 1.0
C      1  0.4583070000000  0.5132890000000  0.4606590000000 1.0
C      1  0.4497020000000  0.5132900000000  0.5274990000000 1.0
C      1  0.5106120000000  0.5132730000000  0.5563370000000 1.0
C      1  0.5568540000000  0.4867080000000  0.5073190000000 1.0
C      1  0.5245280000000  0.4867180000000  0.4481870000000 1.0
C      1  0.4583000000000  0.4867340000000  0.4606580000000 1.0
C      1  0.4496960000000  0.4867350000000  0.5274980000000 1.0
C      1  0.5106050000000  0.4867190000000  0.5563360000000 1.0
C      1  0.5178640000000  0.4641800000000  0.4622490000000 1.0
C      1  0.4696110000000  0.4641930000000  0.4713350000000 1.0
C      1  0.4633420000000  0.4641930000000  0.5200340000000 1.0
C      1  0.5077200000000  0.4641810000000  0.5410460000000 1.0
C      1  0.5414170000000  0.4641730000000  0.5053320000000 1.0
C      1  0.5178830000000  0.5358120000000  0.4622500000000 1.0
C      1  0.4696300000000  0.5358240000000  0.4713370000000 1.0
C      1  0.4633600000000  0.5358250000000  0.5200360000000 1.0
C      1  0.5077380000000  0.5358130000000  0.5410470000000 1.0
C      1  0.5414350000000  0.5358050000000  0.5053340000000 1.0
C      1  0.4814430000000  0.5772830000000  0.5392380000000 1.0
C      1  0.5315950000000  0.5772710000000  0.5297940000000 1.0
C      1  0.5381110000000  0.5772700000000  0.4791780000000 1.0
C      1  0.4919860000000  0.5772820000000  0.4573400000000 1.0
C      1  0.4569640000000  0.5772910000000  0.4944590000000 1.0
C      1  0.4814030000000  0.4227240000000  0.5392340000000 1.0
C      1  0.5315550000000  0.4227120000000  0.5297900000000 1.0
C      1  0.5380720000000  0.4227110000000  0.4791750000000 1.0
C      1  0.4919470000000  0.4227240000000  0.4573360000000 1.0
C      1  0.4569240000000  0.4227320000000  0.4944550000000 1.0
C      1  0.5396900000000  0.4130770000000  0.5051100000000 1.0
C      1  0.5171120000000  0.4130840000000  0.4638090000000 1.0
C      1  0.4708550000000  0.4130950000000  0.4725200000000 1.0
C      1  0.4648450000000  0.4130960000000  0.5192040000000 1.0
C      1  0.5073870000000  0.4130840000000  0.5393460000000 1.0
C      1  0.5397340000000  0.5869020000000  0.5051140000000 1.0
C      1  0.5171560000000  0.5869090000000  0.4638130000000 1.0
C      1  0.4708990000000  0.5869210000000  0.4725240000000 1.0
C      1  0.4648890000000  0.5869210000000  0.5192080000000 1.0
C      1  0.5074320000000  0.5869100000000  0.5393500000000 1.0
C      1  0.4685060000000  0.5378230000000  0.5665390000000 1.0
C      1  0.5535570000000  0.5378020000000  0.5505240000000 1.0
C      1  0.5646070000000  0.5378010000000  0.4646870000000 1.0
C      1  0.4863860000000  0.5378220000000  0.4276530000000 1.0
C      1  0.4269930000000  0.5378350000000  0.4906010000000 1.0
C      1  0.4684870000000  0.4621900000000  0.5665380000000 1.0
C      1  0.5535370000000  0.4621690000000  0.5505220000000 1.0
C      1  0.5645870000000  0.4621680000000  0.4646860000000 1.0
C      1  0.4863670000000  0.4621890000000  0.4276510000000 1.0
C      1  0.4269730000000  0.4622030000000  0.4905990000000 1.0
C      1  0.4841650000000  0.5134850000000  0.4158880000000 1.0
C      1  0.4151130000000  0.5135010000000  0.4890720000000 1.0
C      1  0.4633770000000  0.5134860000000  0.5773580000000 1.0
C      1  0.5622570000000  0.5134610000000  0.5587390000000 1.0
C      1  0.5751050000000  0.5134600000000  0.4589450000000 1.0
C      1  0.4841580000000  0.4865270000000  0.4158870000000 1.0
C      1  0.4151070000000  0.4865430000000  0.4890710000000 1.0
C      1  0.4633700000000  0.4865290000000  0.5773580000000 1.0
C      1  0.5622500000000  0.4865040000000  0.5587380000000 1.0
C      1  0.5750980000000  0.4865030000000  0.4589440000000 1.0
END
