TITL C-3578198-8939-563 1.31354984665115e-06 125000 -411.241516246172 0 0 68 (C1) n - 1
REM
REM in /home/bkarasulu/work/CARBON/AIRSS/Generating-Clusters/EDIP-Nigel-Params/with-SteepDescent/Higher-Symm/SD-CG/HFTN-CG
REM
REM
REM
REM
REM
REM ./C.cell (12c818d87b63d06a65506943cc24bca4)
REM
REM compiler GCC version 9.2.1 20190827 (Red Hat 9.2.1-1)
REM options -cpp -mtune=generic -march=x86-64 -g -O0 -fpre-include=/usr/include/finclude/math-vector-fortran.h
REM seed 95092507 -1910218023 -880791661 1475143773 -759687372 -705456755 -395584185 -262726572 -1713684747 -1342123427 1350210454 909397910 -1716776726 1487622440 -1821962409 -671301379 -1831619201 45916029 -372635356 629382729 -1162077666 -1005487489 870073820 -1156413347 -2063562877 1324657193 -1798870235 1058165071 72755221 1727012041 -1370960599 -1752230669 -341168119
REM
CELL 1.54180   50.00000   50.00000   50.00000   90.00000   90.00000   90.00000
LATT -1
SFAC C  
C      1  0.5644230000000  0.5319970000000  0.4840570000000 1.0
C      1  0.5002350000000  0.5835640000000  0.4672270000000 1.0
C      1  0.4677160000000  0.4356620000000  0.5409960000000 1.0
C      1  0.4658660000000  0.5474120000000  0.4568310000000 1.0
C      1  0.5343160000000  0.5556120000000  0.4504830000000 1.0
C      1  0.5328620000000  0.5031460000000  0.5746470000000 1.0
C      1  0.4701210000000  0.4611010000000  0.5559480000000 1.0
C      1  0.5383150000000  0.4716490000000  0.4610270000000 1.0
C      1  0.4904540000000  0.5113090000000  0.4489880000000 1.0
C      1  0.5066630000000  0.5363290000000  0.5019110000000 1.0
C      1  0.5648190000000  0.4942980000000  0.5075410000000 1.0
C      1  0.5549350000000  0.5500920000000  0.5052720000000 1.0
C      1  0.5583360000000  0.5134620000000  0.4412130000000 1.0
C      1  0.5052750000000  0.4962480000000  0.5744200000000 1.0
C      1  0.5128040000000  0.5486930000000  0.4328720000000 1.0
C      1  0.4864500000000  0.5374150000000  0.4351470000000 1.0
C      1  0.4476270000000  0.4523940000000  0.4729990000000 1.0
C      1  0.5218240000000  0.4874040000000  0.4990170000000 1.0
C      1  0.5613100000000  0.5085050000000  0.5336450000000 1.0
C      1  0.4823200000000  0.4884280000000  0.4332650000000 1.0
C      1  0.4777870000000  0.5689950000000  0.4758720000000 1.0
C      1  0.5070940000000  0.5046010000000  0.5311720000000 1.0
C      1  0.4970830000000  0.4696750000000  0.5649730000000 1.0
C      1  0.5199870000000  0.5149950000000  0.4561290000000 1.0
C      1  0.4631300000000  0.4486050000000  0.4985680000000 1.0
C      1  0.4660580000000  0.5125930000000  0.5507090000000 1.0
C      1  0.4524080000000  0.5533790000000  0.5146400000000 1.0
C      1  0.4951010000000  0.4779510000000  0.4872770000000 1.0
C      1  0.5345370000000  0.4462790000000  0.5096220000000 1.0
C      1  0.5632020000000  0.4620030000000  0.4716470000000 1.0
C      1  0.4250800000000  0.4838960000000  0.5228110000000 1.0
C      1  0.4451650000000  0.4374440000000  0.5208920000000 1.0
C      1  0.4372970000000  0.5305430000000  0.5126640000000 1.0
C      1  0.5283290000000  0.4259290000000  0.4638820000000 1.0
C      1  0.4748500000000  0.4759290000000  0.5075240000000 1.0
C      1  0.4925080000000  0.4564450000000  0.4664040000000 1.0
C      1  0.5348360000000  0.5704700000000  0.4979530000000 1.0
C      1  0.4910450000000  0.4245450000000  0.4970710000000 1.0
C      1  0.5578120000000  0.4652360000000  0.4999630000000 1.0
C      1  0.4777510000000  0.5241270000000  0.5024520000000 1.0
C      1  0.4385720000000  0.4769970000000  0.4613760000000 1.0
C      1  0.5186170000000  0.4521200000000  0.5591920000000 1.0
C      1  0.4866360000000  0.5160830000000  0.5691730000000 1.0
C      1  0.4400220000000  0.5278740000000  0.4615940000000 1.0
C      1  0.4425800000000  0.5025950000000  0.5618870000000 1.0
C      1  0.5265750000000  0.5747730000000  0.4705980000000 1.0
C      1  0.5372640000000  0.4944700000000  0.4428380000000 1.0
C      1  0.4435080000000  0.4748260000000  0.5560780000000 1.0
C      1  0.4725090000000  0.5133760000000  0.4743120000000 1.0
C      1  0.5805020000000  0.5094150000000  0.4896230000000 1.0
C      1  0.4752300000000  0.5675090000000  0.5052730000000 1.0
C      1  0.5487030000000  0.5363740000000  0.5312900000000 1.0
C      1  0.5179360000000  0.5347350000000  0.5320950000000 1.0
C      1  0.4309260000000  0.5020280000000  0.4746730000000 1.0
C      1  0.4776350000000  0.5023010000000  0.5239620000000 1.0
C      1  0.4332370000000  0.5042110000000  0.5038950000000 1.0
C      1  0.4719130000000  0.4649550000000  0.4460140000000 1.0
C      1  0.5204120000000  0.4269530000000  0.4912190000000 1.0
C      1  0.5190950000000  0.4507540000000  0.4540230000000 1.0
C      1  0.5183800000000  0.4380030000000  0.5342460000000 1.0
C      1  0.4923640000000  0.4263980000000  0.5265270000000 1.0
C      1  0.5471130000000  0.4916980000000  0.5530400000000 1.0
C      1  0.5209270000000  0.5854220000000  0.5175250000000 1.0
C      1  0.5578760000000  0.5377640000000  0.4560360000000 1.0
C      1  0.5234080000000  0.5154560000000  0.4864910000000 1.0
C      1  0.4241040000000  0.4559960000000  0.5289180000000 1.0
C      1  0.5268040000000  0.4807890000000  0.5344850000000 1.0
C      1  0.4994190000000  0.5677650000000  0.5238890000000 1.0
END
