TITL C-3578209-2550-369 1.81834537418099e-06 125000 -442.290786080076 0 0 72 (C1) n - 1
REM
REM in /home/bkarasulu/work/CARBON/AIRSS/Generating-Clusters/EDIP-Nigel-Params/with-SteepDescent/Higher-Symm/SD-CG/HFTN-CG
REM
REM
REM
REM
REM
REM ./C.cell (12c818d87b63d06a65506943cc24bca4)
REM
REM compiler GCC version 9.2.1 20190827 (Red Hat 9.2.1-1)
REM options -cpp -mtune=generic -march=x86-64 -g -O0 -fpre-include=/usr/include/finclude/math-vector-fortran.h
REM seed -1703585681 -266235151 1645275801 1454415487 1405863262 -454817862 -1825286946 1127992059 -635298520 -514656617 1936006451 1301010524 1208099927 -199202354 1231506902 -1073276884 2012500234 128348305 1742452421 1050852184 1913474165 940859651 -1651376108 33919086 932007921 -674045708 629476895 -1137097411 966588063 1158957444 155097409 -1711667195 -409569620
REM
CELL 1.54180   50.00000   50.00000   50.00000   90.00000   90.00000   90.00000
LATT -1
SFAC C  
C      1  0.4709000000000  0.4570960000000  0.5449330000000 1.0
C      1  0.4602990000000  0.4818990000000  0.4456830000000 1.0
C      1  0.4642830000000  0.5571160000000  0.5047020000000 1.0
C      1  0.5426770000000  0.4600000000000  0.4526470000000 1.0
C      1  0.5285070000000  0.5590400000000  0.4879440000000 1.0
C      1  0.5311950000000  0.4809920000000  0.5500380000000 1.0
C      1  0.5623910000000  0.4476040000000  0.5096170000000 1.0
C      1  0.5648440000000  0.5240060000000  0.4487890000000 1.0
C      1  0.5622870000000  0.5359190000000  0.5444190000000 1.0
C      1  0.4650910000000  0.5399750000000  0.5553790000000 1.0
C      1  0.4585290000000  0.4269270000000  0.5066000000000 1.0
C      1  0.4606950000000  0.5302040000000  0.4400400000000 1.0
C      1  0.5679270000000  0.5305450000000  0.4952460000000 1.0
C      1  0.5668090000000  0.4922030000000  0.5260550000000 1.0
C      1  0.5705630000000  0.4836650000000  0.4779720000000 1.0
C      1  0.4112570000000  0.5043720000000  0.4851280000000 1.0
C      1  0.4117840000000  0.5042940000000  0.5233860000000 1.0
C      1  0.4102540000000  0.4815340000000  0.5044750000000 1.0
C      1  0.5368980000000  0.4990740000000  0.4224090000000 1.0
C      1  0.5321210000000  0.5715770000000  0.5359100000000 1.0
C      1  0.5245690000000  0.4334500000000  0.5389740000000 1.0
C      1  0.4890630000000  0.5714090000000  0.4633960000000 1.0
C      1  0.4929560000000  0.4860450000000  0.5767090000000 1.0
C      1  0.4974200000000  0.4437500000000  0.4493780000000 1.0
C      1  0.4891320000000  0.4896870000000  0.4489340000000 1.0
C      1  0.5030480000000  0.5451310000000  0.5223200000000 1.0
C      1  0.4950150000000  0.4538520000000  0.5256200000000 1.0
C      1  0.5574870000000  0.5557280000000  0.4886540000000 1.0
C      1  0.5600110000000  0.4826310000000  0.5509320000000 1.0
C      1  0.5698520000000  0.4643380000000  0.4577950000000 1.0
C      1  0.4887010000000  0.5721090000000  0.5173580000000 1.0
C      1  0.4979020000000  0.4572410000000  0.5729420000000 1.0
C      1  0.5025160000000  0.4680610000000  0.4321210000000 1.0
C      1  0.4467330000000  0.4465600000000  0.5280370000000 1.0
C      1  0.4438600000000  0.5060100000000  0.4460140000000 1.0
C      1  0.4467790000000  0.5475280000000  0.5303750000000 1.0
C      1  0.5162460000000  0.5359680000000  0.4458280000000 1.0
C      1  0.5151680000000  0.5289110000000  0.5617230000000 1.0
C      1  0.5212490000000  0.4281450000000  0.4902300000000 1.0
C      1  0.4687060000000  0.5268430000000  0.4924310000000 1.0
C      1  0.4619960000000  0.5062590000000  0.5126840000000 1.0
C      1  0.4567340000000  0.4830100000000  0.4971950000000 1.0
C      1  0.4387470000000  0.5160850000000  0.5294780000000 1.0
C      1  0.4358830000000  0.4641070000000  0.5032090000000 1.0
C      1  0.4368300000000  0.5147230000000  0.4739280000000 1.0
C      1  0.5230720000000  0.4538600000000  0.5592690000000 1.0
C      1  0.5310390000000  0.4727940000000  0.4295650000000 1.0
C      1  0.5193350000000  0.5806600000000  0.5108400000000 1.0
C      1  0.5074130000000  0.4832180000000  0.5189650000000 1.0
C      1  0.5032690000000  0.4883890000000  0.4855980000000 1.0
C      1  0.5156540000000  0.5332310000000  0.4979820000000 1.0
C      1  0.5154110000000  0.5619270000000  0.4605320000000 1.0
C      1  0.5189060000000  0.5002250000000  0.5700390000000 1.0
C      1  0.5229870000000  0.4412120000000  0.4642080000000 1.0
C      1  0.5706000000000  0.5123580000000  0.4734040000000 1.0
C      1  0.5679900000000  0.5202250000000  0.5221830000000 1.0
C      1  0.5694670000000  0.4739110000000  0.5046820000000 1.0
C      1  0.5373320000000  0.5469620000000  0.5500780000000 1.0
C      1  0.5378840000000  0.4346910000000  0.5131120000000 1.0
C      1  0.5407170000000  0.5234390000000  0.4349820000000 1.0
C      1  0.4876940000000  0.4315470000000  0.5064570000000 1.0
C      1  0.4898110000000  0.5204700000000  0.4424700000000 1.0
C      1  0.4915530000000  0.5290080000000  0.5441170000000 1.0
C      1  0.4797140000000  0.4701750000000  0.4873640000000 1.0
C      1  0.4961070000000  0.5186120000000  0.4808030000000 1.0
C      1  0.4854360000000  0.5017460000000  0.5316670000000 1.0
C      1  0.4715580000000  0.4885680000000  0.5550640000000 1.0
C      1  0.4711450000000  0.4520580000000  0.4651610000000 1.0
C      1  0.4637180000000  0.5670430000000  0.4748380000000 1.0
C      1  0.4500320000000  0.5118160000000  0.5587870000000 1.0
C      1  0.4478040000000  0.4379090000000  0.4806040000000 1.0
C      1  0.4484370000000  0.5483220000000  0.4595910000000 1.0
END
