TITL C-3578209-2550-123 -1.17787128233102e-06 125000 -840.85646338523 0 0 135 (C1) n - 1
REM
REM in /home/bkarasulu/work/CARBON/AIRSS/Generating-Clusters/EDIP-Nigel-Params/with-SteepDescent/Higher-Symm/SD-CG/HFTN-CG
REM
REM
REM
REM
REM
REM ./C.cell (12c818d87b63d06a65506943cc24bca4)
REM
REM compiler GCC version 9.2.1 20190827 (Red Hat 9.2.1-1)
REM options -cpp -mtune=generic -march=x86-64 -g -O0 -fpre-include=/usr/include/finclude/math-vector-fortran.h
REM seed 564774139 404730654 1689202517 -1722799303 456202914 1538582721 -1661829238 -1571921164 -201345093 1861200796 -1928423330 -378667610 1320376871 679623332 1914511704 898989417 1538149465 2064277527 1191377888 -1628875622 1973055540 -1472556017 112162500 1075816255 -251988646 -1083238110 1169274776 -653569452 638908342 -217220381 -678248506 892496052 -1515832906
REM
CELL 1.54180   50.00000   50.00000   50.00000   90.00000   90.00000   90.00000
LATT -1
SFAC C  
C      1  0.4692910000000  0.4331570000000  0.4285030000000 1.0
C      1  0.4668470000000  0.5797570000000  0.4682790000000 1.0
C      1  0.4657980000000  0.4816390000000  0.5942080000000 1.0
C      1  0.5316540000000  0.5370510000000  0.4143060000000 1.0
C      1  0.5353960000000  0.5546720000000  0.5696100000000 1.0
C      1  0.5322670000000  0.4138550000000  0.5129390000000 1.0
C      1  0.4594060000000  0.4846790000000  0.4277710000000 1.0
C      1  0.4573590000000  0.5756920000000  0.5158590000000 1.0
C      1  0.4536700000000  0.4468960000000  0.5556100000000 1.0
C      1  0.4824090000000  0.5383950000000  0.4097740000000 1.0
C      1  0.4886450000000  0.5680170000000  0.5807950000000 1.0
C      1  0.4845350000000  0.3965980000000  0.5161070000000 1.0
C      1  0.4988230000000  0.5470520000000  0.5406560000000 1.0
C      1  0.4907280000000  0.4428480000000  0.5144510000000 1.0
C      1  0.5058460000000  0.5108350000000  0.4432470000000 1.0
C      1  0.5028340000000  0.5659970000000  0.4953530000000 1.0
C      1  0.4935880000000  0.4706850000000  0.5580200000000 1.0
C      1  0.4951280000000  0.4635090000000  0.4424250000000 1.0
C      1  0.5747910000000  0.5463830000000  0.5074410000000 1.0
C      1  0.5772550000000  0.4707360000000  0.5405050000000 1.0
C      1  0.5716880000000  0.4837900000000  0.4575610000000 1.0
C      1  0.4890510000000  0.5969220000000  0.4428150000000 1.0
C      1  0.4952540000000  0.5012890000000  0.6104560000000 1.0
C      1  0.4956750000000  0.4098830000000  0.4459410000000 1.0
C      1  0.5321040000000  0.5293760000000  0.5861210000000 1.0
C      1  0.5308020000000  0.4130720000000  0.4829030000000 1.0
C      1  0.5269230000000  0.5626640000000  0.4289650000000 1.0
C      1  0.5536750000000  0.5431940000000  0.5498380000000 1.0
C      1  0.5566310000000  0.4303170000000  0.5176410000000 1.0
C      1  0.5546350000000  0.5246940000000  0.4291860000000 1.0
C      1  0.4154450000000  0.4770790000000  0.4936290000000 1.0
C      1  0.4161710000000  0.4998650000000  0.4719950000000 1.0
C      1  0.4152270000000  0.5184790000000  0.5288330000000 1.0
C      1  0.4210380000000  0.5437020000000  0.5166510000000 1.0
C      1  0.4185580000000  0.4689670000000  0.5304080000000 1.0
C      1  0.4148180000000  0.4850900000000  0.4464240000000 1.0
C      1  0.5272130000000  0.5211360000000  0.5106930000000 1.0
C      1  0.5369420000000  0.4688190000000  0.5227710000000 1.0
C      1  0.5286370000000  0.4868240000000  0.4749550000000 1.0
C      1  0.4638060000000  0.5283050000000  0.4676710000000 1.0
C      1  0.4530190000000  0.5137820000000  0.5217920000000 1.0
C      1  0.4542470000000  0.4733620000000  0.4938660000000 1.0
C      1  0.4888110000000  0.5916300000000  0.4857200000000 1.0
C      1  0.4881900000000  0.4650500000000  0.5871380000000 1.0
C      1  0.4950430000000  0.4437000000000  0.4180280000000 1.0
C      1  0.5665430000000  0.5188690000000  0.5563740000000 1.0
C      1  0.5715620000000  0.4331340000000  0.4931100000000 1.0
C      1  0.5606970000000  0.5423570000000  0.4503840000000 1.0
C      1  0.4208380000000  0.4505330000000  0.4783330000000 1.0
C      1  0.4206240000000  0.5295090000000  0.4683200000000 1.0
C      1  0.4250970000000  0.5118740000000  0.5553760000000 1.0
C      1  0.5091590000000  0.6073850000000  0.4726640000000 1.0
C      1  0.5106980000000  0.4776070000000  0.6026870000000 1.0
C      1  0.5164010000000  0.4251470000000  0.4285400000000 1.0
C      1  0.4842050000000  0.5262300000000  0.5596470000000 1.0
C      1  0.4777980000000  0.4324240000000  0.4886010000000 1.0
C      1  0.4781280000000  0.5535450000000  0.4570940000000 1.0
C      1  0.4777370000000  0.4812830000000  0.4753130000000 1.0
C      1  0.4732740000000  0.5270790000000  0.5016240000000 1.0
C      1  0.4591730000000  0.4835940000000  0.5209960000000 1.0
C      1  0.5788260000000  0.4852040000000  0.5138920000000 1.0
C      1  0.5768600000000  0.4972510000000  0.4838760000000 1.0
C      1  0.5764960000000  0.5161710000000  0.5086530000000 1.0
C      1  0.4991610000000  0.5110410000000  0.5061410000000 1.0
C      1  0.5099540000000  0.4642900000000  0.5089450000000 1.0
C      1  0.5025690000000  0.4858540000000  0.4912790000000 1.0
C      1  0.5526570000000  0.5810930000000  0.4742690000000 1.0
C      1  0.5632030000000  0.4874730000000  0.5889090000000 1.0
C      1  0.5627080000000  0.4325400000000  0.4488070000000 1.0
C      1  0.5585020000000  0.4359740000000  0.5673010000000 1.0
C      1  0.5488440000000  0.4804770000000  0.4125440000000 1.0
C      1  0.5534630000000  0.5833020000000  0.5283610000000 1.0
C      1  0.4812700000000  0.4022800000000  0.4874860000000 1.0
C      1  0.4783020000000  0.5625360000000  0.4267690000000 1.0
C      1  0.4845820000000  0.5394060000000  0.5875230000000 1.0
C      1  0.5059610000000  0.3977010000000  0.4714720000000 1.0
C      1  0.5033090000000  0.5794740000000  0.4226890000000 1.0
C      1  0.5059720000000  0.5273580000000  0.6034370000000 1.0
C      1  0.4297380000000  0.4428220000000  0.5380430000000 1.0
C      1  0.4314520000000  0.4945330000000  0.4237610000000 1.0
C      1  0.4349410000000  0.5643990000000  0.5318060000000 1.0
C      1  0.5601990000000  0.4960560000000  0.4327940000000 1.0
C      1  0.5667240000000  0.5594530000000  0.5313850000000 1.0
C      1  0.5671050000000  0.4435260000000  0.5417230000000 1.0
C      1  0.4755150000000  0.5027320000000  0.4533840000000 1.0
C      1  0.4811170000000  0.5542460000000  0.5138450000000 1.0
C      1  0.4728130000000  0.4615730000000  0.5375630000000 1.0
C      1  0.4768320000000  0.5939520000000  0.5394590000000 1.0
C      1  0.4709330000000  0.4205430000000  0.5574540000000 1.0
C      1  0.4730820000000  0.4923610000000  0.3999520000000 1.0
C      1  0.5269810000000  0.5009470000000  0.5605140000000 1.0
C      1  0.5255090000000  0.4419050000000  0.4736860000000 1.0
C      1  0.5249810000000  0.5314660000000  0.4601940000000 1.0
C      1  0.5017650000000  0.4235710000000  0.5532550000000 1.0
C      1  0.5033330000000  0.4966060000000  0.3984130000000 1.0
C      1  0.5071920000000  0.5929110000000  0.5411830000000 1.0
C      1  0.5346550000000  0.4790620000000  0.5826340000000 1.0
C      1  0.5351760000000  0.4417820000000  0.4448430000000 1.0
C      1  0.5325180000000  0.5983780000000  0.4880180000000 1.0
C      1  0.4988630000000  0.4998790000000  0.5548210000000 1.0
C      1  0.4958940000000  0.4430630000000  0.4658070000000 1.0
C      1  0.5042550000000  0.5508310000000  0.4702120000000 1.0
C      1  0.4256160000000  0.4827940000000  0.5569360000000 1.0
C      1  0.4247600000000  0.4568480000000  0.4493960000000 1.0
C      1  0.4302720000000  0.5467600000000  0.4897480000000 1.0
C      1  0.4661590000000  0.5781180000000  0.5635610000000 1.0
C      1  0.4605380000000  0.4063640000000  0.5320990000000 1.0
C      1  0.4600880000000  0.5210870000000  0.4021620000000 1.0
C      1  0.4343000000000  0.5232860000000  0.4192890000000 1.0
C      1  0.4464630000000  0.5561060000000  0.5564080000000 1.0
C      1  0.4402970000000  0.4250150000000  0.5175270000000 1.0
C      1  0.4476750000000  0.4400330000000  0.4917560000000 1.0
C      1  0.4345230000000  0.5376330000000  0.4444480000000 1.0
C      1  0.4538510000000  0.5263520000000  0.5526200000000 1.0
C      1  0.5490990000000  0.4635080000000  0.4896530000000 1.0
C      1  0.5364700000000  0.5150470000000  0.4823930000000 1.0
C      1  0.5422040000000  0.5007440000000  0.5324110000000 1.0
C      1  0.5809510000000  0.4802210000000  0.5673340000000 1.0
C      1  0.5761180000000  0.4562030000000  0.4565770000000 1.0
C      1  0.5727230000000  0.5664460000000  0.4877750000000 1.0
C      1  0.5165300000000  0.4518760000000  0.5506980000000 1.0
C      1  0.5193870000000  0.4831700000000  0.4435030000000 1.0
C      1  0.5256860000000  0.5529440000000  0.5176620000000 1.0
C      1  0.5099430000000  0.5682040000000  0.5596460000000 1.0
C      1  0.5046460000000  0.4174730000000  0.5247530000000 1.0
C      1  0.5062320000000  0.5212740000000  0.4147820000000 1.0
C      1  0.5609340000000  0.4148240000000  0.4726630000000 1.0
C      1  0.5479260000000  0.5675120000000  0.4490010000000 1.0
C      1  0.5605830000000  0.5161120000000  0.5849070000000 1.0
C      1  0.5289840000000  0.5928980000000  0.5184990000000 1.0
C      1  0.5356790000000  0.4514560000000  0.5720310000000 1.0
C      1  0.5223990000000  0.4759390000000  0.4052590000000 1.0
C      1  0.4523270000000  0.4557940000000  0.4367550000000 1.0
C      1  0.4450440000000  0.5725890000000  0.4878030000000 1.0
C      1  0.4455770000000  0.4693320000000  0.5759220000000 1.0
END
