TITL C-3578204-4308-640 -3.30523771960914e-06 125000 -961.822678170599 0 0 153 (C1) n - 1
REM
REM in /home/bkarasulu/work/CARBON/AIRSS/Generating-Clusters/EDIP-Nigel-Params/with-SteepDescent/Higher-Symm/SD-CG/HFTN-CG
REM
REM
REM
REM
REM
REM ./C.cell (12c818d87b63d06a65506943cc24bca4)
REM
REM compiler GCC version 9.2.1 20190827 (Red Hat 9.2.1-1)
REM options -cpp -mtune=generic -march=x86-64 -g -O0 -fpre-include=/usr/include/finclude/math-vector-fortran.h
REM seed -1975108817 1703701950 386477307 -1547746847 688215436 1366659956 -1295731 -1873118018 -168863191 1081187501 -982510978 1519616088 -1613480245 1302685055 2017924562 -2020005344 -1032417526 -2049377953 881976411 365723592 -1240240948 -114290664 1583399989 -861639781 97264869 -1649402045 1637688173 1957852512 705577534 -782803970 2051796985 -180196825 1306019320
REM
CELL 1.54180   50.00000   50.00000   50.00000   90.00000   90.00000   90.00000
LATT -1
SFAC C  
C      1  0.5093540000000  0.4284410000000  0.4290360000000 1.0
C      1  0.4338250000000  0.4192000000000  0.4694330000000 1.0
C      1  0.4513840000000  0.4207910000000  0.5490590000000 1.0
C      1  0.5325650000000  0.4300720000000  0.5573510000000 1.0
C      1  0.5640480000000  0.4364890000000  0.4843030000000 1.0
C      1  0.5125230000000  0.5763730000000  0.5630720000000 1.0
C      1  0.4367350000000  0.5769290000000  0.5298620000000 1.0
C      1  0.4536950000000  0.5722470000000  0.4503550000000 1.0
C      1  0.5317560000000  0.5717130000000  0.4411170000000 1.0
C      1  0.5743240000000  0.5752270000000  0.5136330000000 1.0
C      1  0.4388110000000  0.5296380000000  0.5180400000000 1.0
C      1  0.4940000000000  0.5304880000000  0.5536540000000 1.0
C      1  0.5527340000000  0.5305750000000  0.5182500000000 1.0
C      1  0.5353900000000  0.5272890000000  0.4619560000000 1.0
C      1  0.4711280000000  0.5318160000000  0.4517780000000 1.0
C      1  0.4374180000000  0.4713910000000  0.4910750000000 1.0
C      1  0.5131570000000  0.4739800000000  0.4482330000000 1.0
C      1  0.5669350000000  0.4861080000000  0.4953080000000 1.0
C      1  0.5313900000000  0.4744950000000  0.5556550000000 1.0
C      1  0.4665870000000  0.4665540000000  0.5478430000000 1.0
C      1  0.5204280000000  0.4101650000000  0.4833510000000 1.0
C      1  0.4935450000000  0.4072480000000  0.4720030000000 1.0
C      1  0.4744470000000  0.4062490000000  0.4940280000000 1.0
C      1  0.4890460000000  0.4074190000000  0.5188590000000 1.0
C      1  0.5174250000000  0.4092640000000  0.5129550000000 1.0
C      1  0.5241330000000  0.5957230000000  0.5112710000000 1.0
C      1  0.4964890000000  0.5971450000000  0.5223380000000 1.0
C      1  0.4765260000000  0.5922030000000  0.5017080000000 1.0
C      1  0.4902850000000  0.5946170000000  0.4764560000000 1.0
C      1  0.5194990000000  0.5968770000000  0.4821390000000 1.0
C      1  0.4715440000000  0.4800650000000  0.5841600000000 1.0
C      1  0.5940100000000  0.4820790000000  0.5594110000000 1.0
C      1  0.5840460000000  0.4871420000000  0.4328360000000 1.0
C      1  0.4601900000000  0.4856310000000  0.4057900000000 1.0
C      1  0.4015070000000  0.4774760000000  0.5039680000000 1.0
C      1  0.4748890000000  0.5104390000000  0.4130470000000 1.0
C      1  0.5862070000000  0.5130280000000  0.4473630000000 1.0
C      1  0.5838660000000  0.5085920000000  0.5653920000000 1.0
C      1  0.4713060000000  0.5195450000000  0.5834250000000 1.0
C      1  0.4058540000000  0.5173950000000  0.5015230000000 1.0
C      1  0.4474110000000  0.4432760000000  0.4271610000000 1.0
C      1  0.4104180000000  0.4389840000000  0.5262460000000 1.0
C      1  0.4974290000000  0.4439920000000  0.5867660000000 1.0
C      1  0.5814480000000  0.4489130000000  0.5282050000000 1.0
C      1  0.5544820000000  0.4489460000000  0.4313530000000 1.0
C      1  0.4502260000000  0.5589260000000  0.5737840000000 1.0
C      1  0.4136070000000  0.5555040000000  0.4760020000000 1.0
C      1  0.4950440000000  0.5538080000000  0.4142390000000 1.0
C      1  0.5878410000000  0.5555400000000  0.4693800000000 1.0
C      1  0.5529220000000  0.5500650000000  0.5610280000000 1.0
C      1  0.5483390000000  0.5844740000000  0.5243700000000 1.0
C      1  0.5389810000000  0.5803620000000  0.4677620000000 1.0
C      1  0.4791270000000  0.5856930000000  0.4515820000000 1.0
C      1  0.4483030000000  0.5889540000000  0.5064830000000 1.0
C      1  0.4904210000000  0.5818380000000  0.5460070000000 1.0
C      1  0.5339400000000  0.4350830000000  0.4744270000000 1.0
C      1  0.5369570000000  0.4219050000000  0.5303380000000 1.0
C      1  0.4782370000000  0.4120630000000  0.5449730000000 1.0
C      1  0.4459380000000  0.4068150000000  0.4918010000000 1.0
C      1  0.4883070000000  0.4180150000000  0.4456840000000 1.0
C      1  0.5143840000000  0.5467160000000  0.4466300000000 1.0
C      1  0.4446020000000  0.5520760000000  0.4718950000000 1.0
C      1  0.4529570000000  0.5554680000000  0.5437010000000 1.0
C      1  0.5261240000000  0.5534400000000  0.5488100000000 1.0
C      1  0.5694500000000  0.5546500000000  0.4923130000000 1.0
C      1  0.5106660000000  0.4496240000000  0.5593590000000 1.0
C      1  0.4405090000000  0.4417280000000  0.5299590000000 1.0
C      1  0.4462550000000  0.4442270000000  0.4582040000000 1.0
C      1  0.5280050000000  0.4453160000000  0.4450720000000 1.0
C      1  0.5633180000000  0.4572810000000  0.5057400000000 1.0
C      1  0.4262840000000  0.4647470000000  0.5655670000000 1.0
C      1  0.5415120000000  0.4653890000000  0.5975570000000 1.0
C      1  0.6075900000000  0.4649120000000  0.4890930000000 1.0
C      1  0.5215770000000  0.4692080000000  0.4017130000000 1.0
C      1  0.4071800000000  0.4625550000000  0.4507220000000 1.0
C      1  0.4290840000000  0.5274080000000  0.4388940000000 1.0
C      1  0.5427000000000  0.5334200000000  0.4132670000000 1.0
C      1  0.6086530000000  0.5353440000000  0.5131010000000 1.0
C      1  0.5211960000000  0.5337420000000  0.5939260000000 1.0
C      1  0.4112300000000  0.5353010000000  0.5515970000000 1.0
C      1  0.4350670000000  0.4932300000000  0.5624520000000 1.0
C      1  0.5382660000000  0.4911300000000  0.5811960000000 1.0
C      1  0.5959760000000  0.4927670000000  0.4920120000000 1.0
C      1  0.5204910000000  0.4911660000000  0.4229710000000 1.0
C      1  0.4206640000000  0.4858580000000  0.4647850000000 1.0
C      1  0.4388510000000  0.4995440000000  0.4445770000000 1.0
C      1  0.5457050000000  0.5084520000000  0.4293410000000 1.0
C      1  0.6026990000000  0.5059550000000  0.5176690000000 1.0
C      1  0.5135250000000  0.5067060000000  0.5857700000000 1.0
C      1  0.4181670000000  0.5069340000000  0.5423170000000 1.0
C      1  0.4696030000000  0.5397760000000  0.4103430000000 1.0
C      1  0.4020250000000  0.5466550000000  0.5022430000000 1.0
C      1  0.4736940000000  0.5480950000000  0.5887050000000 1.0
C      1  0.5712090000000  0.5356500000000  0.5428090000000 1.0
C      1  0.5746530000000  0.5410260000000  0.4471940000000 1.0
C      1  0.4684100000000  0.4514300000000  0.5891330000000 1.0
C      1  0.4008260000000  0.4484270000000  0.4996090000000 1.0
C      1  0.4703280000000  0.4583940000000  0.4134540000000 1.0
C      1  0.5747040000000  0.4631600000000  0.4470440000000 1.0
C      1  0.5733990000000  0.4614010000000  0.5536380000000 1.0
C      1  0.5235580000000  0.5082070000000  0.4856940000000 1.0
C      1  0.4689710000000  0.5003530000000  0.4577970000000 1.0
C      1  0.4716070000000  0.5052610000000  0.4870310000000 1.0
C      1  0.4909290000000  0.5092820000000  0.5309900000000 1.0
C      1  0.5449600000000  0.5031430000000  0.5075770000000 1.0
C      1  0.5314890000000  0.4845670000000  0.5275340000000 1.0
C      1  0.4666570000000  0.4921100000000  0.5314790000000 1.0
C      1  0.4552720000000  0.4911620000000  0.5044220000000 1.0
C      1  0.4840780000000  0.4731160000000  0.4524890000000 1.0
C      1  0.5212400000000  0.4809190000000  0.4751780000000 1.0
C      1  0.4997650000000  0.4476250000000  0.4080320000000 1.0
C      1  0.4093650000000  0.4385950000000  0.4711820000000 1.0
C      1  0.4456550000000  0.4413590000000  0.5719550000000 1.0
C      1  0.5539000000000  0.4466410000000  0.5727350000000 1.0
C      1  0.5875730000000  0.4484740000000  0.4694880000000 1.0
C      1  0.5028190000000  0.5556830000000  0.5843360000000 1.0
C      1  0.4124370000000  0.5571860000000  0.5290060000000 1.0
C      1  0.4466580000000  0.5503960000000  0.4282010000000 1.0
C      1  0.5545870000000  0.5554390000000  0.4288980000000 1.0
C      1  0.5914860000000  0.5550090000000  0.5302170000000 1.0
C      1  0.4520410000000  0.4435830000000  0.5017190000000 1.0
C      1  0.4886560000000  0.4478550000000  0.5364260000000 1.0
C      1  0.5353340000000  0.4572840000000  0.5156730000000 1.0
C      1  0.5183450000000  0.4559450000000  0.4915210000000 1.0
C      1  0.4761820000000  0.4474220000000  0.4662870000000 1.0
C      1  0.4575180000000  0.5521350000000  0.4999290000000 1.0
C      1  0.4903720000000  0.5519510000000  0.4654550000000 1.0
C      1  0.5414230000000  0.5540610000000  0.4821570000000 1.0
C      1  0.5288390000000  0.5523080000000  0.5161530000000 1.0
C      1  0.4820240000000  0.5549930000000  0.5360740000000 1.0
C      1  0.5508570000000  0.4634890000000  0.4058900000000 1.0
C      1  0.4223530000000  0.4593550000000  0.4243030000000 1.0
C      1  0.4040230000000  0.4604210000000  0.5462690000000 1.0
C      1  0.5123270000000  0.4619140000000  0.6052020000000 1.0
C      1  0.6085360000000  0.4580390000000  0.5195540000000 1.0
C      1  0.5501390000000  0.5366500000000  0.5869030000000 1.0
C      1  0.4280760000000  0.5388720000000  0.5763790000000 1.0
C      1  0.4073810000000  0.5332170000000  0.4573150000000 1.0
C      1  0.5142640000000  0.5350020000000  0.4045080000000 1.0
C      1  0.6088910000000  0.5381170000000  0.4818220000000 1.0
C      1  0.4964170000000  0.4873810000000  0.5994160000000 1.0
C      1  0.6120770000000  0.4840460000000  0.5356920000000 1.0
C      1  0.5642180000000  0.4902270000000  0.4118540000000 1.0
C      1  0.4339260000000  0.4861490000000  0.4181390000000 1.0
C      1  0.3988010000000  0.4860390000000  0.5317880000000 1.0
C      1  0.5025700000000  0.5088170000000  0.4075240000000 1.0
C      1  0.6043250000000  0.5112110000000  0.4698980000000 1.0
C      1  0.5620470000000  0.5096860000000  0.5840890000000 1.0
C      1  0.4424240000000  0.5130630000000  0.5825000000000 1.0
C      1  0.4029330000000  0.5088110000000  0.4734970000000 1.0
C      1  0.4863570000000  0.4479000000000  0.5017740000000 1.0
C      1  0.4896060000000  0.5476290000000  0.4987330000000 1.0
C      1  0.4947800000000  0.5175550000000  0.5010890000000 1.0
END
