TITL C-3577084-3642-682 -7.39499430084843e-07 125000 -197.633861960217 0 0 33 (C1) n - 1
REM
REM in /home/bkarasulu/work/CARBON/AIRSS/Generating-Clusters/EDIP-Nigel-Params/with-SteepDescent/Higher-Symm/SD-CG/HFTN-CG
REM
REM
REM
REM
REM
REM ./C.cell (12c818d87b63d06a65506943cc24bca4)
REM
REM compiler GCC version 9.2.1 20190827 (Red Hat 9.2.1-1)
REM options -cpp -mtune=generic -march=x86-64 -g -O0 -fpre-include=/usr/include/finclude/math-vector-fortran.h
REM seed 86799667 -540305676 2057264482 -222670918 -363000345 -905215807 -1268054643 2121339383 1535890001 1739774656 -1251371336 1274079408 749199709 1385512937 -1672347205 -1765267873 1843636485 1660136973 -1842531002 1003919986 -733934825 692783293 2113584886 1920151954 1539861380 394770535 -1153258514 -388739967 -1963341279 -1221145884 238035156 561609675 1922645746
REM
CELL 1.54180   50.00000   50.00000   50.00000   90.00000   90.00000   90.00000
LATT -1
SFAC C  
C      1  0.4933550000000  0.4610670000000  0.5267980000000 1.0
C      1  0.5125020000000  0.5031760000000  0.5503430000000 1.0
C      1  0.4591820000000  0.5466160000000  0.4960850000000 1.0
C      1  0.4521600000000  0.5365660000000  0.4697320000000 1.0
C      1  0.5379250000000  0.4905720000000  0.5507550000000 1.0
C      1  0.4875180000000  0.5521630000000  0.5019690000000 1.0
C      1  0.5459730000000  0.5062850000000  0.4847600000000 1.0
C      1  0.4902030000000  0.5131930000000  0.4985150000000 1.0
C      1  0.5173470000000  0.4879990000000  0.4512080000000 1.0
C      1  0.4498750000000  0.4825020000000  0.5157940000000 1.0
C      1  0.5483780000000  0.4635090000000  0.5116680000000 1.0
C      1  0.4631540000000  0.5270300000000  0.5291780000000 1.0
C      1  0.4678700000000  0.5015100000000  0.4480950000000 1.0
C      1  0.5176710000000  0.4655510000000  0.5089850000000 1.0
C      1  0.5360120000000  0.5398390000000  0.5275700000000 1.0
C      1  0.4651740000000  0.4947950000000  0.4918360000000 1.0
C      1  0.5533740000000  0.4765040000000  0.4838280000000 1.0
C      1  0.5323340000000  0.4655240000000  0.4647480000000 1.0
C      1  0.5252520000000  0.5140650000000  0.4635330000000 1.0
C      1  0.4626690000000  0.4989900000000  0.5367070000000 1.0
C      1  0.4700100000000  0.4591680000000  0.5071050000000 1.0
C      1  0.5124230000000  0.5321060000000  0.5420060000000 1.0
C      1  0.5557490000000  0.4781180000000  0.5344490000000 1.0
C      1  0.5003030000000  0.5296050000000  0.4731050000000 1.0
C      1  0.4894310000000  0.4869270000000  0.5408080000000 1.0
C      1  0.4780510000000  0.5305660000000  0.4524110000000 1.0
C      1  0.5116820000000  0.4525390000000  0.4825600000000 1.0
C      1  0.4873440000000  0.5431330000000  0.5303390000000 1.0
C      1  0.5424090000000  0.5153660000000  0.5143390000000 1.0
C      1  0.4462030000000  0.5060330000000  0.4700560000000 1.0
C      1  0.5162290000000  0.4975460000000  0.5073930000000 1.0
C      1  0.4887490000000  0.4820800000000  0.4569130000000 1.0
C      1  0.4834920000000  0.4593560000000  0.4764100000000 1.0
END
