TITL C-3577083-591-725 7.02565741634417e-06 125000 -717.126886950913 0 0 115 (C1) n - 1
REM
REM in /home/bkarasulu/work/CARBON/AIRSS/Generating-Clusters/EDIP-Nigel-Params/with-SteepDescent/Higher-Symm/SD-CG/HFTN-CG
REM
REM
REM
REM
REM
REM ./C.cell (12c818d87b63d06a65506943cc24bca4)
REM
REM compiler GCC version 9.2.1 20190827 (Red Hat 9.2.1-1)
REM options -cpp -mtune=generic -march=x86-64 -g -O0 -fpre-include=/usr/include/finclude/math-vector-fortran.h
REM seed -1336054826 -868009254 -1594339551 1772196150 -969830165 2070332978 1914770369 2064975048 -833342529 -851246000 -1385432815 -1045408387 104011750 1995129937 -494525348 -244686922 2074702237 69784786 -1166796683 1549489055 -1863609880 1284261259 1349502958 1120731090 611971837 -362212487 -743318234 -2055001930 -1091268575 -1763537350 -443844620 633942440 -312029294
REM
CELL 1.54180   50.00000   50.00000   50.00000   90.00000   90.00000   90.00000
LATT -1
SFAC C  
C      1  0.5531490000000  0.4954730000000  0.5698000000000 1.0
C      1  0.5335190000000  0.4962380000000  0.4163520000000 1.0
C      1  0.4078090000000  0.4947260000000  0.5168150000000 1.0
C      1  0.4667790000000  0.4275530000000  0.4470180000000 1.0
C      1  0.4690800000000  0.4251610000000  0.5544120000000 1.0
C      1  0.5606480000000  0.4258270000000  0.4985320000000 1.0
C      1  0.5813040000000  0.5536110000000  0.5081860000000 1.0
C      1  0.4703460000000  0.5539820000000  0.4244780000000 1.0
C      1  0.4505320000000  0.5525500000000  0.5636520000000 1.0
C      1  0.4974400000000  0.3960960000000  0.4773400000000 1.0
C      1  0.4810630000000  0.3977360000000  0.5130280000000 1.0
C      1  0.5197950000000  0.3963370000000  0.5101860000000 1.0
C      1  0.4876910000000  0.5574320000000  0.4647870000000 1.0
C      1  0.4759300000000  0.5551820000000  0.5280160000000 1.0
C      1  0.5380750000000  0.5590180000000  0.5036820000000 1.0
C      1  0.4761040000000  0.5676980000000  0.5663290000000 1.0
C      1  0.5720440000000  0.5689960000000  0.4843510000000 1.0
C      1  0.4534210000000  0.5667290000000  0.4459360000000 1.0
C      1  0.5717000000000  0.4589340000000  0.5377180000000 1.0
C      1  0.4977420000000  0.4595170000000  0.4160470000000 1.0
C      1  0.4235360000000  0.4557510000000  0.5477280000000 1.0
C      1  0.5336940000000  0.4468550000000  0.5645960000000 1.0
C      1  0.5310950000000  0.4578660000000  0.4455210000000 1.0
C      1  0.4355880000000  0.4571220000000  0.5042460000000 1.0
C      1  0.5850880000000  0.5168840000000  0.4746570000000 1.0
C      1  0.4405210000000  0.5203350000000  0.4367240000000 1.0
C      1  0.4770520000000  0.5162770000000  0.5815540000000 1.0
C      1  0.5704510000000  0.5146330000000  0.5498180000000 1.0
C      1  0.5114580000000  0.5108510000000  0.4043460000000 1.0
C      1  0.4081990000000  0.5080830000000  0.5425860000000 1.0
C      1  0.5719780000000  0.4803090000000  0.5162240000000 1.0
C      1  0.4845680000000  0.4808440000000  0.4306710000000 1.0
C      1  0.4456880000000  0.4761440000000  0.5506640000000 1.0
C      1  0.5605560000000  0.4548810000000  0.4519980000000 1.0
C      1  0.4323530000000  0.4589010000000  0.4746930000000 1.0
C      1  0.5078250000000  0.4555960000000  0.5744310000000 1.0
C      1  0.4983930000000  0.4492620000000  0.5209260000000 1.0
C      1  0.5172380000000  0.4456040000000  0.4973330000000 1.0
C      1  0.4910190000000  0.4470370000000  0.4815520000000 1.0
C      1  0.5319840000000  0.4187360000000  0.4934110000000 1.0
C      1  0.4775330000000  0.4194600000000  0.4745130000000 1.0
C      1  0.4897080000000  0.4204310000000  0.5326940000000 1.0
C      1  0.4437470000000  0.4302120000000  0.5129800000000 1.0
C      1  0.5369920000000  0.4273920000000  0.5435690000000 1.0
C      1  0.5158280000000  0.4321530000000  0.4484850000000 1.0
C      1  0.5164580000000  0.4073800000000  0.5379700000000 1.0
C      1  0.5221440000000  0.4098860000000  0.4667480000000 1.0
C      1  0.4598280000000  0.4111810000000  0.4973030000000 1.0
C      1  0.5464930000000  0.5519270000000  0.5465240000000 1.0
C      1  0.5197670000000  0.5466210000000  0.4359300000000 1.0
C      1  0.4348080000000  0.5450640000000  0.5161570000000 1.0
C      1  0.5237440000000  0.5039710000000  0.5788630000000 1.0
C      1  0.5537740000000  0.5038590000000  0.4383280000000 1.0
C      1  0.4175220000000  0.5057790000000  0.4888440000000 1.0
C      1  0.4636200000000  0.5942580000000  0.5254390000000 1.0
C      1  0.5424490000000  0.5984570000000  0.5137480000000 1.0
C      1  0.4931790000000  0.5964520000000  0.4528750000000 1.0
C      1  0.5327160000000  0.5654970000000  0.4536880000000 1.0
C      1  0.4469840000000  0.5617580000000  0.4949860000000 1.0
C      1  0.5224630000000  0.5678210000000  0.5477290000000 1.0
C      1  0.4406170000000  0.4294260000000  0.5425040000000 1.0
C      1  0.5621370000000  0.4317230000000  0.5282590000000 1.0
C      1  0.4927350000000  0.4316190000000  0.4297810000000 1.0
C      1  0.4969370000000  0.5020700000000  0.5251730000000 1.0
C      1  0.5226100000000  0.5332460000000  0.4974120000000 1.0
C      1  0.4805170000000  0.5115100000000  0.4850560000000 1.0
C      1  0.5076750000000  0.4809960000000  0.5880440000000 1.0
C      1  0.5721260000000  0.4813200000000  0.4458210000000 1.0
C      1  0.4228300000000  0.4855660000000  0.4682070000000 1.0
C      1  0.4795810000000  0.4457830000000  0.5727690000000 1.0
C      1  0.5689860000000  0.4482850000000  0.4804310000000 1.0
C      1  0.4553320000000  0.4535850000000  0.4565990000000 1.0
C      1  0.4362470000000  0.5593330000000  0.5404860000000 1.0
C      1  0.5688750000000  0.5619650000000  0.5321830000000 1.0
C      1  0.4977920000000  0.5598360000000  0.4239390000000 1.0
C      1  0.5825530000000  0.5253060000000  0.5028700000000 1.0
C      1  0.4659760000000  0.5260560000000  0.4238560000000 1.0
C      1  0.4513630000000  0.5242790000000  0.5693380000000 1.0
C      1  0.5016460000000  0.5531540000000  0.5624760000000 1.0
C      1  0.5564820000000  0.5530810000000  0.4643440000000 1.0
C      1  0.4446120000000  0.5497040000000  0.4694330000000 1.0
C      1  0.4548330000000  0.4777030000000  0.5192250000000 1.0
C      1  0.5426610000000  0.4877180000000  0.5086890000000 1.0
C      1  0.5157900000000  0.4832510000000  0.4642200000000 1.0
C      1  0.5892490000000  0.4884860000000  0.4690600000000 1.0
C      1  0.4413310000000  0.4950550000000  0.4486540000000 1.0
C      1  0.4794430000000  0.4886080000000  0.5888050000000 1.0
C      1  0.4720180000000  0.5755230000000  0.5063080000000 1.0
C      1  0.5217470000000  0.5796140000000  0.5184380000000 1.0
C      1  0.5082670000000  0.5789690000000  0.4693360000000 1.0
C      1  0.5590090000000  0.5930650000000  0.4925610000000 1.0
C      1  0.4662560000000  0.5910000000000  0.4537670000000 1.0
C      1  0.4746610000000  0.5906060000000  0.5500000000000 1.0
C      1  0.4584920000000  0.4751390000000  0.4392540000000 1.0
C      1  0.4620950000000  0.4687300000000  0.5759010000000 1.0
C      1  0.5862180000000  0.4691440000000  0.4916460000000 1.0
C      1  0.5273750000000  0.4670440000000  0.4169860000000 1.0
C      1  0.4112300000000  0.4651020000000  0.5204770000000 1.0
C      1  0.5550610000000  0.4665080000000  0.5611130000000 1.0
C      1  0.5256790000000  0.5113240000000  0.5184050000000 1.0
C      1  0.5010900000000  0.5302040000000  0.4750380000000 1.0
C      1  0.4764940000000  0.5219330000000  0.5142500000000 1.0
C      1  0.4843190000000  0.4769040000000  0.5124990000000 1.0
C      1  0.5315160000000  0.4707130000000  0.4879870000000 1.0
C      1  0.4851400000000  0.4802250000000  0.4743330000000 1.0
C      1  0.5661550000000  0.5271370000000  0.4543820000000 1.0
C      1  0.4231510000000  0.5297100000000  0.4693690000000 1.0
C      1  0.5040140000000  0.5273940000000  0.5764440000000 1.0
C      1  0.5845820000000  0.5058270000000  0.5250580000000 1.0
C      1  0.4920630000000  0.5091000000000  0.4264370000000 1.0
C      1  0.4370540000000  0.5062170000000  0.5484290000000 1.0
C      1  0.5409080000000  0.5228000000000  0.5445040000000 1.0
C      1  0.5135690000000  0.5179730000000  0.4494050000000 1.0
C      1  0.4465490000000  0.5159670000000  0.5194990000000 1.0
C      1  0.5001910000000  0.5834430000000  0.4981310000000 1.0
END
