TITL C-3578209-2550-46 -4.19656401039092e-08 125000 -786.659022914744 0 0 125 (C1) n - 1
REM
REM in /home/bkarasulu/work/CARBON/AIRSS/Generating-Clusters/EDIP-Nigel-Params/with-SteepDescent/Higher-Symm/SD-CG/HFTN-CG
REM
REM
REM
REM
REM
REM ./C.cell (12c818d87b63d06a65506943cc24bca4)
REM
REM compiler GCC version 9.2.1 20190827 (Red Hat 9.2.1-1)
REM options -cpp -mtune=generic -march=x86-64 -g -O0 -fpre-include=/usr/include/finclude/math-vector-fortran.h
REM seed 1466529171 -211085008 -1832883294 -1467936151 -1414234991 -370541121 269596936 -912533241 1977874541 -923697883 -1518272206 -1205906227 -1386761580 -1205687285 843619142 57705855 -1271426141 642211520 -1145388470 117881495 -1728447114 -1320531373 494138945 -1725900284 901444325 -1208043409 -1123320523 -230699577 -1820066394 1393550356 -1390269315 301100570 36230767
REM
CELL 1.54180   50.00000   50.00000   50.00000   90.00000   90.00000   90.00000
LATT -1
SFAC C  
C      1  0.5530000000000  0.4487870000000  0.5752590000000 1.0
C      1  0.4310630000000  0.4809320000000  0.5756630000000 1.0
C      1  0.5190380000000  0.5722080000000  0.5731190000000 1.0
C      1  0.5529000000000  0.5516060000000  0.4241470000000 1.0
C      1  0.4310900000000  0.5192240000000  0.4235530000000 1.0
C      1  0.5190750000000  0.4280530000000  0.4268400000000 1.0
C      1  0.4755970000000  0.5636910000000  0.5545710000000 1.0
C      1  0.5651120000000  0.4902430000000  0.5548190000000 1.0
C      1  0.4586660000000  0.4483780000000  0.5530910000000 1.0
C      1  0.4756440000000  0.4369360000000  0.4451120000000 1.0
C      1  0.5655550000000  0.5101570000000  0.4432450000000 1.0
C      1  0.4585710000000  0.5519290000000  0.4455470000000 1.0
C      1  0.5595340000000  0.5521840000000  0.5580720000000 1.0
C      1  0.5159080000000  0.4216550000000  0.5585290000000 1.0
C      1  0.4260600000000  0.5264660000000  0.5583390000000 1.0
C      1  0.5589270000000  0.4483440000000  0.4417620000000 1.0
C      1  0.5166920000000  0.5782130000000  0.4402930000000 1.0
C      1  0.4261150000000  0.4739670000000  0.4409950000000 1.0
C      1  0.5358110000000  0.5313000000000  0.4998830000000 1.0
C      1  0.5100010000000  0.4545320000000  0.4975650000000 1.0
C      1  0.4544820000000  0.5169980000000  0.4995350000000 1.0
C      1  0.5376670000000  0.4702210000000  0.4999640000000 1.0
C      1  0.5084300000000  0.5470660000000  0.5024130000000 1.0
C      1  0.4545480000000  0.4833000000000  0.5001090000000 1.0
C      1  0.4218570000000  0.5266290000000  0.4720970000000 1.0
C      1  0.5620510000000  0.5525040000000  0.4722050000000 1.0
C      1  0.5131650000000  0.4222560000000  0.4760480000000 1.0
C      1  0.4215840000000  0.4736240000000  0.5271170000000 1.0
C      1  0.5616650000000  0.4465200000000  0.5274210000000 1.0
C      1  0.5141660000000  0.5790460000000  0.5242540000000 1.0
C      1  0.4167650000000  0.5007120000000  0.4846360000000 1.0
C      1  0.5433690000000  0.5715910000000  0.4839490000000 1.0
C      1  0.5409220000000  0.4259290000000  0.4862070000000 1.0
C      1  0.4166460000000  0.4995640000000  0.5146260000000 1.0
C      1  0.5416230000000  0.4290870000000  0.5152960000000 1.0
C      1  0.5414710000000  0.5729210000000  0.5133830000000 1.0
C      1  0.4777880000000  0.4062210000000  0.5376910000000 1.0
C      1  0.4303110000000  0.5656790000000  0.5351830000000 1.0
C      1  0.5907820000000  0.5282280000000  0.5373450000000 1.0
C      1  0.4785430000000  0.5934590000000  0.4614460000000 1.0
C      1  0.4305740000000  0.4346720000000  0.4642870000000 1.0
C      1  0.5905760000000  0.4720250000000  0.4634880000000 1.0
C      1  0.4955500000000  0.5178240000000  0.6111800000000 1.0
C      1  0.5124480000000  0.4946600000000  0.6128900000000 1.0
C      1  0.4879510000000  0.4798420000000  0.6141490000000 1.0
C      1  0.4955910000000  0.4821960000000  0.3881790000000 1.0
C      1  0.5124110000000  0.5053870000000  0.3862220000000 1.0
C      1  0.4879130000000  0.5201410000000  0.3848800000000 1.0
C      1  0.5814990000000  0.4526620000000  0.4818830000000 1.0
C      1  0.4173590000000  0.4524190000000  0.4814580000000 1.0
C      1  0.5004090000000  0.5970970000000  0.4791520000000 1.0
C      1  0.5835270000000  0.5485340000000  0.5192610000000 1.0
C      1  0.4173140000000  0.5478770000000  0.5178230000000 1.0
C      1  0.4995940000000  0.4016640000000  0.5199900000000 1.0
C      1  0.4944800000000  0.4574080000000  0.5246580000000 1.0
C      1  0.4662920000000  0.5264600000000  0.5261550000000 1.0
C      1  0.5392810000000  0.5159290000000  0.5265490000000 1.0
C      1  0.4936370000000  0.5433650000000  0.4749300000000 1.0
C      1  0.4667860000000  0.4737750000000  0.4737330000000 1.0
C      1  0.5396080000000  0.4852890000000  0.4732370000000 1.0
C      1  0.5280360000000  0.5133750000000  0.4095420000000 1.0
C      1  0.4974960000000  0.4678970000000  0.4123610000000 1.0
C      1  0.4790140000000  0.5170780000000  0.4134640000000 1.0
C      1  0.5281250000000  0.4868020000000  0.5894990000000 1.0
C      1  0.4974320000000  0.5323520000000  0.5871550000000 1.0
C      1  0.4790360000000  0.4830000000000  0.5855660000000 1.0
C      1  0.5743990000000  0.4624110000000  0.5075890000000 1.0
C      1  0.4294600000000  0.4551540000000  0.5070600000000 1.0
C      1  0.4925120000000  0.5879150000000  0.5058230000000 1.0
C      1  0.5739940000000  0.5363550000000  0.4942780000000 1.0
C      1  0.4295020000000  0.5451740000000  0.4922260000000 1.0
C      1  0.4915930000000  0.4102910000000  0.4928170000000 1.0
C      1  0.4522900000000  0.4972900000000  0.5847740000000 1.0
C      1  0.5227380000000  0.5469690000000  0.5857290000000 1.0
C      1  0.5288290000000  0.4572300000000  0.5872950000000 1.0
C      1  0.4521970000000  0.5029230000000  0.4141300000000 1.0
C      1  0.5226770000000  0.4530590000000  0.4136380000000 1.0
C      1  0.5289890000000  0.5428920000000  0.4116820000000 1.0
C      1  0.5492440000000  0.5039040000000  0.5762400000000 1.0
C      1  0.4794670000000  0.4550460000000  0.5734280000000 1.0
C      1  0.4722490000000  0.5430210000000  0.5755810000000 1.0
C      1  0.5494380000000  0.4963730000000  0.4221870000000 1.0
C      1  0.4795200000000  0.5451030000000  0.4254050000000 1.0
C      1  0.4722960000000  0.4574680000000  0.4240470000000 1.0
C      1  0.5149210000000  0.4745310000000  0.5438020000000 1.0
C      1  0.4701770000000  0.4988430000000  0.5439690000000 1.0
C      1  0.5132610000000  0.5260020000000  0.5465960000000 1.0
C      1  0.5146780000000  0.5261630000000  0.4553950000000 1.0
C      1  0.4703930000000  0.5013830000000  0.4557290000000 1.0
C      1  0.5135320000000  0.4746260000000  0.4528370000000 1.0
C      1  0.4955590000000  0.5297080000000  0.5224190000000 1.0
C      1  0.5288550000000  0.4886300000000  0.5214710000000 1.0
C      1  0.4749560000000  0.4800630000000  0.5212440000000 1.0
C      1  0.4962570000000  0.4711650000000  0.4774190000000 1.0
C      1  0.5282690000000  0.5124370000000  0.4781540000000 1.0
C      1  0.4749250000000  0.5201740000000  0.4784500000000 1.0
C      1  0.4497510000000  0.4765410000000  0.4259110000000 1.0
C      1  0.5068330000000  0.5569090000000  0.4249100000000 1.0
C      1  0.5460160000000  0.4666060000000  0.4245030000000 1.0
C      1  0.4496390000000  0.5239430000000  0.5735760000000 1.0
C      1  0.5067160000000  0.4433390000000  0.5737380000000 1.0
C      1  0.5460780000000  0.5336460000000  0.5746130000000 1.0
C      1  0.5514580000000  0.5362560000000  0.4488860000000 1.0
C      1  0.5048820000000  0.4372600000000  0.4504950000000 1.0
C      1  0.4420650000000  0.5269300000000  0.4494400000000 1.0
C      1  0.5514510000000  0.4635810000000  0.5501920000000 1.0
C      1  0.5049960000000  0.5635310000000  0.5492000000000 1.0
C      1  0.4417320000000  0.4731500000000  0.5497050000000 1.0
C      1  0.4164860000000  0.4770600000000  0.4673610000000 1.0
C      1  0.5227610000000  0.5836890000000  0.4671140000000 1.0
C      1  0.5592580000000  0.4409620000000  0.4690160000000 1.0
C      1  0.4165090000000  0.5232380000000  0.5319340000000 1.0
C      1  0.5223410000000  0.4150070000000  0.5320440000000 1.0
C      1  0.5621730000000  0.5625010000000  0.5318290000000 1.0
C      1  0.5703170000000  0.4932630000000  0.4678140000000 1.0
C      1  0.4587950000000  0.4418640000000  0.4695590000000 1.0
C      1  0.4697200000000  0.5665130000000  0.4704710000000 1.0
C      1  0.5711060000000  0.5075230000000  0.5298950000000 1.0
C      1  0.4585830000000  0.5584330000000  0.5303080000000 1.0
C      1  0.4695840000000  0.4331390000000  0.5279940000000 1.0
C      1  0.4672730000000  0.5730910000000  0.5050450000000 1.0
C      1  0.4673200000000  0.4267180000000  0.4949810000000 1.0
C      1  0.5793310000000  0.5077520000000  0.4922560000000 1.0
C      1  0.4986820000000  0.5020450000000  0.4404250000000 1.0
C      1  0.4987200000000  0.4984270000000  0.5588300000000 1.0
END
