TITL C-3577077-324-155 -5.21110666135429e-07 125000 -243.557054362257 0 0 41 (C1) n - 1
REM
REM in /home/bkarasulu/work/CARBON/AIRSS/Generating-Clusters/EDIP-Nigel-Params/with-SteepDescent/Higher-Symm/SD-CG/HFTN-CG
REM
REM
REM
REM
REM
REM ./C.cell (12c818d87b63d06a65506943cc24bca4)
REM
REM compiler GCC version 9.2.1 20190827 (Red Hat 9.2.1-1)
REM options -cpp -mtune=generic -march=x86-64 -g -O0 -fpre-include=/usr/include/finclude/math-vector-fortran.h
REM seed -1597244618 -490970134 -1818451209 -1693252102 -653446370 -890609550 1675178428 1635900639 -385550703 659773333 -2027723673 -1898651708 -1814819763 61796108 -1454430334 2078192711 1176125229 224782831 -1046000230 688710381 787425213 -1561877935 2132569830 1057044438 1212057841 1970580585 1875365477 937734032 666784651 1223183738 370120064 57016773 1734276200
REM
CELL 1.54180   50.00000   50.00000   50.00000   90.00000   90.00000   90.00000
LATT -1
SFAC C  
C      1  0.5478300000000  0.5436650000000  0.5276260000000 1.0
C      1  0.5467220000000  0.4553390000000  0.4703230000000 1.0
C      1  0.4537380000000  0.4561340000000  0.5251200000000 1.0
C      1  0.4534660000000  0.5445170000000  0.4752860000000 1.0
C      1  0.5520730000000  0.5248500000000  0.5479510000000 1.0
C      1  0.5494100000000  0.4757490000000  0.4508210000000 1.0
C      1  0.4535940000000  0.5241150000000  0.4555840000000 1.0
C      1  0.4540860000000  0.4762750000000  0.5450730000000 1.0
C      1  0.4713990000000  0.4760740000000  0.4556950000000 1.0
C      1  0.4727710000000  0.5251880000000  0.5462610000000 1.0
C      1  0.5333830000000  0.5208800000000  0.4591180000000 1.0
C      1  0.5341020000000  0.4809420000000  0.5379420000000 1.0
C      1  0.4703260000000  0.4544100000000  0.4764520000000 1.0
C      1  0.4716670000000  0.5472260000000  0.5242890000000 1.0
C      1  0.5333380000000  0.4603660000000  0.5179700000000 1.0
C      1  0.5337470000000  0.5401710000000  0.4806520000000 1.0
C      1  0.4511040000000  0.4962330000000  0.4635270000000 1.0
C      1  0.4581610000000  0.5024400000000  0.5334470000000 1.0
C      1  0.5497390000000  0.4992640000000  0.4665110000000 1.0
C      1  0.5551340000000  0.5000320000000  0.5335090000000 1.0
C      1  0.4511890000000  0.4636230000000  0.4971500000000 1.0
C      1  0.4573840000000  0.5335730000000  0.5017180000000 1.0
C      1  0.5522800000000  0.4682050000000  0.4971130000000 1.0
C      1  0.5516260000000  0.5306310000000  0.5018870000000 1.0
C      1  0.5015800000000  0.5178660000000  0.5500190000000 1.0
C      1  0.4997320000000  0.4838850000000  0.4516430000000 1.0
C      1  0.5074610000000  0.4878530000000  0.5473340000000 1.0
C      1  0.5059050000000  0.5139450000000  0.4514970000000 1.0
C      1  0.4999360000000  0.5531950000000  0.5161060000000 1.0
C      1  0.4982790000000  0.4471030000000  0.4841400000000 1.0
C      1  0.5062140000000  0.5474580000000  0.4867870000000 1.0
C      1  0.5057150000000  0.4525740000000  0.5130740000000 1.0
C      1  0.4896670000000  0.4648660000000  0.5362490000000 1.0
C      1  0.5185830000000  0.5427030000000  0.5387420000000 1.0
C      1  0.4891500000000  0.5368090000000  0.4633150000000 1.0
C      1  0.5165300000000  0.4576620000000  0.4609000000000 1.0
C      1  0.5286460000000  0.4996000000000  0.4978680000000 1.0
C      1  0.4665260000000  0.5043190000000  0.5039100000000 1.0
C      1  0.5677140000000  0.4954690000000  0.5061320000000 1.0
C      1  0.4370710000000  0.4870820000000  0.4873590000000 1.0
C      1  0.4971730000000  0.5011460000000  0.4996450000000 1.0
END
