TITL C-3577084-3642-233 -4.52740909696672e-07 125000 -188.896896218221 0 0 32 (C1) n - 1
REM
REM in /home/bkarasulu/work/CARBON/AIRSS/Generating-Clusters/EDIP-Nigel-Params/with-SteepDescent/Higher-Symm/SD-CG/HFTN-CG
REM
REM
REM
REM
REM
REM ./C.cell (12c818d87b63d06a65506943cc24bca4)
REM
REM compiler GCC version 9.2.1 20190827 (Red Hat 9.2.1-1)
REM options -cpp -mtune=generic -march=x86-64 -g -O0 -fpre-include=/usr/include/finclude/math-vector-fortran.h
REM seed -1338430882 -602111855 -256921023 -1627685148 -1870692836 1414857992 189997627 -1032658047 -333793749 390157953 -1214096060 -1962139221 1134224596 11925808 232046121 260662787 798193438 -677284508 -1445110055 -566457118 1123130325 635839618 921482516 -1097506713 -1546307007 -1650842954 1686755028 -1875633184 -1275971634 1318646608 -762917616 -1759150292 -304331696
REM
CELL 1.54180   50.00000   50.00000   50.00000   90.00000   90.00000   90.00000
LATT -1
SFAC C  
C      1  0.5255280000000  0.5329180000000  0.5348540000000 1.0
C      1  0.4739720000000  0.5330780000000  0.5335480000000 1.0
C      1  0.5249620000000  0.4786940000000  0.5348440000000 1.0
C      1  0.4731950000000  0.4791790000000  0.5342730000000 1.0
C      1  0.5138470000000  0.4694550000000  0.4510800000000 1.0
C      1  0.4872450000000  0.4701680000000  0.4501400000000 1.0
C      1  0.4886950000000  0.5621970000000  0.4912380000000 1.0
C      1  0.5157990000000  0.5644080000000  0.4927170000000 1.0
C      1  0.4503190000000  0.4994080000000  0.4609080000000 1.0
C      1  0.5505860000000  0.4984770000000  0.4628490000000 1.0
C      1  0.5251550000000  0.4917380000000  0.5600460000000 1.0
C      1  0.4726780000000  0.4923300000000  0.5594060000000 1.0
C      1  0.5260400000000  0.5387060000000  0.4868340000000 1.0
C      1  0.4755520000000  0.5380640000000  0.4854090000000 1.0
C      1  0.4642940000000  0.4642490000000  0.4918380000000 1.0
C      1  0.5351140000000  0.4639150000000  0.4938770000000 1.0
C      1  0.4555260000000  0.5192210000000  0.4422930000000 1.0
C      1  0.5456900000000  0.5183610000000  0.4442040000000 1.0
C      1  0.5180520000000  0.4437980000000  0.5053390000000 1.0
C      1  0.4806850000000  0.4442580000000  0.5044970000000 1.0
C      1  0.4830610000000  0.4930790000000  0.5084770000000 1.0
C      1  0.5158450000000  0.4931680000000  0.5090310000000 1.0
C      1  0.4838420000000  0.4513640000000  0.5329220000000 1.0
C      1  0.5138050000000  0.4510580000000  0.5335190000000 1.0
C      1  0.5306320000000  0.4795480000000  0.4705840000000 1.0
C      1  0.4699150000000  0.4803010000000  0.4691400000000 1.0
C      1  0.4570230000000  0.5369810000000  0.4635130000000 1.0
C      1  0.5450630000000  0.5361610000000  0.4654600000000 1.0
C      1  0.4846540000000  0.5172440000000  0.5542050000000 1.0
C      1  0.5137760000000  0.5169000000000  0.5547280000000 1.0
C      1  0.5286820000000  0.5207610000000  0.5097530000000 1.0
C      1  0.4707680000000  0.5208140000000  0.5084710000000 1.0
END
