TITL C-3577089-586-64 -5.70056093627755e-07 125000 -263.0927697003 0 0 45 (C1) n - 1
REM
REM in /home/bkarasulu/work/CARBON/AIRSS/Generating-Clusters/EDIP-Nigel-Params/with-SteepDescent/Higher-Symm/SD-CG/HFTN-CG
REM
REM
REM
REM
REM
REM ./C.cell (12c818d87b63d06a65506943cc24bca4)
REM
REM compiler GCC version 9.2.1 20190827 (Red Hat 9.2.1-1)
REM options -cpp -mtune=generic -march=x86-64 -g -O0 -fpre-include=/usr/include/finclude/math-vector-fortran.h
REM seed 2063840169 2454798 -1458767593 -64087859 -1903922619 1420992463 782782740 -2088072338 -247644439 676727002 633554309 1074572825 -605267454 1547343593 -911445759 1980273361 -774027938 1403660304 -603073982 -222581406 1917254699 -1668754163 -135793234 1137829723 -271679303 796653929 943922894 -1400765667 -1193680193 330497709 2033786761 151447845 -632393651
REM
CELL 1.54180   50.00000   50.00000   50.00000   90.00000   90.00000   90.00000
LATT -1
SFAC C  
C      1  0.5140960000000  0.5287040000000  0.4904330000000 1.0
C      1  0.5106590000000  0.5155690000000  0.5165670000000 1.0
C      1  0.4658890000000  0.5240500000000  0.4956160000000 1.0
C      1  0.4874590000000  0.5327110000000  0.4781600000000 1.0
C      1  0.4824610000000  0.4832380000000  0.4891170000000 1.0
C      1  0.4981530000000  0.4660720000000  0.5333450000000 1.0
C      1  0.5186770000000  0.4642010000000  0.5127910000000 1.0
C      1  0.5079210000000  0.4685510000000  0.4855840000000 1.0
C      1  0.5223190000000  0.5244510000000  0.5419320000000 1.0
C      1  0.4433760000000  0.5357450000000  0.5092720000000 1.0
C      1  0.4811150000000  0.5364160000000  0.4499630000000 1.0
C      1  0.5410730000000  0.5323680000000  0.4796350000000 1.0
C      1  0.4881850000000  0.4600330000000  0.5595480000000 1.0
C      1  0.5468330000000  0.4613850000000  0.5195550000000 1.0
C      1  0.5219660000000  0.4709990000000  0.4599860000000 1.0
C      1  0.4567110000000  0.4719770000000  0.4806330000000 1.0
C      1  0.4534850000000  0.4660330000000  0.4536820000000 1.0
C      1  0.5489670000000  0.4649220000000  0.4558220000000 1.0
C      1  0.5543610000000  0.4638580000000  0.5462000000000 1.0
C      1  0.4612440000000  0.4655040000000  0.5629220000000 1.0
C      1  0.5461350000000  0.5335430000000  0.4522070000000 1.0
C      1  0.4550170000000  0.5311680000000  0.4419610000000 1.0
C      1  0.4430950000000  0.5308090000000  0.5365630000000 1.0
C      1  0.5496590000000  0.5292680000000  0.5442050000000 1.0
C      1  0.5113170000000  0.5142140000000  0.5651040000000 1.0
C      1  0.4188100000000  0.5306480000000  0.4967580000000 1.0
C      1  0.5006100000000  0.5307530000000  0.4308620000000 1.0
C      1  0.5619800000000  0.5210560000000  0.4939850000000 1.0
C      1  0.5042280000000  0.4683330000000  0.5807100000000 1.0
C      1  0.5656100000000  0.4717580000000  0.5019080000000 1.0
C      1  0.5086680000000  0.4819700000000  0.4383230000000 1.0
C      1  0.4339590000000  0.4831340000000  0.4918160000000 1.0
C      1  0.4447450000000  0.4864390000000  0.5623870000000 1.0
C      1  0.4446430000000  0.4829420000000  0.4348010000000 1.0
C      1  0.5602090000000  0.4860260000000  0.4429320000000 1.0
C      1  0.5659980000000  0.4846220000000  0.5586210000000 1.0
C      1  0.5664460000000  0.5111610000000  0.5550230000000 1.0
C      1  0.5578720000000  0.5126560000000  0.4396010000000 1.0
C      1  0.4423860000000  0.5094690000000  0.4326730000000 1.0
C      1  0.4410110000000  0.5116600000000  0.5549770000000 1.0
C      1  0.5733790000000  0.4970090000000  0.4971330000000 1.0
C      1  0.5060410000000  0.5050300000000  0.4249660000000 1.0
C      1  0.5108000000000  0.4942450000000  0.5828150000000 1.0
C      1  0.4172030000000  0.5040310000000  0.4925620000000 1.0
C      1  0.4855690000000  0.4983020000000  0.5159920000000 1.0
END
