TITL C-3577082-504-393 -4.85662998873438e-07 125000 -208.135082872714 0 0 36 (C2) n - 1
REM
REM in /home/bkarasulu/work/CARBON/AIRSS/Generating-Clusters/EDIP-Nigel-Params/with-SteepDescent/Higher-Symm/SD-CG/HFTN-CG
REM
REM
REM
REM
REM
REM ./C.cell (12c818d87b63d06a65506943cc24bca4)
REM
REM compiler GCC version 9.2.1 20190827 (Red Hat 9.2.1-1)
REM options -cpp -mtune=generic -march=x86-64 -g -O0 -fpre-include=/usr/include/finclude/math-vector-fortran.h
REM seed 1819925736 -702396311 957352190 -199570282 -1625269603 496770014 -1371461564 -92409331 1001810397 739265987 -1044173680 -1347919056 -1753846683 2137352976 1935721965 -1399506428 -887359572 1183014522 -1692413305 -39429768 -1107747164 -345919934 -1870284720 1502911128 1178005083 -221502780 -680142767 506822139 -601558869 -143184643 1915403885 -1840756465 -1460841018
REM
CELL 1.54180   50.00000   50.00000   50.00000   90.00000   90.00000   90.00000
LATT -1
SFAC C  
C      1  0.4431050000000  0.4957760000000  0.5618210000000 1.0
C      1  0.5568890000000  0.4956380000000  0.4381830000000 1.0
C      1  0.4402220000000  0.4786640000000  0.4976920000000 1.0
C      1  0.5597490000000  0.4785840000000  0.5023290000000 1.0
C      1  0.5073620000000  0.4385980000000  0.5124110000000 1.0
C      1  0.4925540000000  0.4385960000000  0.4876490000000 1.0
C      1  0.4953070000000  0.4490230000000  0.5350800000000 1.0
C      1  0.5046230000000  0.4489820000000  0.4649700000000 1.0
C      1  0.5564150000000  0.4527730000000  0.5071980000000 1.0
C      1  0.4435200000000  0.4528430000000  0.4928490000000 1.0
C      1  0.5229410000000  0.5499150000000  0.4733830000000 1.0
C      1  0.4771280000000  0.5499720000000  0.5265680000000 1.0
C      1  0.4387030000000  0.5233960000000  0.5150370000000 1.0
C      1  0.5613290000000  0.5232980000000  0.4849400000000 1.0
C      1  0.5349010000000  0.4376920000000  0.5109520000000 1.0
C      1  0.4650140000000  0.4377290000000  0.4891090000000 1.0
C      1  0.4529790000000  0.5348720000000  0.5369170000000 1.0
C      1  0.5470690000000  0.5347720000000  0.4630490000000 1.0
C      1  0.4852420000000  0.5352090000000  0.5012980000000 1.0
C      1  0.5148060000000  0.5351870000000  0.4986680000000 1.0
C      1  0.4748020000000  0.5451570000000  0.4752360000000 1.0
C      1  0.5252600000000  0.5451470000000  0.5247200000000 1.0
C      1  0.4522330000000  0.5031680000000  0.5009710000000 1.0
C      1  0.5477720000000  0.5031020000000  0.4990260000000 1.0
C      1  0.5142030000000  0.5010660000000  0.4619930000000 1.0
C      1  0.4857980000000  0.5011220000000  0.5380060000000 1.0
C      1  0.5022870000000  0.5465030000000  0.5432900000000 1.0
C      1  0.4977770000000  0.5464640000000  0.4566640000000 1.0
C      1  0.5099610000000  0.4734920000000  0.4557420000000 1.0
C      1  0.4900030000000  0.4735490000000  0.5442840000000 1.0
C      1  0.4912750000000  0.5177580000000  0.4539680000000 1.0
C      1  0.5087490000000  0.5177920000000  0.5460150000000 1.0
C      1  0.5376250000000  0.5121900000000  0.4463990000000 1.0
C      1  0.4623910000000  0.5122940000000  0.5535890000000 1.0
C      1  0.4817350000000  0.5048540000000  0.5069660000000 1.0
C      1  0.5182720000000  0.5048220000000  0.4930290000000 1.0
END
