TITL C-3577089-586-238 -1.36409200493912e-06 125000 -1254.08267409227 0 0 200 (C1) n - 1
REM
REM in /home/bkarasulu/work/CARBON/AIRSS/Generating-Clusters/EDIP-Nigel-Params/with-SteepDescent/Higher-Symm/SD-CG/HFTN-CG
REM
REM
REM
REM
REM
REM ./C.cell (12c818d87b63d06a65506943cc24bca4)
REM
REM compiler GCC version 9.2.1 20190827 (Red Hat 9.2.1-1)
REM options -cpp -mtune=generic -march=x86-64 -g -O0 -fpre-include=/usr/include/finclude/math-vector-fortran.h
REM seed -2145487012 635336103 -304484070 228752117 -1701847414 630013792 513052975 2053458163 2040849203 -1117034526 579281507 -1401119014 -1163352448 791063796 -1770288836 -1979049090 -1792859260 -1525263616 -1060954674 451141349 579181458 -671066752 -1186499761 334933740 1891717383 -246741848 446102883 338518866 -191646698 -1555394055 278131929 1140824538 445315346
REM
CELL 1.54180   50.00000   50.00000   50.00000   90.00000   90.00000   90.00000
LATT -1
SFAC C  
C      1  0.5188770000000  0.4816290000000  0.5297100000000 1.0
C      1  0.5463350000000  0.4831820000000  0.4902440000000 1.0
C      1  0.5024850000000  0.4698570000000  0.4840900000000 1.0
C      1  0.4749950000000  0.4762440000000  0.4880530000000 1.0
C      1  0.4675700000000  0.4736300000000  0.5168540000000 1.0
C      1  0.4883840000000  0.4771680000000  0.5392360000000 1.0
C      1  0.5315810000000  0.5176720000000  0.4669740000000 1.0
C      1  0.5174420000000  0.5311000000000  0.5098210000000 1.0
C      1  0.4996900000000  0.5282240000000  0.5324950000000 1.0
C      1  0.4709800000000  0.5290940000000  0.5235610000000 1.0
C      1  0.4617990000000  0.5231090000000  0.4945670000000 1.0
C      1  0.4838680000000  0.5171950000000  0.4740800000000 1.0
C      1  0.4452330000000  0.4967340000000  0.5514490000000 1.0
C      1  0.5249510000000  0.4930570000000  0.5753860000000 1.0
C      1  0.5818860000000  0.4900000000000  0.5208630000000 1.0
C      1  0.5643030000000  0.4822240000000  0.4384830000000 1.0
C      1  0.4784590000000  0.4872270000000  0.4235990000000 1.0
C      1  0.4163030000000  0.4874770000000  0.4800530000000 1.0
C      1  0.4450730000000  0.5148140000000  0.4421460000000 1.0
C      1  0.5236470000000  0.5043900000000  0.4233670000000 1.0
C      1  0.5843800000000  0.5149910000000  0.4803160000000 1.0
C      1  0.5620860000000  0.5150290000000  0.5639100000000 1.0
C      1  0.4784040000000  0.5111550000000  0.5852170000000 1.0
C      1  0.4284780000000  0.5033050000000  0.5253400000000 1.0
C      1  0.5492130000000  0.5567080000000  0.4887540000000 1.0
C      1  0.5167490000000  0.5619140000000  0.4525340000000 1.0
C      1  0.4684010000000  0.5629940000000  0.4624810000000 1.0
C      1  0.4515420000000  0.5687600000000  0.5081080000000 1.0
C      1  0.4818790000000  0.5706500000000  0.5456650000000 1.0
C      1  0.5278130000000  0.5638720000000  0.5374790000000 1.0
C      1  0.5483030000000  0.4400520000000  0.5093470000000 1.0
C      1  0.5142960000000  0.4354600000000  0.5448830000000 1.0
C      1  0.4683100000000  0.4319110000000  0.5365950000000 1.0
C      1  0.4512260000000  0.4372910000000  0.4916450000000 1.0
C      1  0.4822240000000  0.4441800000000  0.4537580000000 1.0
C      1  0.5336270000000  0.4454060000000  0.4624400000000 1.0
C      1  0.4716500000000  0.5900870000000  0.5027900000000 1.0
C      1  0.4908400000000  0.5918110000000  0.5258500000000 1.0
C      1  0.5207720000000  0.5864940000000  0.5220510000000 1.0
C      1  0.5318190000000  0.5820480000000  0.4938350000000 1.0
C      1  0.5120810000000  0.5857470000000  0.4709690000000 1.0
C      1  0.4820810000000  0.5869100000000  0.4752370000000 1.0
C      1  0.4701100000000  0.4145650000000  0.4918420000000 1.0
C      1  0.4899460000000  0.4194810000000  0.4686320000000 1.0
C      1  0.5205020000000  0.4206580000000  0.4739070000000 1.0
C      1  0.5304260000000  0.4166320000000  0.5023770000000 1.0
C      1  0.5106670000000  0.4130930000000  0.5247200000000 1.0
C      1  0.4814130000000  0.4105640000000  0.5196930000000 1.0
C      1  0.5300950000000  0.4173340000000  0.5749470000000 1.0
C      1  0.5761920000000  0.4286240000000  0.5149120000000 1.0
C      1  0.5506460000000  0.4210220000000  0.4377860000000 1.0
C      1  0.4706560000000  0.4306490000000  0.4294420000000 1.0
C      1  0.4245090000000  0.4253780000000  0.4865100000000 1.0
C      1  0.4476500000000  0.4131360000000  0.5621940000000 1.0
C      1  0.5300400000000  0.5786780000000  0.4204820000000 1.0
C      1  0.5761880000000  0.5712430000000  0.4877800000000 1.0
C      1  0.5492860000000  0.5721800000000  0.5558770000000 1.0
C      1  0.4712480000000  0.5813250000000  0.5716300000000 1.0
C      1  0.4185760000000  0.5865600000000  0.5121860000000 1.0
C      1  0.4509360000000  0.5743450000000  0.4402490000000 1.0
C      1  0.5447760000000  0.6136770000000  0.4613890000000 1.0
C      1  0.4931370000000  0.6126380000000  0.4412100000000 1.0
C      1  0.4498360000000  0.6170380000000  0.4754720000000 1.0
C      1  0.4587070000000  0.6221640000000  0.5301270000000 1.0
C      1  0.5099770000000  0.6232670000000  0.5499890000000 1.0
C      1  0.5523320000000  0.6184060000000  0.5154120000000 1.0
C      1  0.5452650000000  0.3866610000000  0.5316840000000 1.0
C      1  0.4936910000000  0.3829640000000  0.5521430000000 1.0
C      1  0.4510540000000  0.3789060000000  0.5170130000000 1.0
C      1  0.4622390000000  0.3812570000000  0.4632970000000 1.0
C      1  0.5110490000000  0.3851700000000  0.4452330000000 1.0
C      1  0.5534320000000  0.3871440000000  0.4789380000000 1.0
C      1  0.4606400000000  0.4820620000000  0.6204040000000 1.0
C      1  0.5834880000000  0.4820270000000  0.5949220000000 1.0
C      1  0.6274540000000  0.4996920000000  0.4700810000000 1.0
C      1  0.5231010000000  0.4932780000000  0.3771520000000 1.0
C      1  0.4105880000000  0.5008130000000  0.4127310000000 1.0
C      1  0.3832560000000  0.4983460000000  0.5431510000000 1.0
C      1  0.4691500000000  0.5006170000000  0.3780830000000 1.0
C      1  0.5840340000000  0.5117070000000  0.4035300000000 1.0
C      1  0.6240850000000  0.5030800000000  0.5376420000000 1.0
C      1  0.5283950000000  0.5010600000000  0.6235330000000 1.0
C      1  0.4066630000000  0.5010120000000  0.5811570000000 1.0
C      1  0.3764070000000  0.5165650000000  0.4767180000000 1.0
C      1  0.4512170000000  0.5273610000000  0.4135150000000 1.0
C      1  0.4056730000000  0.5348800000000  0.5231140000000 1.0
C      1  0.4498460000000  0.5242180000000  0.5915180000000 1.0
C      1  0.5529790000000  0.5286440000000  0.5901620000000 1.0
C      1  0.6037760000000  0.5299700000000  0.5019520000000 1.0
C      1  0.5290740000000  0.5286990000000  0.4064420000000 1.0
C      1  0.4345170000000  0.4645700000000  0.5707350000000 1.0
C      1  0.3969270000000  0.4737430000000  0.5009890000000 1.0
C      1  0.4504080000000  0.4751750000000  0.4147120000000 1.0
C      1  0.5531340000000  0.4680880000000  0.4115170000000 1.0
C      1  0.6033740000000  0.4754290000000  0.5032800000000 1.0
C      1  0.5277390000000  0.4665270000000  0.5901550000000 1.0
C      1  0.5434690000000  0.4434590000000  0.5764600000000 1.0
C      1  0.5959950000000  0.4445520000000  0.4981640000000 1.0
C      1  0.5399950000000  0.4404370000000  0.4192360000000 1.0
C      1  0.4464320000000  0.4453510000000  0.4233430000000 1.0
C      1  0.4061270000000  0.4418920000000  0.5034810000000 1.0
C      1  0.4525040000000  0.4390540000000  0.5770030000000 1.0
C      1  0.5444340000000  0.5531360000000  0.4194180000000 1.0
C      1  0.5902910000000  0.5579990000000  0.5095030000000 1.0
C      1  0.5414050000000  0.5569040000000  0.5816480000000 1.0
C      1  0.4514440000000  0.5603820000000  0.5798060000000 1.0
C      1  0.4087800000000  0.5594140000000  0.5029570000000 1.0
C      1  0.4581130000000  0.5582810000000  0.4158400000000 1.0
C      1  0.4791990000000  0.4407800000000  0.5888880000000 1.0
C      1  0.5651280000000  0.4484060000000  0.5578360000000 1.0
C      1  0.5790780000000  0.4486810000000  0.4741100000000 1.0
C      1  0.5119320000000  0.4419790000000  0.4206750000000 1.0
C      1  0.4308370000000  0.4459570000000  0.4479630000000 1.0
C      1  0.4230350000000  0.4425220000000  0.5277700000000 1.0
C      1  0.4871370000000  0.5534660000000  0.4203420000000 1.0
C      1  0.5680810000000  0.5510210000000  0.4369130000000 1.0
C      1  0.5688170000000  0.5507170000000  0.5306200000000 1.0
C      1  0.5118010000000  0.5523360000000  0.5788620000000 1.0
C      1  0.4386910000000  0.5571720000000  0.5537650000000 1.0
C      1  0.4143380000000  0.5545870000000  0.4744590000000 1.0
C      1  0.5367630000000  0.6062580000000  0.5398210000000 1.0
C      1  0.5562820000000  0.6006900000000  0.4892540000000 1.0
C      1  0.5242040000000  0.6028140000000  0.4384120000000 1.0
C      1  0.4616770000000  0.6042750000000  0.4475890000000 1.0
C      1  0.4388400000000  0.6106570000000  0.5060140000000 1.0
C      1  0.4789160000000  0.6140650000000  0.5542420000000 1.0
C      1  0.5355790000000  0.4014080000000  0.4563430000000 1.0
C      1  0.5634530000000  0.3983650000000  0.5081200000000 1.0
C      1  0.5245810000000  0.3941530000000  0.5557150000000 1.0
C      1  0.4622310000000  0.3896840000000  0.5463100000000 1.0
C      1  0.4465460000000  0.3934700000000  0.4879090000000 1.0
C      1  0.4829170000000  0.3988890000000  0.4475150000000 1.0
C      1  0.5060040000000  0.6334170000000  0.5227980000000 1.0
C      1  0.5288600000000  0.6327540000000  0.5047460000000 1.0
C      1  0.5240250000000  0.6283570000000  0.4762470000000 1.0
C      1  0.4971970000000  0.6273860000000  0.4658810000000 1.0
C      1  0.4746230000000  0.6299210000000  0.4837630000000 1.0
C      1  0.4791400000000  0.6325760000000  0.5123430000000 1.0
C      1  0.5088930000000  0.3668690000000  0.4684970000000 1.0
C      1  0.5315050000000  0.3693620000000  0.4876280000000 1.0
C      1  0.5256710000000  0.3722940000000  0.5159480000000 1.0
C      1  0.4989510000000  0.3704030000000  0.5264340000000 1.0
C      1  0.4767970000000  0.3679190000000  0.5082220000000 1.0
C      1  0.4813990000000  0.3659180000000  0.4793570000000 1.0
C      1  0.4513340000000  0.4484070000000  0.5191960000000 1.0
C      1  0.4881780000000  0.4488470000000  0.5522590000000 1.0
C      1  0.5352480000000  0.4548070000000  0.5343440000000 1.0
C      1  0.5521570000000  0.4552620000000  0.4837990000000 1.0
C      1  0.5132970000000  0.4670490000000  0.4564320000000 1.0
C      1  0.4597350000000  0.4571350000000  0.4704030000000 1.0
C      1  0.4510410000000  0.5499490000000  0.4845160000000 1.0
C      1  0.4906350000000  0.5467300000000  0.4494540000000 1.0
C      1  0.5402610000000  0.5452110000000  0.4623490000000 1.0
C      1  0.5479080000000  0.5344800000000  0.5111350000000 1.0
C      1  0.5046990000000  0.5521680000000  0.5500680000000 1.0
C      1  0.4597520000000  0.5552060000000  0.5329390000000 1.0
C      1  0.4966560000000  0.4635050000000  0.5929910000000 1.0
C      1  0.5730330000000  0.4741370000000  0.5472490000000 1.0
C      1  0.5868320000000  0.4700590000000  0.4562490000000 1.0
C      1  0.5009260000000  0.4670680000000  0.4141950000000 1.0
C      1  0.4218640000000  0.4721580000000  0.4543700000000 1.0
C      1  0.4143070000000  0.4606320000000  0.5482370000000 1.0
C      1  0.4995190000000  0.5345980000000  0.4014470000000 1.0
C      1  0.5782880000000  0.5268850000000  0.4500680000000 1.0
C      1  0.5810730000000  0.5310290000000  0.5478660000000 1.0
C      1  0.5018300000000  0.5296070000000  0.5935420000000 1.0
C      1  0.4178470000000  0.5380240000000  0.5510490000000 1.0
C      1  0.4207570000000  0.5300950000000  0.4597060000000 1.0
C      1  0.4401600000000  0.4980280000000  0.6098360000000 1.0
C      1  0.5648100000000  0.4964210000000  0.6104070000000 1.0
C      1  0.6318450000000  0.5134120000000  0.4950590000000 1.0
C      1  0.5422380000000  0.5147970000000  0.3815620000000 1.0
C      1  0.4292240000000  0.5135620000000  0.3947930000000 1.0
C      1  0.3795660000000  0.5187200000000  0.5235770000000 1.0
C      1  0.4445100000000  0.4887390000000  0.3865940000000 1.0
C      1  0.5645760000000  0.4974550000000  0.3901340000000 1.0
C      1  0.6304330000000  0.4892310000000  0.5132250000000 1.0
C      1  0.5415540000000  0.4764690000000  0.6158160000000 1.0
C      1  0.4218320000000  0.4804430000000  0.5939280000000 1.0
C      1  0.3742900000000  0.5014360000000  0.5001550000000 1.0
C      1  0.4824960000000  0.4871160000000  0.6036410000000 1.0
C      1  0.5796240000000  0.4919210000000  0.5690300000000 1.0
C      1  0.6004380000000  0.4891930000000  0.4754380000000 1.0
C      1  0.5242210000000  0.4819470000000  0.4050260000000 1.0
C      1  0.4301230000000  0.4900030000000  0.4322400000000 1.0
C      1  0.4055190000000  0.4834400000000  0.5301310000000 1.0
C      1  0.4775810000000  0.5126870000000  0.4036430000000 1.0
C      1  0.5804150000000  0.5057320000000  0.4305930000000 1.0
C      1  0.5980240000000  0.5145770000000  0.5294830000000 1.0
C      1  0.5264730000000  0.5139240000000  0.5965280000000 1.0
C      1  0.4291040000000  0.5161470000000  0.5687460000000 1.0
C      1  0.4017400000000  0.5096880000000  0.4667360000000 1.0
C      1  0.5628900000000  0.5052570000000  0.5005520000000 1.0
C      1  0.4714290000000  0.5009750000000  0.4516880000000 1.0
C      1  0.4752840000000  0.5000460000000  0.5559650000000 1.0
C      1  0.4395840000000  0.5009070000000  0.4971420000000 1.0
C      1  0.5338970000000  0.4937310000000  0.4488400000000 1.0
C      1  0.5319380000000  0.5020980000000  0.5480150000000 1.0
C      1  0.5193110000000  0.4869940000000  0.4990060000000 1.0
C      1  0.5118180000000  0.5136410000000  0.4878270000000 1.0
END
