TITL C-3577081-279-447 -1.07311206986936e-07 125000 -566.055590154239 0 0 92 (C1) n - 1
REM
REM in /home/bkarasulu/work/CARBON/AIRSS/Generating-Clusters/EDIP-Nigel-Params/with-SteepDescent/Higher-Symm/SD-CG/HFTN-CG
REM
REM
REM
REM
REM
REM ./C.cell (12c818d87b63d06a65506943cc24bca4)
REM
REM compiler GCC version 9.2.1 20190827 (Red Hat 9.2.1-1)
REM options -cpp -mtune=generic -march=x86-64 -g -O0 -fpre-include=/usr/include/finclude/math-vector-fortran.h
REM seed -1563570844 -1457828590 1932969230 -1106019611 -521430984 -1907348702 -1670211701 2020504573 656497178 963801952 1214184218 -159908317 1123306559 820752790 118229083 -1643550213 1786068604 -1196227085 -58447514 1560048306 1540598533 -1712562109 -1486111939 168630986 442578906 1702026429 -1387658195 1179399210 -1740696105 -370050649 1889251176 -1777023498 887968472
REM
CELL 1.54180   50.00000   50.00000   50.00000   90.00000   90.00000   90.00000
LATT -1
SFAC C  
C      1  0.4765980000000  0.5578790000000  0.4475000000000 1.0
C      1  0.5515170000000  0.4862160000000  0.5919480000000 1.0
C      1  0.5431620000000  0.4442970000000  0.4990170000000 1.0
C      1  0.4620930000000  0.5057380000000  0.4210440000000 1.0
C      1  0.4553570000000  0.4348990000000  0.4728600000000 1.0
C      1  0.4575300000000  0.4893970000000  0.5795520000000 1.0
C      1  0.5253830000000  0.5079980000000  0.4839940000000 1.0
C      1  0.5539320000000  0.4737370000000  0.5420490000000 1.0
C      1  0.5093800000000  0.5311050000000  0.5277100000000 1.0
C      1  0.4865780000000  0.4309000000000  0.5373380000000 1.0
C      1  0.4654210000000  0.4226750000000  0.5209240000000 1.0
C      1  0.5504500000000  0.5144620000000  0.4591620000000 1.0
C      1  0.5085140000000  0.5488100000000  0.5525960000000 1.0
C      1  0.4654600000000  0.4761300000000  0.4906110000000 1.0
C      1  0.4913180000000  0.4444570000000  0.4341720000000 1.0
C      1  0.4718600000000  0.5705860000000  0.4737550000000 1.0
C      1  0.4553930000000  0.4198970000000  0.4962290000000 1.0
C      1  0.4647730000000  0.5099110000000  0.5391840000000 1.0
C      1  0.5010960000000  0.5250420000000  0.4770610000000 1.0
C      1  0.5169070000000  0.4969360000000  0.5666850000000 1.0
C      1  0.5794350000000  0.5279470000000  0.4994950000000 1.0
C      1  0.4126520000000  0.4982290000000  0.4599620000000 1.0
C      1  0.5358090000000  0.4851510000000  0.4200710000000 1.0
C      1  0.5137590000000  0.5289130000000  0.4305210000000 1.0
C      1  0.5339920000000  0.5610010000000  0.4596080000000 1.0
C      1  0.5622790000000  0.5081290000000  0.5797130000000 1.0
C      1  0.5195760000000  0.4369400000000  0.4332860000000 1.0
C      1  0.5751630000000  0.4666950000000  0.4694080000000 1.0
C      1  0.4497460000000  0.5581710000000  0.5228770000000 1.0
C      1  0.4582270000000  0.5031900000000  0.4844830000000 1.0
C      1  0.4880990000000  0.5111190000000  0.5215880000000 1.0
C      1  0.5364700000000  0.4626420000000  0.5866740000000 1.0
C      1  0.4568010000000  0.4942830000000  0.4466830000000 1.0
C      1  0.5621780000000  0.5433470000000  0.5419830000000 1.0
C      1  0.4687900000000  0.5147620000000  0.5679850000000 1.0
C      1  0.4581160000000  0.5498230000000  0.4942140000000 1.0
C      1  0.5561660000000  0.5398310000000  0.5130510000000 1.0
C      1  0.4416170000000  0.4618440000000  0.4786820000000 1.0
C      1  0.5395490000000  0.4561880000000  0.4242030000000 1.0
C      1  0.5558920000000  0.4479530000000  0.5247450000000 1.0
C      1  0.5442580000000  0.5757390000000  0.5332050000000 1.0
C      1  0.5281940000000  0.4923840000000  0.5387770000000 1.0
C      1  0.5253400000000  0.4205770000000  0.4555550000000 1.0
C      1  0.4090490000000  0.4931260000000  0.4894490000000 1.0
C      1  0.4935010000000  0.5826680000000  0.5283910000000 1.0
C      1  0.5444840000000  0.5753940000000  0.5038990000000 1.0
C      1  0.5150040000000  0.4774000000000  0.4918020000000 1.0
C      1  0.4774900000000  0.4678250000000  0.5780090000000 1.0
C      1  0.5333240000000  0.5198000000000  0.5128630000000 1.0
C      1  0.4303220000000  0.5414160000000  0.5357930000000 1.0
C      1  0.4305480000000  0.5379640000000  0.4847280000000 1.0
C      1  0.4890790000000  0.4604000000000  0.5430000000000 1.0
C      1  0.4365540000000  0.5136060000000  0.5294610000000 1.0
C      1  0.4844650000000  0.4421900000000  0.4643490000000 1.0
C      1  0.4588220000000  0.5349110000000  0.4219140000000 1.0
C      1  0.5116050000000  0.5004130000000  0.4241940000000 1.0
C      1  0.4834750000000  0.4638860000000  0.4155040000000 1.0
C      1  0.5716190000000  0.4697380000000  0.4412130000000 1.0
C      1  0.4324260000000  0.4846340000000  0.5679950000000 1.0
C      1  0.5795830000000  0.4999360000000  0.5075600000000 1.0
C      1  0.5424410000000  0.4320280000000  0.5451320000000 1.0
C      1  0.5577030000000  0.4947820000000  0.4362510000000 1.0
C      1  0.4926400000000  0.5338120000000  0.4504070000000 1.0
C      1  0.5487690000000  0.4633120000000  0.4794380000000 1.0
C      1  0.5120410000000  0.4220040000000  0.5269620000000 1.0
C      1  0.5244500000000  0.5724250000000  0.4831160000000 1.0
C      1  0.4347790000000  0.5398870000000  0.4348880000000 1.0
C      1  0.4170330000000  0.4657210000000  0.4976850000000 1.0
C      1  0.5511990000000  0.4461010000000  0.5689400000000 1.0
C      1  0.4898650000000  0.4692310000000  0.4769050000000 1.0
C      1  0.4706340000000  0.5689130000000  0.5403640000000 1.0
C      1  0.4970660000000  0.5848020000000  0.4844000000000 1.0
C      1  0.5705330000000  0.5174470000000  0.5543100000000 1.0
C      1  0.4218040000000  0.4906990000000  0.5428890000000 1.0
C      1  0.5088270000000  0.4701590000000  0.5748300000000 1.0
C      1  0.5041990000000  0.4820130000000  0.5222360000000 1.0
C      1  0.5165510000000  0.4341010000000  0.5009030000000 1.0
C      1  0.4867250000000  0.4914980000000  0.4117850000000 1.0
C      1  0.4800320000000  0.5512270000000  0.5617490000000 1.0
C      1  0.5756110000000  0.4941330000000  0.5363560000000 1.0
C      1  0.5384230000000  0.5377110000000  0.4446280000000 1.0
C      1  0.4217090000000  0.5287740000000  0.4575040000000 1.0
C      1  0.4779920000000  0.5227570000000  0.4948990000000 1.0
C      1  0.4961970000000  0.5132220000000  0.5750700000000 1.0
C      1  0.5175210000000  0.5767550000000  0.5452430000000 1.0
C      1  0.4192700000000  0.4689470000000  0.5254330000000 1.0
C      1  0.4923580000000  0.6009930000000  0.5072740000000 1.0
C      1  0.5054270000000  0.4234390000000  0.4757100000000 1.0
C      1  0.5887230000000  0.4887130000000  0.4817020000000 1.0
C      1  0.5766730000000  0.5236670000000  0.4705170000000 1.0
C      1  0.4322020000000  0.5111090000000  0.4984830000000 1.0
C      1  0.4344280000000  0.4783800000000  0.4537060000000 1.0
END
