TITL C-3577081-279-480 -5.73261770864218e-06 125000 -1155.66891610879 0 0 184 (C1) n - 1
REM
REM in /home/bkarasulu/work/CARBON/AIRSS/Generating-Clusters/EDIP-Nigel-Params/with-SteepDescent/Higher-Symm/SD-CG/HFTN-CG
REM
REM
REM
REM
REM
REM ./C.cell (12c818d87b63d06a65506943cc24bca4)
REM
REM compiler GCC version 9.2.1 20190827 (Red Hat 9.2.1-1)
REM options -cpp -mtune=generic -march=x86-64 -g -O0 -fpre-include=/usr/include/finclude/math-vector-fortran.h
REM seed 1412140172 -1358468323 86546514 1025193176 -1310003176 -1431533707 1147518085 -912579885 -750862908 -405573692 -1756941985 1762208710 1421019924 1133978469 -162859031 623330825 1243688158 -2040721038 -60422952 1054192301 1810250882 1869392302 1392379606 -1442730025 -1270048891 -1342241904 869479554 1118088145 -1792521965 1496492226 1696915829 1666625669 -1257748045
REM
CELL 1.54180   50.00000   50.00000   50.00000   90.00000   90.00000   90.00000
LATT -1
SFAC C  
C      1  0.5218500000000  0.5870720000000  0.5022970000000 1.0
C      1  0.5043930000000  0.5213510000000  0.5795020000000 1.0
C      1  0.5947070000000  0.4997030000000  0.5265100000000 1.0
C      1  0.4753070000000  0.6023240000000  0.4928960000000 1.0
C      1  0.5341610000000  0.4225210000000  0.4914910000000 1.0
C      1  0.4813390000000  0.4190570000000  0.5059490000000 1.0
C      1  0.4911970000000  0.5254150000000  0.4075450000000 1.0
C      1  0.5036880000000  0.4753560000000  0.4008640000000 1.0
C      1  0.4930560000000  0.4712510000000  0.6129400000000 1.0
C      1  0.4132870000000  0.5061950000000  0.4714670000000 1.0
C      1  0.6038670000000  0.4936680000000  0.4703800000000 1.0
C      1  0.4125660000000  0.5012090000000  0.5243910000000 1.0
C      1  0.5068710000000  0.6007760000000  0.5242060000000 1.0
C      1  0.5821990000000  0.5189890000000  0.5068380000000 1.0
C      1  0.5256290000000  0.4997670000000  0.5852670000000 1.0
C      1  0.4944050000000  0.6031300000000  0.4715340000000 1.0
C      1  0.5021790000000  0.4185000000000  0.5279100000000 1.0
C      1  0.5101140000000  0.4171620000000  0.4720250000000 1.0
C      1  0.4136780000000  0.5298310000000  0.4921590000000 1.0
C      1  0.4035770000000  0.4795970000000  0.5054400000000 1.0
C      1  0.6057090000000  0.4721940000000  0.4901280000000 1.0
C      1  0.4714410000000  0.5088680000000  0.3929960000000 1.0
C      1  0.4717970000000  0.4920990000000  0.6102180000000 1.0
C      1  0.5226770000000  0.4960940000000  0.4089440000000 1.0
C      1  0.5033700000000  0.5951800000000  0.4227890000000 1.0
C      1  0.4248580000000  0.5015630000000  0.5962260000000 1.0
C      1  0.5925840000000  0.4267220000000  0.5055260000000 1.0
C      1  0.4998430000000  0.5986310000000  0.5737740000000 1.0
C      1  0.5029330000000  0.4020620000000  0.5791950000000 1.0
C      1  0.4969840000000  0.4044670000000  0.4232920000000 1.0
C      1  0.5706280000000  0.5035650000000  0.4004460000000 1.0
C      1  0.4235040000000  0.4980210000000  0.3987460000000 1.0
C      1  0.5744140000000  0.4984210000000  0.6026920000000 1.0
C      1  0.4086660000000  0.4297000000000  0.4954720000000 1.0
C      1  0.5967610000000  0.5677690000000  0.4991390000000 1.0
C      1  0.4069710000000  0.5725560000000  0.5018370000000 1.0
C      1  0.4270560000000  0.5947820000000  0.5037440000000 1.0
C      1  0.5922110000000  0.5068890000000  0.4216990000000 1.0
C      1  0.5038560000000  0.4237730000000  0.5999930000000 1.0
C      1  0.5750390000000  0.5886380000000  0.4974290000000 1.0
C      1  0.5733870000000  0.4043320000000  0.5032750000000 1.0
C      1  0.4270560000000  0.4063310000000  0.4979880000000 1.0
C      1  0.4032980000000  0.4989570000000  0.5750540000000 1.0
C      1  0.4016790000000  0.4980350000000  0.4191430000000 1.0
C      1  0.5940180000000  0.4952440000000  0.5798600000000 1.0
C      1  0.4955840000000  0.4268630000000  0.4039900000000 1.0
C      1  0.4986240000000  0.5781810000000  0.5964470000000 1.0
C      1  0.4985130000000  0.5768580000000  0.3985430000000 1.0
C      1  0.5446730000000  0.4355160000000  0.5878110000000 1.0
C      1  0.5655480000000  0.5327530000000  0.4454500000000 1.0
C      1  0.4461070000000  0.5748560000000  0.5381770000000 1.0
C      1  0.4620010000000  0.4471290000000  0.4242760000000 1.0
C      1  0.5308190000000  0.5574570000000  0.4240970000000 1.0
C      1  0.4620570000000  0.5598150000000  0.5796930000000 1.0
C      1  0.4294330000000  0.5317160000000  0.5548150000000 1.0
C      1  0.5810440000000  0.4542780000000  0.5700110000000 1.0
C      1  0.4190590000000  0.4627150000000  0.4396050000000 1.0
C      1  0.5549000000000  0.5762320000000  0.4603080000000 1.0
C      1  0.4420430000000  0.4241180000000  0.4604330000000 1.0
C      1  0.5531910000000  0.4296160000000  0.5390010000000 1.0
C      1  0.5800510000000  0.4396490000000  0.5459190000000 1.0
C      1  0.4433420000000  0.5383110000000  0.5801190000000 1.0
C      1  0.5435390000000  0.5804180000000  0.4343570000000 1.0
C      1  0.4177860000000  0.4374990000000  0.4528900000000 1.0
C      1  0.4246820000000  0.5572320000000  0.5432170000000 1.0
C      1  0.5637310000000  0.5479720000000  0.4699360000000 1.0
C      1  0.5422280000000  0.5312390000000  0.4281960000000 1.0
C      1  0.5547550000000  0.4617080000000  0.5819120000000 1.0
C      1  0.4449630000000  0.4714900000000  0.4269220000000 1.0
C      1  0.4709320000000  0.5716670000000  0.5535960000000 1.0
C      1  0.4677320000000  0.4287570000000  0.4465540000000 1.0
C      1  0.5401260000000  0.4206890000000  0.5643030000000 1.0
C      1  0.4441420000000  0.5121500000000  0.5307140000000 1.0
C      1  0.5365120000000  0.4495760000000  0.5158660000000 1.0
C      1  0.4878130000000  0.5206830000000  0.4431440000000 1.0
C      1  0.5422440000000  0.4983140000000  0.4879010000000 1.0
C      1  0.4467810000000  0.4967270000000  0.4759810000000 1.0
C      1  0.5400280000000  0.4992940000000  0.5364140000000 1.0
C      1  0.4832450000000  0.4481990000000  0.4940660000000 1.0
C      1  0.5160450000000  0.5483150000000  0.5025750000000 1.0
C      1  0.4633170000000  0.5441670000000  0.4865080000000 1.0
C      1  0.4962910000000  0.5228540000000  0.5473640000000 1.0
C      1  0.4993160000000  0.4697860000000  0.5490470000000 1.0
C      1  0.5167770000000  0.4609860000000  0.4572070000000 1.0
C      1  0.5169640000000  0.5082180000000  0.4397380000000 1.0
C      1  0.5075360000000  0.4493300000000  0.5255380000000 1.0
C      1  0.4446280000000  0.5228770000000  0.4976990000000 1.0
C      1  0.4792540000000  0.4972370000000  0.5383100000000 1.0
C      1  0.4592350000000  0.5006340000000  0.4456010000000 1.0
C      1  0.5289380000000  0.4814140000000  0.5604770000000 1.0
C      1  0.4940440000000  0.4423440000000  0.4661060000000 1.0
C      1  0.4970610000000  0.5533370000000  0.5374540000000 1.0
C      1  0.4913250000000  0.5345670000000  0.4791840000000 1.0
C      1  0.5472930000000  0.5292320000000  0.4940400000000 1.0
C      1  0.5455640000000  0.4805410000000  0.5124080000000 1.0
C      1  0.4615880000000  0.4698960000000  0.4997750000000 1.0
C      1  0.5500190000000  0.4838180000000  0.4069650000000 1.0
C      1  0.3998470000000  0.5618040000000  0.4763010000000 1.0
C      1  0.4835820000000  0.4049900000000  0.5583730000000 1.0
C      1  0.4472450000000  0.4819030000000  0.5963810000000 1.0
C      1  0.5554560000000  0.5193320000000  0.5997870000000 1.0
C      1  0.4441300000000  0.5182900000000  0.4010700000000 1.0
C      1  0.5944410000000  0.5512380000000  0.5230460000000 1.0
C      1  0.4164070000000  0.4543190000000  0.5092770000000 1.0
C      1  0.5957300000000  0.4457630000000  0.4840940000000 1.0
C      1  0.5205530000000  0.4005650000000  0.4393120000000 1.0
C      1  0.4881280000000  0.5895150000000  0.4470960000000 1.0
C      1  0.5181900000000  0.5936710000000  0.5511190000000 1.0
C      1  0.4087590000000  0.4788350000000  0.5553560000000 1.0
C      1  0.4753420000000  0.5594290000000  0.4011280000000 1.0
C      1  0.5616060000000  0.3994110000000  0.4775310000000 1.0
C      1  0.5926060000000  0.4873920000000  0.4438630000000 1.0
C      1  0.5864170000000  0.5061040000000  0.5536120000000 1.0
C      1  0.3996320000000  0.5194260000000  0.4382190000000 1.0
C      1  0.5152570000000  0.5548070000000  0.5950510000000 1.0
C      1  0.5130540000000  0.4491750000000  0.4092480000000 1.0
C      1  0.4870700000000  0.4475680000000  0.5959270000000 1.0
C      1  0.4469680000000  0.4076710000000  0.5183920000000 1.0
C      1  0.4489570000000  0.5924000000000  0.4848940000000 1.0
C      1  0.5496890000000  0.5828390000000  0.5115190000000 1.0
C      1  0.5627610000000  0.5224400000000  0.5508010000000 1.0
C      1  0.5473000000000  0.5626210000000  0.5303970000000 1.0
C      1  0.5335870000000  0.5539290000000  0.5743840000000 1.0
C      1  0.4213580000000  0.5369840000000  0.4405030000000 1.0
C      1  0.5795930000000  0.4619880000000  0.4404150000000 1.0
C      1  0.4359210000000  0.4728350000000  0.5488170000000 1.0
C      1  0.4496380000000  0.5665800000000  0.4698730000000 1.0
C      1  0.5622930000000  0.4196040000000  0.4578610000000 1.0
C      1  0.4497250000000  0.4305610000000  0.5344140000000 1.0
C      1  0.4634690000000  0.5534760000000  0.4263450000000 1.0
C      1  0.5315300000000  0.4481900000000  0.4328070000000 1.0
C      1  0.4779590000000  0.4540270000000  0.5681040000000 1.0
C      1  0.5527890000000  0.5331160000000  0.5757590000000 1.0
C      1  0.5245200000000  0.5648580000000  0.5486190000000 1.0
C      1  0.5697890000000  0.5476480000000  0.5372750000000 1.0
C      1  0.4467130000000  0.5286580000000  0.4288760000000 1.0
C      1  0.4538980000000  0.4703400000000  0.5706610000000 1.0
C      1  0.5556180000000  0.4628390000000  0.4250500000000 1.0
C      1  0.4651250000000  0.5728960000000  0.4462660000000 1.0
C      1  0.4690930000000  0.4291070000000  0.5552030000000 1.0
C      1  0.5402650000000  0.4208000000000  0.4393540000000 1.0
C      1  0.4224640000000  0.5580410000000  0.4598320000000 1.0
C      1  0.4415150000000  0.4570330000000  0.5241150000000 1.0
C      1  0.5792830000000  0.4424960000000  0.4611430000000 1.0
C      1  0.4719280000000  0.5715750000000  0.6033220000000 1.0
C      1  0.6040150000000  0.4687400000000  0.5780470000000 1.0
C      1  0.5700960000000  0.5976660000000  0.4709340000000 1.0
C      1  0.5220340000000  0.5588600000000  0.3968260000000 1.0
C      1  0.4690500000000  0.4363860000000  0.3987860000000 1.0
C      1  0.5295870000000  0.4293320000000  0.6109650000000 1.0
C      1  0.3950870000000  0.4723230000000  0.4284430000000 1.0
C      1  0.5907060000000  0.5334680000000  0.4317630000000 1.0
C      1  0.4010030000000  0.5237350000000  0.5603860000000 1.0
C      1  0.4373830000000  0.6004510000000  0.5297100000000 1.0
C      1  0.5536240000000  0.4030030000000  0.5256190000000 1.0
C      1  0.4376570000000  0.3989330000000  0.4727480000000 1.0
C      1  0.5938970000000  0.5485900000000  0.4757090000000 1.0
C      1  0.5597440000000  0.4746360000000  0.6071670000000 1.0
C      1  0.4753610000000  0.6003020000000  0.5601480000000 1.0
C      1  0.4025230000000  0.5557800000000  0.5254820000000 1.0
C      1  0.3958780000000  0.4319550000000  0.4699340000000 1.0
C      1  0.6025950000000  0.4323870000000  0.5311860000000 1.0
C      1  0.4379680000000  0.4742310000000  0.3982150000000 1.0
C      1  0.4322140000000  0.5280700000000  0.6039620000000 1.0
C      1  0.5527120000000  0.5272560000000  0.3999130000000 1.0
C      1  0.5304330000000  0.6041420000000  0.4265370000000 1.0
C      1  0.5286370000000  0.3951680000000  0.5689110000000 1.0
C      1  0.4728310000000  0.4014440000000  0.4366530000000 1.0
C      1  0.4821240000000  0.6137160000000  0.5181060000000 1.0
C      1  0.5256750000000  0.4032640000000  0.5141800000000 1.0
C      1  0.5178860000000  0.5291000000000  0.3891530000000 1.0
C      1  0.3923340000000  0.5266370000000  0.5237490000000 1.0
C      1  0.4912850000000  0.4002710000000  0.4861270000000 1.0
C      1  0.5213040000000  0.6047480000000  0.4789740000000 1.0
C      1  0.4825100000000  0.5142400000000  0.5963510000000 1.0
C      1  0.5186160000000  0.4830390000000  0.6079070000000 1.0
C      1  0.4799560000000  0.4824530000000  0.3872970000000 1.0
C      1  0.6022910000000  0.5206690000000  0.4845120000000 1.0
C      1  0.3939970000000  0.4868120000000  0.4805410000000 1.0
C      1  0.6118780000000  0.4797460000000  0.5165780000000 1.0
C      1  0.4768720000000  0.4945130000000  0.5083900000000 1.0
C      1  0.5205260000000  0.4903270000000  0.4663350000000 1.0
C      1  0.5005430000000  0.5081410000000  0.4950040000000 1.0
C      1  0.5169580000000  0.5165940000000  0.5240750000000 1.0
END
