TITL C-3578203-1966-825 9.40136130887572e-08 125000 -77.3939945938816 0 0 16 (C3h) n - 1
REM
REM in /home/bkarasulu/work/CARBON/AIRSS/Generating-Clusters/EDIP-Nigel-Params/with-SteepDescent/Higher-Symm/SD-CG/HFTN-CG
REM
REM
REM
REM
REM
REM ./C.cell (12c818d87b63d06a65506943cc24bca4)
REM
REM compiler GCC version 9.2.1 20190827 (Red Hat 9.2.1-1)
REM options -cpp -mtune=generic -march=x86-64 -g -O0 -fpre-include=/usr/include/finclude/math-vector-fortran.h
REM seed -599842456 1836762760 -1260667129 -1682106425 1808364620 633179385 1970528318 1050734941 -1141472000 856752376 -672720412 -569141708 -1911878977 1621384682 -45123856 1664451232 -1710934520 -1390308856 1864987827 1445131371 -945034957 40689270 753608111 -2096958929 707851159 707215177 -1246871509 -1435647410 -1761145750 1025469719 -117151422 -743462096 -1742595675
REM
CELL 1.54180   50.00000   50.00000   50.00000   90.00000   90.00000   90.00000
LATT -1
SFAC C  
C      1  0.4564040000000  0.5607010000000  0.4964090000000 1.0
C      1  0.4687990000000  0.4332610000000  0.4961620000000 1.0
C      1  0.5729690000000  0.5077150000000  0.4964200000000 1.0
C      1  0.4723520000000  0.5093890000000  0.4963210000000 1.0
C      1  0.5052630000000  0.4727270000000  0.4962800000000 1.0
C      1  0.5205570000000  0.5195610000000  0.4963910000000 1.0
C      1  0.5303680000000  0.4645440000000  0.4962890000000 1.0
C      1  0.5150920000000  0.5453930000000  0.4964380000000 1.0
C      1  0.4527130000000  0.4917400000000  0.4962650000000 1.0
C      1  0.4519320000000  0.4140400000000  0.4961060000000 1.0
C      1  0.5980480000000  0.5027180000000  0.4964360000000 1.0
C      1  0.4481920000000  0.5849190000000  0.4964500000000 1.0
C      1  0.5467060000000  0.5112100000000  0.4964010000000 1.0
C      1  0.4849580000000  0.4542580000000  0.4962210000000 1.0
C      1  0.4665090000000  0.5362100000000  0.4963690000000 1.0
C      1  0.4993910000000  0.5005590000000  0.4963300000000 1.0
END
