TITL C-3578203-1966-647 -5.67356790604875e-06 125000 -1019.9969008483 0 0 165 (C1) n - 1
REM
REM in /home/bkarasulu/work/CARBON/AIRSS/Generating-Clusters/EDIP-Nigel-Params/with-SteepDescent/Higher-Symm/SD-CG/HFTN-CG
REM
REM
REM
REM
REM
REM ./C.cell (12c818d87b63d06a65506943cc24bca4)
REM
REM compiler GCC version 9.2.1 20190827 (Red Hat 9.2.1-1)
REM options -cpp -mtune=generic -march=x86-64 -g -O0 -fpre-include=/usr/include/finclude/math-vector-fortran.h
REM seed 666731304 708848712 -71208280 -296031040 -2026344387 -1224500326 218287766 -1593209284 828386672 1883268296 -1867876925 -2032919428 -2145349487 -2123567089 -943090649 -563675364 690945348 -1516230845 769910734 347445074 -1514054308 -916917476 1536490368 -1363890771 -1985476366 439990280 363327646 1863293903 1030858243 -476249466 1598314880 -808109029 1385476925
REM
CELL 1.54180   50.00000   50.00000   50.00000   90.00000   90.00000   90.00000
LATT -1
SFAC C  
C      1  0.4218660000000  0.4533940000000  0.5810540000000 1.0
C      1  0.5066200000000  0.4390450000000  0.5934920000000 1.0
C      1  0.5769720000000  0.4317800000000  0.5523600000000 1.0
C      1  0.6012130000000  0.4489800000000  0.4735380000000 1.0
C      1  0.5313150000000  0.4382840000000  0.4156900000000 1.0
C      1  0.4542730000000  0.4369990000000  0.4174970000000 1.0
C      1  0.4060670000000  0.4344470000000  0.4861700000000 1.0
C      1  0.5285140000000  0.5530860000000  0.5822300000000 1.0
C      1  0.5658150000000  0.5627030000000  0.5307180000000 1.0
C      1  0.5756730000000  0.5535360000000  0.4639710000000 1.0
C      1  0.5037240000000  0.5439990000000  0.4298040000000 1.0
C      1  0.4555680000000  0.5437140000000  0.4329170000000 1.0
C      1  0.4178310000000  0.5518360000000  0.5072170000000 1.0
C      1  0.4429830000000  0.5540540000000  0.5840740000000 1.0
C      1  0.4629500000000  0.5265750000000  0.4922360000000 1.0
C      1  0.4646130000000  0.5354280000000  0.5206550000000 1.0
C      1  0.4894270000000  0.5233790000000  0.5344790000000 1.0
C      1  0.5154600000000  0.5316890000000  0.5214560000000 1.0
C      1  0.5477500000000  0.5437050000000  0.4737290000000 1.0
C      1  0.5307930000000  0.5374750000000  0.4438210000000 1.0
C      1  0.4871620000000  0.5366150000000  0.4759040000000 1.0
C      1  0.4633970000000  0.4330660000000  0.5686920000000 1.0
C      1  0.5306500000000  0.4465930000000  0.5574130000000 1.0
C      1  0.5598320000000  0.4455000000000  0.5077220000000 1.0
C      1  0.5487250000000  0.4401360000000  0.4603200000000 1.0
C      1  0.4958430000000  0.4565460000000  0.4370440000000 1.0
C      1  0.4414950000000  0.4380230000000  0.4602070000000 1.0
C      1  0.4390410000000  0.4411060000000  0.5259240000000 1.0
C      1  0.4499140000000  0.5708140000000  0.4433040000000 1.0
C      1  0.4339410000000  0.5723380000000  0.5227990000000 1.0
C      1  0.4573750000000  0.5759370000000  0.5716490000000 1.0
C      1  0.5425550000000  0.5749490000000  0.5719620000000 1.0
C      1  0.5685950000000  0.5847130000000  0.5114810000000 1.0
C      1  0.5711530000000  0.5822580000000  0.4566670000000 1.0
C      1  0.4999450000000  0.5739150000000  0.4265010000000 1.0
C      1  0.5397140000000  0.4925600000000  0.4566440000000 1.0
C      1  0.4859510000000  0.4997000000000  0.4399300000000 1.0
C      1  0.4481390000000  0.4841400000000  0.4670060000000 1.0
C      1  0.4446970000000  0.4899650000000  0.5268010000000 1.0
C      1  0.4780410000000  0.4711220000000  0.5523780000000 1.0
C      1  0.5281580000000  0.4893000000000  0.5474350000000 1.0
C      1  0.5588050000000  0.4940950000000  0.5029080000000 1.0
C      1  0.4122330000000  0.4460360000000  0.5133340000000 1.0
C      1  0.4488470000000  0.4523410000000  0.5870280000000 1.0
C      1  0.5341010000000  0.4469150000000  0.5869370000000 1.0
C      1  0.5838500000000  0.4441800000000  0.5267460000000 1.0
C      1  0.5792450000000  0.4548340000000  0.4549730000000 1.0
C      1  0.5040030000000  0.4484340000000  0.4099520000000 1.0
C      1  0.4314050000000  0.4450830000000  0.4328140000000 1.0
C      1  0.4072520000000  0.5279500000000  0.5490340000000 1.0
C      1  0.4851010000000  0.5310110000000  0.5916640000000 1.0
C      1  0.5709150000000  0.5255690000000  0.5809820000000 1.0
C      1  0.5933520000000  0.5358230000000  0.5003490000000 1.0
C      1  0.5681970000000  0.5348640000000  0.4206170000000 1.0
C      1  0.4745500000000  0.5295900000000  0.3955070000000 1.0
C      1  0.4139580000000  0.5309790000000  0.4564090000000 1.0
C      1  0.5664080000000  0.5116170000000  0.5326680000000 1.0
C      1  0.5867190000000  0.5079390000000  0.4594040000000 1.0
C      1  0.5077030000000  0.5001090000000  0.4175510000000 1.0
C      1  0.4348310000000  0.5019440000000  0.4174930000000 1.0
C      1  0.4221410000000  0.5000860000000  0.5088080000000 1.0
C      1  0.4426850000000  0.5033620000000  0.5840860000000 1.0
C      1  0.5283600000000  0.5028280000000  0.5937770000000 1.0
C      1  0.4714800000000  0.6085300000000  0.4898680000000 1.0
C      1  0.4722810000000  0.6183520000000  0.5160140000000 1.0
C      1  0.4946500000000  0.6065960000000  0.5278230000000 1.0
C      1  0.5189110000000  0.6123820000000  0.5153050000000 1.0
C      1  0.5312010000000  0.5999700000000  0.4932120000000 1.0
C      1  0.5162510000000  0.6062610000000  0.4679970000000 1.0
C      1  0.4915040000000  0.6183590000000  0.4730820000000 1.0
C      1  0.4743560000000  0.4349470000000  0.4406370000000 1.0
C      1  0.4348740000000  0.4123570000000  0.4722450000000 1.0
C      1  0.4514060000000  0.4204400000000  0.5437900000000 1.0
C      1  0.4919930000000  0.4291170000000  0.5691190000000 1.0
C      1  0.5468410000000  0.4265490000000  0.5427200000000 1.0
C      1  0.5470950000000  0.4281580000000  0.4880480000000 1.0
C      1  0.5335040000000  0.4203940000000  0.4424070000000 1.0
C      1  0.4602160000000  0.5038170000000  0.4010890000000 1.0
C      1  0.3997670000000  0.5072410000000  0.4621450000000 1.0
C      1  0.4117880000000  0.5026280000000  0.5618020000000 1.0
C      1  0.4991650000000  0.5061810000000  0.5979300000000 1.0
C      1  0.5793420000000  0.5018370000000  0.5674540000000 1.0
C      1  0.6037040000000  0.5100290000000  0.4931760000000 1.0
C      1  0.5628590000000  0.5098550000000  0.4066820000000 1.0
C      1  0.5415620000000  0.5263490000000  0.5807540000000 1.0
C      1  0.5796520000000  0.5372980000000  0.5249610000000 1.0
C      1  0.5855450000000  0.5337730000000  0.4437500000000 1.0
C      1  0.5023420000000  0.5274720000000  0.4042510000000 1.0
C      1  0.4315700000000  0.5268250000000  0.4332330000000 1.0
C      1  0.4140050000000  0.5265920000000  0.5213410000000 1.0
C      1  0.4567330000000  0.5291480000000  0.5865570000000 1.0
C      1  0.5619320000000  0.5132140000000  0.4784480000000 1.0
C      1  0.5344130000000  0.5089160000000  0.4324690000000 1.0
C      1  0.4813630000000  0.5304710000000  0.4457820000000 1.0
C      1  0.4381000000000  0.5091780000000  0.4825780000000 1.0
C      1  0.4487280000000  0.5135170000000  0.5458210000000 1.0
C      1  0.4791040000000  0.5028330000000  0.5594680000000 1.0
C      1  0.5381830000000  0.5179740000000  0.5429850000000 1.0
C      1  0.4827100000000  0.4085670000000  0.4528850000000 1.0
C      1  0.4627040000000  0.4012000000000  0.4752240000000 1.0
C      1  0.4736130000000  0.4048110000000  0.5303890000000 1.0
C      1  0.4989000000000  0.4112510000000  0.5452270000000 1.0
C      1  0.5236850000000  0.4113640000000  0.5275900000000 1.0
C      1  0.5200480000000  0.4176210000000  0.4959230000000 1.0
C      1  0.5113260000000  0.4086660000000  0.4600830000000 1.0
C      1  0.5360560000000  0.5696600000000  0.4990290000000 1.0
C      1  0.5140970000000  0.5794500000000  0.4547570000000 1.0
C      1  0.4923520000000  0.5658540000000  0.4757330000000 1.0
C      1  0.4680350000000  0.5787070000000  0.4881280000000 1.0
C      1  0.4644060000000  0.5671220000000  0.5177520000000 1.0
C      1  0.4913010000000  0.5775340000000  0.5338040000000 1.0
C      1  0.5166570000000  0.5615720000000  0.5222070000000 1.0
C      1  0.4724620000000  0.4810950000000  0.4818670000000 1.0
C      1  0.4702010000000  0.4867740000000  0.5103380000000 1.0
C      1  0.4890990000000  0.4719650000000  0.5251930000000 1.0
C      1  0.5128900000000  0.4873260000000  0.5235810000000 1.0
C      1  0.5299530000000  0.4845200000000  0.5013390000000 1.0
C      1  0.5190730000000  0.4988760000000  0.4788090000000 1.0
C      1  0.4950300000000  0.4886540000000  0.4661760000000 1.0
C      1  0.5058470000000  0.4758940000000  0.5692730000000 1.0
C      1  0.5515450000000  0.4670920000000  0.5436550000000 1.0
C      1  0.5708820000000  0.4669020000000  0.4911670000000 1.0
C      1  0.5279030000000  0.4631810000000  0.4518180000000 1.0
C      1  0.4625620000000  0.4767050000000  0.4353640000000 1.0
C      1  0.4337080000000  0.4604020000000  0.4777410000000 1.0
C      1  0.4416590000000  0.4636530000000  0.5452330000000 1.0
C      1  0.5808440000000  0.4526360000000  0.5713900000000 1.0
C      1  0.6128500000000  0.4650790000000  0.4927140000000 1.0
C      1  0.5460540000000  0.4637420000000  0.4174610000000 1.0
C      1  0.4591650000000  0.4557730000000  0.3976890000000 1.0
C      1  0.3957950000000  0.4580690000000  0.4700700000000 1.0
C      1  0.4061030000000  0.4548320000000  0.5590680000000 1.0
C      1  0.4971870000000  0.4602170000000  0.6083140000000 1.0
C      1  0.4006350000000  0.4795400000000  0.5470270000000 1.0
C      1  0.4830180000000  0.4834970000000  0.6057870000000 1.0
C      1  0.5712400000000  0.4775870000000  0.5809730000000 1.0
C      1  0.6055670000000  0.4859220000000  0.5100250000000 1.0
C      1  0.5673120000000  0.4835100000000  0.4180170000000 1.0
C      1  0.4731860000000  0.4791300000000  0.3923350000000 1.0
C      1  0.4036500000000  0.4808320000000  0.4534530000000 1.0
C      1  0.5021340000000  0.4761060000000  0.3979970000000 1.0
C      1  0.4231730000000  0.4751260000000  0.4313790000000 1.0
C      1  0.4033670000000  0.4758150000000  0.5174090000000 1.0
C      1  0.4586870000000  0.4797910000000  0.5912860000000 1.0
C      1  0.5436820000000  0.4762780000000  0.5921730000000 1.0
C      1  0.5871560000000  0.4740820000000  0.5306900000000 1.0
C      1  0.5808350000000  0.4824680000000  0.4434170000000 1.0
C      1  0.5465730000000  0.5780100000000  0.4413610000000 1.0
C      1  0.4740560000000  0.5783050000000  0.4143820000000 1.0
C      1  0.4439080000000  0.5718550000000  0.4709620000000 1.0
C      1  0.4259880000000  0.5748310000000  0.5507060000000 1.0
C      1  0.4854880000000  0.5735540000000  0.5640930000000 1.0
C      1  0.5667970000000  0.5696120000000  0.5592210000000 1.0
C      1  0.5883060000000  0.5846370000000  0.4907300000000 1.0
C      1  0.5512340000000  0.5589070000000  0.4194370000000 1.0
C      1  0.4631070000000  0.5567480000000  0.3979500000000 1.0
C      1  0.4272580000000  0.5486140000000  0.4790080000000 1.0
C      1  0.4114820000000  0.5527440000000  0.5632920000000 1.0
C      1  0.4999140000000  0.5525390000000  0.5790000000000 1.0
C      1  0.5814180000000  0.5498220000000  0.5726340000000 1.0
C      1  0.6036580000000  0.5602470000000  0.4896960000000 1.0
C      1  0.4773850000000  0.4116270000000  0.5005270000000 1.0
C      1  0.5121290000000  0.5256870000000  0.4897640000000 1.0
C      1  0.4739230000000  0.4402540000000  0.4985400000000 1.0
C      1  0.5018820000000  0.4411190000000  0.4961810000000 1.0
END
