TITL C-3577077-324-319 -9.85113082873232e-08 125000 -997.484388407277 0 0 158 (C1) n - 1
REM
REM in /home/bkarasulu/work/CARBON/AIRSS/Generating-Clusters/EDIP-Nigel-Params/with-SteepDescent/Higher-Symm/SD-CG/HFTN-CG
REM
REM
REM
REM
REM
REM ./C.cell (12c818d87b63d06a65506943cc24bca4)
REM
REM compiler GCC version 9.2.1 20190827 (Red Hat 9.2.1-1)
REM options -cpp -mtune=generic -march=x86-64 -g -O0 -fpre-include=/usr/include/finclude/math-vector-fortran.h
REM seed -372022964 -290964681 1954748200 1627514199 832712523 -1043505025 -12740603 135948999 1111281728 374805779 -1878737865 -1320059022 870514401 -492976406 1904844610 -1975000133 1081660290 -364793972 1354160121 1414635384 -1447580855 1667484593 -450005749 655480298 -679579218 1137502270 -1150772960 569866577 1354473939 -888518027 -131987852 -244043063 -1840994932
REM
CELL 1.54180   50.00000   50.00000   50.00000   90.00000   90.00000   90.00000
LATT -1
SFAC C  
C      1  0.5265730000000  0.4947140000000  0.5570010000000 1.0
C      1  0.5031330000000  0.4724570000000  0.5603250000000 1.0
C      1  0.4736120000000  0.4855230000000  0.5597040000000 1.0
C      1  0.4791560000000  0.5233790000000  0.5521690000000 1.0
C      1  0.5132010000000  0.5255170000000  0.5546690000000 1.0
C      1  0.4925690000000  0.5258080000000  0.5936880000000 1.0
C      1  0.5205650000000  0.5142300000000  0.5959990000000 1.0
C      1  0.5203650000000  0.4839800000000  0.5986770000000 1.0
C      1  0.4904970000000  0.4753610000000  0.5982870000000 1.0
C      1  0.4721790000000  0.5034190000000  0.5978510000000 1.0
C      1  0.4056340000000  0.4840750000000  0.5330820000000 1.0
C      1  0.4546500000000  0.5874730000000  0.5319090000000 1.0
C      1  0.5675740000000  0.5652720000000  0.5320790000000 1.0
C      1  0.5828870000000  0.4551380000000  0.5319800000000 1.0
C      1  0.4870140000000  0.4052950000000  0.5346410000000 1.0
C      1  0.5505070000000  0.4625900000000  0.4348590000000 1.0
C      1  0.4810740000000  0.4410980000000  0.4368940000000 1.0
C      1  0.4392600000000  0.5009590000000  0.4388330000000 1.0
C      1  0.4824420000000  0.5598710000000  0.4396920000000 1.0
C      1  0.5512540000000  0.5348680000000  0.4388760000000 1.0
C      1  0.5146070000000  0.6027710000000  0.4736980000000 1.0
C      1  0.6016180000000  0.5187290000000  0.4744810000000 1.0
C      1  0.5519270000000  0.4097030000000  0.4725570000000 1.0
C      1  0.4314200000000  0.4228040000000  0.4732950000000 1.0
C      1  0.4052020000000  0.5445280000000  0.4733430000000 1.0
C      1  0.4638110000000  0.4163220000000  0.5498170000000 1.0
C      1  0.4097020000000  0.5123990000000  0.5427090000000 1.0
C      1  0.4834280000000  0.5865540000000  0.5396820000000 1.0
C      1  0.5789550000000  0.5435090000000  0.5486790000000 1.0
C      1  0.5661640000000  0.4368620000000  0.5470640000000 1.0
C      1  0.5461130000000  0.5048080000000  0.4266260000000 1.0
C      1  0.5186520000000  0.4580850000000  0.4244230000000 1.0
C      1  0.4668720000000  0.4699890000000  0.4273310000000 1.0
C      1  0.4616740000000  0.5228690000000  0.4303740000000 1.0
C      1  0.5093960000000  0.5443390000000  0.4306310000000 1.0
C      1  0.5863450000000  0.5639410000000  0.4529730000000 1.0
C      1  0.5877500000000  0.4384630000000  0.4517170000000 1.0
C      1  0.4716070000000  0.3979150000000  0.4523730000000 1.0
C      1  0.3935880000000  0.4950630000000  0.4539310000000 1.0
C      1  0.4641460000000  0.6023950000000  0.4530650000000 1.0
C      1  0.4604540000000  0.5523550000000  0.4832690000000 1.0
C      1  0.5351590000000  0.5519200000000  0.4827130000000 1.0
C      1  0.5570100000000  0.4832040000000  0.4816360000000 1.0
C      1  0.5058910000000  0.4430140000000  0.4798170000000 1.0
C      1  0.4477700000000  0.4753050000000  0.4811050000000 1.0
C      1  0.5241240000000  0.5393910000000  0.5292190000000 1.0
C      1  0.5436450000000  0.4886960000000  0.5321890000000 1.0
C      1  0.5043050000000  0.4521170000000  0.5365630000000 1.0
C      1  0.4510060000000  0.4903500000000  0.5225820000000 1.0
C      1  0.4654270000000  0.5392370000000  0.5294730000000 1.0
C      1  0.4628110000000  0.4398830000000  0.5687660000000 1.0
C      1  0.4309130000000  0.5202810000000  0.5643560000000 1.0
C      1  0.4965610000000  0.5698390000000  0.5627040000000 1.0
C      1  0.5652670000000  0.5232050000000  0.5660790000000 1.0
C      1  0.5461080000000  0.4421910000000  0.5679830000000 1.0
C      1  0.5880860000000  0.4494270000000  0.5019060000000 1.0
C      1  0.4843900000000  0.3986800000000  0.5042400000000 1.0
C      1  0.3967590000000  0.4805380000000  0.5029950000000 1.0
C      1  0.4488190000000  0.5970090000000  0.5022180000000 1.0
C      1  0.5763870000000  0.5732270000000  0.5032080000000 1.0
C      1  0.5440130000000  0.5305320000000  0.5857860000000 1.0
C      1  0.5435490000000  0.4698000000000  0.5822350000000 1.0
C      1  0.4838410000000  0.4456910000000  0.5891190000000 1.0
C      1  0.4428580000000  0.5028100000000  0.5862080000000 1.0
C      1  0.4833890000000  0.5532770000000  0.5841870000000 1.0
C      1  0.4164960000000  0.4391400000000  0.4938560000000 1.0
C      1  0.4142290000000  0.5657010000000  0.4920070000000 1.0
C      1  0.5367850000000  0.5987290000000  0.4929530000000 1.0
C      1  0.6025300000000  0.4954860000000  0.4939710000000 1.0
C      1  0.5311540000000  0.4002870000000  0.4939050000000 1.0
C      1  0.5259740000000  0.5713330000000  0.5633580000000 1.0
C      1  0.5758560000000  0.4956740000000  0.5660820000000 1.0
C      1  0.5235290000000  0.4232310000000  0.5683600000000 1.0
C      1  0.4481770000000  0.4660440000000  0.5619890000000 1.0
C      1  0.4370760000000  0.5491750000000  0.5649150000000 1.0
C      1  0.5429670000000  0.4630250000000  0.4660800000000 1.0
C      1  0.4793710000000  0.4473290000000  0.4680820000000 1.0
C      1  0.4400300000000  0.5028170000000  0.4706830000000 1.0
C      1  0.4854740000000  0.5617920000000  0.4715220000000 1.0
C      1  0.5502590000000  0.5303960000000  0.4714120000000 1.0
C      1  0.5806910000000  0.5392470000000  0.4361340000000 1.0
C      1  0.5634210000000  0.4355640000000  0.4340380000000 1.0
C      1  0.4600960000000  0.4201360000000  0.4348330000000 1.0
C      1  0.4125540000000  0.5138600000000  0.4372960000000 1.0
C      1  0.4873080000000  0.5891490000000  0.4363410000000 1.0
C      1  0.5110140000000  0.4676410000000  0.4956860000000 1.0
C      1  0.4684130000000  0.4783680000000  0.5034360000000 1.0
C      1  0.4573940000000  0.5229000000000  0.4880460000000 1.0
C      1  0.5067210000000  0.5423780000000  0.4827170000000 1.0
C      1  0.5393950000000  0.5062150000000  0.4886220000000 1.0
C      1  0.5800080000000  0.4881230000000  0.4365070000000 1.0
C      1  0.5147570000000  0.4208950000000  0.4361920000000 1.0
C      1  0.4300320000000  0.4621060000000  0.4370160000000 1.0
C      1  0.4434760000000  0.5563750000000  0.4379420000000 1.0
C      1  0.5367850000000  0.5710990000000  0.4374150000000 1.0
C      1  0.4163020000000  0.5426240000000  0.4455390000000 1.0
C      1  0.5160830000000  0.5933640000000  0.4451060000000 1.0
C      1  0.5939070000000  0.5140430000000  0.4452570000000 1.0
C      1  0.5439080000000  0.4151060000000  0.4434080000000 1.0
C      1  0.4344560000000  0.4325390000000  0.4443650000000 1.0
C      1  0.5377190000000  0.5674270000000  0.5359760000000 1.0
C      1  0.5750530000000  0.4839500000000  0.5380020000000 1.0
C      1  0.5121410000000  0.4214900000000  0.5403580000000 1.0
C      1  0.4322590000000  0.4696920000000  0.5345480000000 1.0
C      1  0.4426210000000  0.5600050000000  0.5371640000000 1.0
C      1  0.5103680000000  0.4743570000000  0.4495460000000 1.0
C      1  0.4796230000000  0.4828450000000  0.4524380000000 1.0
C      1  0.4797160000000  0.5127430000000  0.4517530000000 1.0
C      1  0.5069970000000  0.5236910000000  0.4531660000000 1.0
C      1  0.5251820000000  0.5003770000000  0.4469380000000 1.0
C      1  0.4330480000000  0.4763780000000  0.5845390000000 1.0
C      1  0.4558030000000  0.5561340000000  0.5839640000000 1.0
C      1  0.5378190000000  0.5574460000000  0.5840510000000 1.0
C      1  0.5692620000000  0.4801630000000  0.5881800000000 1.0
C      1  0.5051390000000  0.4279660000000  0.5886370000000 1.0
C      1  0.4172370000000  0.5551810000000  0.5199370000000 1.0
C      1  0.5257060000000  0.5896700000000  0.5191420000000 1.0
C      1  0.5914560000000  0.5026740000000  0.5205550000000 1.0
C      1  0.5345570000000  0.4140510000000  0.5205680000000 1.0
C      1  0.4310230000000  0.4423310000000  0.5200320000000 1.0
C      1  0.5466400000000  0.4401120000000  0.5138450000000 1.0
C      1  0.4586140000000  0.4327570000000  0.5161560000000 1.0
C      1  0.4177560000000  0.5261190000000  0.5166800000000 1.0
C      1  0.4985360000000  0.5799750000000  0.5146330000000 1.0
C      1  0.5735950000000  0.5250970000000  0.5158710000000 1.0
C      1  0.5103720000000  0.4779360000000  0.4020180000000 1.0
C      1  0.4809660000000  0.4843490000000  0.4037910000000 1.0
C      1  0.4776430000000  0.5144940000000  0.4051410000000 1.0
C      1  0.5053480000000  0.5270340000000  0.4051480000000 1.0
C      1  0.5258350000000  0.5043610000000  0.4028060000000 1.0
C      1  0.4405490000000  0.5745380000000  0.4832600000000 1.0
C      1  0.5527080000000  0.5763960000000  0.4836570000000 1.0
C      1  0.5856710000000  0.4739030000000  0.4839640000000 1.0
C      1  0.5053300000000  0.4111030000000  0.4847660000000 1.0
C      1  0.4171480000000  0.4665280000000  0.4843820000000 1.0
C      1  0.4694230000000  0.6087380000000  0.4839480000000 1.0
C      1  0.5937960000000  0.5571380000000  0.4823760000000 1.0
C      1  0.5859210000000  0.4263310000000  0.4799100000000 1.0
C      1  0.4613830000000  0.3988460000000  0.4810320000000 1.0
C      1  0.3878050000000  0.5022010000000  0.4842560000000 1.0
C      1  0.5926060000000  0.4674670000000  0.4553950000000 1.0
C      1  0.5004770000000  0.4024950000000  0.4559350000000 1.0
C      1  0.4073920000000  0.4686700000000  0.4559910000000 1.0
C      1  0.4416390000000  0.5825520000000  0.4542130000000 1.0
C      1  0.5609630000000  0.5792960000000  0.4548420000000 1.0
C      1  0.4115600000000  0.5191040000000  0.4866680000000 1.0
C      1  0.4914490000000  0.5893690000000  0.4858330000000 1.0
C      1  0.5779450000000  0.5322210000000  0.4864000000000 1.0
C      1  0.5499350000000  0.4387810000000  0.4835280000000 1.0
C      1  0.4589730000000  0.4294000000000  0.4851640000000 1.0
C      1  0.5279510000000  0.4630330000000  0.5193190000000 1.0
C      1  0.4771990000000  0.4547720000000  0.5207110000000 1.0
C      1  0.4469950000000  0.5191360000000  0.5157550000000 1.0
C      1  0.4987200000000  0.5479900000000  0.5133110000000 1.0
C      1  0.5445510000000  0.5151770000000  0.5166310000000 1.0
C      1  0.4882990000000  0.5067530000000  0.5012070000000 1.0
C      1  0.4926830000000  0.5032110000000  0.5310460000000 1.0
C      1  0.5110430000000  0.4956460000000  0.4878790000000 1.0
END
