TITL C-3578195-8548-599 -8.26623360910437e-07 125000 -477.25211202602 0 0 77 (C1) n - 1
REM
REM in /home/bkarasulu/work/CARBON/AIRSS/Generating-Clusters/EDIP-Nigel-Params/with-SteepDescent/Higher-Symm/SD-CG/HFTN-CG
REM
REM
REM
REM
REM
REM ./C.cell (12c818d87b63d06a65506943cc24bca4)
REM
REM compiler GCC version 9.2.1 20190827 (Red Hat 9.2.1-1)
REM options -cpp -mtune=generic -march=x86-64 -g -O0 -fpre-include=/usr/include/finclude/math-vector-fortran.h
REM seed 977945768 -456414453 271003793 1753573604 -1153665842 -214226918 -1380697743 1385872666 960504015 1495173174 320916518 455696906 -1547708443 1988220415 1795240167 171069581 1446492183 1913527678 501281651 2016330443 1922747272 1599005841 668381177 1750273015 187328028 -2051972583 1235449721 -867820955 -1077881231 -1929241092 1449419418 1012000803 524786849
REM
CELL 1.54180   50.00000   50.00000   50.00000   90.00000   90.00000   90.00000
LATT -1
SFAC C  
C      1  0.5238770000000  0.4414540000000  0.4593210000000 1.0
C      1  0.5200570000000  0.5616240000000  0.5364110000000 1.0
C      1  0.4780340000000  0.5590030000000  0.4642600000000 1.0
C      1  0.4741510000000  0.4370380000000  0.5443340000000 1.0
C      1  0.5700620000000  0.4692730000000  0.5295320000000 1.0
C      1  0.5625350000000  0.5140170000000  0.4734090000000 1.0
C      1  0.4477600000000  0.5183370000000  0.5234560000000 1.0
C      1  0.4364000000000  0.4808830000000  0.4743160000000 1.0
C      1  0.5521500000000  0.4892130000000  0.4577500000000 1.0
C      1  0.5453790000000  0.5158290000000  0.5441520000000 1.0
C      1  0.4474540000000  0.5057810000000  0.4602660000000 1.0
C      1  0.4547730000000  0.4887690000000  0.5393110000000 1.0
C      1  0.5127590000000  0.5184160000000  0.5354840000000 1.0
C      1  0.5212460000000  0.4890600000000  0.4593050000000 1.0
C      1  0.4854510000000  0.4786330000000  0.5362520000000 1.0
C      1  0.4888010000000  0.5070690000000  0.4940030000000 1.0
C      1  0.4363590000000  0.4647040000000  0.5327640000000 1.0
C      1  0.4384860000000  0.5324590000000  0.4717940000000 1.0
C      1  0.5621600000000  0.5374660000000  0.5320640000000 1.0
C      1  0.5653950000000  0.4631110000000  0.4672290000000 1.0
C      1  0.4523270000000  0.5193660000000  0.5771630000000 1.0
C      1  0.4571750000000  0.4811700000000  0.4198030000000 1.0
C      1  0.5423150000000  0.4852390000000  0.5792520000000 1.0
C      1  0.5469270000000  0.5172700000000  0.4197530000000 1.0
C      1  0.4573390000000  0.4416170000000  0.4972080000000 1.0
C      1  0.4467950000000  0.5678500000000  0.5039790000000 1.0
C      1  0.5498240000000  0.5588950000000  0.4920450000000 1.0
C      1  0.5471420000000  0.4351820000000  0.5024290000000 1.0
C      1  0.5240720000000  0.5310480000000  0.4286870000000 1.0
C      1  0.5223710000000  0.4716190000000  0.5650760000000 1.0
C      1  0.4799620000000  0.4685170000000  0.4299570000000 1.0
C      1  0.4734900000000  0.5302260000000  0.5626090000000 1.0
C      1  0.5215130000000  0.5300590000000  0.5787270000000 1.0
C      1  0.5312820000000  0.4727340000000  0.4193690000000 1.0
C      1  0.4723200000000  0.4744410000000  0.5799550000000 1.0
C      1  0.4728640000000  0.5262160000000  0.4261960000000 1.0
C      1  0.4511720000000  0.4925040000000  0.5692740000000 1.0
C      1  0.4505240000000  0.5065490000000  0.4300750000000 1.0
C      1  0.5454050000000  0.5126330000000  0.5742100000000 1.0
C      1  0.5528890000000  0.4912690000000  0.4278890000000 1.0
C      1  0.4800190000000  0.4683500000000  0.4601820000000 1.0
C      1  0.4705060000000  0.5518090000000  0.5434290000000 1.0
C      1  0.5286890000000  0.5487210000000  0.4520030000000 1.0
C      1  0.5247960000000  0.4517570000000  0.5433390000000 1.0
C      1  0.4695380000000  0.5510610000000  0.4387900000000 1.0
C      1  0.4692680000000  0.4481850000000  0.5700390000000 1.0
C      1  0.5311210000000  0.4481790000000  0.4328180000000 1.0
C      1  0.5239520000000  0.5541730000000  0.5636430000000 1.0
C      1  0.5496690000000  0.4480550000000  0.5272580000000 1.0
C      1  0.5523890000000  0.5423310000000  0.4692160000000 1.0
C      1  0.4452150000000  0.5546220000000  0.5293330000000 1.0
C      1  0.4551720000000  0.4576980000000  0.4742700000000 1.0
C      1  0.5056130000000  0.5530050000000  0.4696540000000 1.0
C      1  0.4995140000000  0.4430700000000  0.5317910000000 1.0
C      1  0.5083400000000  0.4638340000000  0.4710650000000 1.0
C      1  0.4933550000000  0.5555800000000  0.5258170000000 1.0
C      1  0.5844130000000  0.4820080000000  0.5071340000000 1.0
C      1  0.5749160000000  0.5092040000000  0.4999710000000 1.0
C      1  0.4212550000000  0.5136420000000  0.5078640000000 1.0
C      1  0.4190810000000  0.4860870000000  0.4979000000000 1.0
C      1  0.4132150000000  0.4669120000000  0.5173690000000 1.0
C      1  0.4153110000000  0.5317370000000  0.4871410000000 1.0
C      1  0.5837980000000  0.5301550000000  0.5161720000000 1.0
C      1  0.5868170000000  0.4657370000000  0.4845690000000 1.0
C      1  0.5041950000000  0.4858400000000  0.4245390000000 1.0
C      1  0.4995720000000  0.5159590000000  0.5628500000000 1.0
C      1  0.4995470000000  0.5147650000000  0.4313590000000 1.0
C      1  0.4960000000000  0.4851690000000  0.5640980000000 1.0
C      1  0.5489850000000  0.4397350000000  0.4746480000000 1.0
C      1  0.5438460000000  0.5555360000000  0.5194150000000 1.0
C      1  0.4591800000000  0.5485520000000  0.4853990000000 1.0
C      1  0.4519570000000  0.4411810000000  0.5250020000000 1.0
C      1  0.5382010000000  0.4896510000000  0.5279470000000 1.0
C      1  0.5103870000000  0.5152320000000  0.4735420000000 1.0
C      1  0.4729090000000  0.5299970000000  0.5053840000000 1.0
C      1  0.4767530000000  0.4981810000000  0.4649570000000 1.0
C      1  0.5037620000000  0.4938030000000  0.5178010000000 1.0
END
