TITL C-3577090-796-384 -2.03551969670516e-06 125000 -774.877767811094 0 0 125 (C1) n - 1
REM
REM in /home/bkarasulu/work/CARBON/AIRSS/Generating-Clusters/EDIP-Nigel-Params/with-SteepDescent/Higher-Symm/SD-CG/HFTN-CG
REM
REM
REM
REM
REM
REM ./C.cell (12c818d87b63d06a65506943cc24bca4)
REM
REM compiler GCC version 9.2.1 20190827 (Red Hat 9.2.1-1)
REM options -cpp -mtune=generic -march=x86-64 -g -O0 -fpre-include=/usr/include/finclude/math-vector-fortran.h
REM seed -1533277941 -769969748 744822952 782051637 -1640965839 -483781730 -1423956750 1153434824 1240558919 1606682522 -1008123545 974831919 -1027331910 1579011616 -1412266245 942422544 1651405498 -1440927545 -247143847 -1285451653 -787202244 -1491186817 1306954925 1561724789 -208748516 1310054865 1687017413 -1522519385 -763005903 -1068172565 -1153222566 340298911 977428526
REM
CELL 1.54180   50.00000   50.00000   50.00000   90.00000   90.00000   90.00000
LATT -1
SFAC C  
C      1  0.5402710000000  0.4323330000000  0.4295120000000 1.0
C      1  0.5463190000000  0.5691830000000  0.5692840000000 1.0
C      1  0.5384030000000  0.4250290000000  0.5761840000000 1.0
C      1  0.5358400000000  0.5714550000000  0.4287760000000 1.0
C      1  0.5864150000000  0.5574290000000  0.5169830000000 1.0
C      1  0.5744030000000  0.4392390000000  0.4755680000000 1.0
C      1  0.5857070000000  0.5596000000000  0.4726310000000 1.0
C      1  0.5803200000000  0.4365310000000  0.5274290000000 1.0
C      1  0.4693430000000  0.4165530000000  0.5254810000000 1.0
C      1  0.4783390000000  0.5809820000000  0.4716260000000 1.0
C      1  0.4743660000000  0.4173760000000  0.4762030000000 1.0
C      1  0.4703590000000  0.5780720000000  0.5237490000000 1.0
C      1  0.5869950000000  0.5298150000000  0.4655480000000 1.0
C      1  0.5797890000000  0.4689370000000  0.5360250000000 1.0
C      1  0.5696040000000  0.5327260000000  0.5104920000000 1.0
C      1  0.5760150000000  0.4608850000000  0.4566790000000 1.0
C      1  0.4783790000000  0.5548850000000  0.4266400000000 1.0
C      1  0.4818190000000  0.4399030000000  0.5755700000000 1.0
C      1  0.4819040000000  0.5533440000000  0.5744430000000 1.0
C      1  0.4882390000000  0.4440230000000  0.4283150000000 1.0
C      1  0.4545460000000  0.4597450000000  0.4682460000000 1.0
C      1  0.4503470000000  0.5374630000000  0.5311220000000 1.0
C      1  0.4497580000000  0.4587660000000  0.5352380000000 1.0
C      1  0.4519020000000  0.5357550000000  0.4723790000000 1.0
C      1  0.5432550000000  0.5469340000000  0.5859330000000 1.0
C      1  0.5508670000000  0.4575930000000  0.4204800000000 1.0
C      1  0.5375270000000  0.5546570000000  0.4066540000000 1.0
C      1  0.5472160000000  0.4495140000000  0.5869160000000 1.0
C      1  0.4568890000000  0.4312950000000  0.4568530000000 1.0
C      1  0.4502720000000  0.5657420000000  0.5420350000000 1.0
C      1  0.4514870000000  0.4299580000000  0.5447900000000 1.0
C      1  0.4517120000000  0.5639690000000  0.4603310000000 1.0
C      1  0.4998150000000  0.4520190000000  0.4549300000000 1.0
C      1  0.4951820000000  0.5508190000000  0.5481520000000 1.0
C      1  0.4957080000000  0.4475430000000  0.5498130000000 1.0
C      1  0.4927530000000  0.5498950000000  0.4525900000000 1.0
C      1  0.4555320000000  0.5120840000000  0.5785100000000 1.0
C      1  0.4568580000000  0.4825790000000  0.4219410000000 1.0
C      1  0.4546300000000  0.5133650000000  0.4214020000000 1.0
C      1  0.4548560000000  0.4824800000000  0.5789590000000 1.0
C      1  0.5331830000000  0.4196690000000  0.4546160000000 1.0
C      1  0.5453500000000  0.5740820000000  0.5398950000000 1.0
C      1  0.5371080000000  0.4142560000000  0.5496440000000 1.0
C      1  0.5358150000000  0.5820640000000  0.4598140000000 1.0
C      1  0.4424090000000  0.5123840000000  0.4515050000000 1.0
C      1  0.4377040000000  0.4772610000000  0.5551680000000 1.0
C      1  0.4409820000000  0.5149750000000  0.5515400000000 1.0
C      1  0.4414990000000  0.4786690000000  0.4489430000000 1.0
C      1  0.5602390000000  0.5159640000000  0.5352170000000 1.0
C      1  0.5635110000000  0.4871420000000  0.4631040000000 1.0
C      1  0.5636290000000  0.5160570000000  0.4499370000000 1.0
C      1  0.5586820000000  0.4880750000000  0.5493000000000 1.0
C      1  0.5407230000000  0.5309030000000  0.4632520000000 1.0
C      1  0.5332730000000  0.4751460000000  0.5391580000000 1.0
C      1  0.5312860000000  0.5188710000000  0.5338130000000 1.0
C      1  0.5351800000000  0.4833150000000  0.4674320000000 1.0
C      1  0.5056980000000  0.5109990000000  0.5843260000000 1.0
C      1  0.5087300000000  0.4875430000000  0.4180570000000 1.0
C      1  0.5055210000000  0.5156580000000  0.4163460000000 1.0
C      1  0.5060160000000  0.4823650000000  0.5870030000000 1.0
C      1  0.5103100000000  0.5798660000000  0.4777100000000 1.0
C      1  0.5126590000000  0.4025960000000  0.5425960000000 1.0
C      1  0.4951580000000  0.5868200000000  0.5359340000000 1.0
C      1  0.5030420000000  0.4288990000000  0.4755510000000 1.0
C      1  0.4848200000000  0.4705370000000  0.4166580000000 1.0
C      1  0.4812320000000  0.5266580000000  0.5860780000000 1.0
C      1  0.4801160000000  0.4674380000000  0.5865410000000 1.0
C      1  0.4797350000000  0.5285890000000  0.4155300000000 1.0
C      1  0.5168850000000  0.5614310000000  0.4999710000000 1.0
C      1  0.4983670000000  0.4245460000000  0.5298450000000 1.0
C      1  0.5200200000000  0.5782150000000  0.5244230000000 1.0
C      1  0.5164990000000  0.4358310000000  0.5049250000000 1.0
C      1  0.5529730000000  0.4234920000000  0.5270660000000 1.0
C      1  0.5605510000000  0.5759200000000  0.4765740000000 1.0
C      1  0.5496700000000  0.4248990000000  0.4775990000000 1.0
C      1  0.5696110000000  0.5804580000000  0.5235500000000 1.0
C      1  0.4802100000000  0.5303970000000  0.5306050000000 1.0
C      1  0.4824380000000  0.4733870000000  0.4666350000000 1.0
C      1  0.4813300000000  0.5267620000000  0.4705870000000 1.0
C      1  0.4777400000000  0.4710130000000  0.5364800000000 1.0
C      1  0.5349250000000  0.4751730000000  0.5932810000000 1.0
C      1  0.5313970000000  0.5277210000000  0.4105400000000 1.0
C      1  0.5377720000000  0.4827240000000  0.4128590000000 1.0
C      1  0.5335720000000  0.5201180000000  0.5869020000000 1.0
C      1  0.5264360000000  0.4625390000000  0.4498680000000 1.0
C      1  0.5240200000000  0.5425530000000  0.5502290000000 1.0
C      1  0.5231730000000  0.4552350000000  0.5570190000000 1.0
C      1  0.5236050000000  0.5498870000000  0.4480680000000 1.0
C      1  0.4649960000000  0.4287180000000  0.4300460000000 1.0
C      1  0.4571790000000  0.5657450000000  0.5695200000000 1.0
C      1  0.4577420000000  0.4262500000000  0.5719410000000 1.0
C      1  0.4522570000000  0.5639230000000  0.4319820000000 1.0
C      1  0.6033100000000  0.5639210000000  0.4948520000000 1.0
C      1  0.5898170000000  0.4360600000000  0.4994230000000 1.0
C      1  0.3888700000000  0.5286790000000  0.4952130000000 1.0
C      1  0.3931530000000  0.4774370000000  0.4953970000000 1.0
C      1  0.4616920000000  0.5865170000000  0.4970650000000 1.0
C      1  0.4577010000000  0.4194740000000  0.4996600000000 1.0
C      1  0.5228980000000  0.5175840000000  0.5052310000000 1.0
C      1  0.5341650000000  0.4659370000000  0.5112770000000 1.0
C      1  0.4098200000000  0.5472040000000  0.5002180000000 1.0
C      1  0.4112850000000  0.4564720000000  0.4989420000000 1.0
C      1  0.4060930000000  0.4293700000000  0.4957810000000 1.0
C      1  0.4094740000000  0.5742290000000  0.4946350000000 1.0
C      1  0.5524400000000  0.5084140000000  0.4157360000000 1.0
C      1  0.5519530000000  0.4972930000000  0.5842470000000 1.0
C      1  0.5637710000000  0.5928410000000  0.4987980000000 1.0
C      1  0.5456690000000  0.4111670000000  0.5022480000000 1.0
C      1  0.4366350000000  0.5344250000000  0.5020750000000 1.0
C      1  0.4406000000000  0.4600790000000  0.5012250000000 1.0
C      1  0.4338520000000  0.5857490000000  0.4938140000000 1.0
C      1  0.4299560000000  0.4163820000000  0.4969950000000 1.0
C      1  0.5417980000000  0.5386650000000  0.4924010000000 1.0
C      1  0.5651560000000  0.4683740000000  0.5076260000000 1.0
C      1  0.4800420000000  0.5031170000000  0.5491280000000 1.0
C      1  0.4802400000000  0.5000090000000  0.4492470000000 1.0
C      1  0.4942520000000  0.4801590000000  0.4921340000000 1.0
C      1  0.4945610000000  0.5295290000000  0.5017700000000 1.0
C      1  0.4287510000000  0.5072140000000  0.5037590000000 1.0
C      1  0.5222860000000  0.4874180000000  0.4937010000000 1.0
C      1  0.5863310000000  0.5161020000000  0.4924790000000 1.0
C      1  0.4763480000000  0.4907840000000  0.5116950000000 1.0
C      1  0.4488720000000  0.4881000000000  0.5016580000000 1.0
C      1  0.4021500000000  0.5037130000000  0.4955110000000 1.0
C      1  0.5733210000000  0.4906730000000  0.4894680000000 1.0
END
