TITL C-3578200-9634-511 1.94349304323024e-06 125000 -480.781276720532 0 0 79 (C1) n - 1
REM
REM in /home/bkarasulu/work/CARBON/AIRSS/Generating-Clusters/EDIP-Nigel-Params/with-SteepDescent/Higher-Symm/SD-CG/HFTN-CG
REM
REM
REM
REM
REM
REM ./C.cell (12c818d87b63d06a65506943cc24bca4)
REM
REM compiler GCC version 9.2.1 20190827 (Red Hat 9.2.1-1)
REM options -cpp -mtune=generic -march=x86-64 -g -O0 -fpre-include=/usr/include/finclude/math-vector-fortran.h
REM seed 1613042761 -2064098899 -1386084409 -312270567 2129738380 -1006808600 1008642924 -1969273194 -1448795139 2093661792 1739706898 706886160 1327282406 -1783145233 -622333035 -1313888114 1113546361 517537753 -1763145629 -198814931 1153226654 -884240231 2114279716 -810957969 1307837955 -388891995 721817514 520947909 1840517687 2063993425 -1281360600 -1600602183 -293476772
REM
CELL 1.54180   50.00000   50.00000   50.00000   90.00000   90.00000   90.00000
LATT -1
SFAC C  
C      1  0.5497020000000  0.4346170000000  0.5423380000000 1.0
C      1  0.5530180000000  0.4933350000000  0.4213400000000 1.0
C      1  0.5492300000000  0.5671650000000  0.5337330000000 1.0
C      1  0.4457450000000  0.5308760000000  0.4450330000000 1.0
C      1  0.4435080000000  0.5327770000000  0.5568100000000 1.0
C      1  0.4449010000000  0.4368890000000  0.5015960000000 1.0
C      1  0.4867550000000  0.4173580000000  0.5111620000000 1.0
C      1  0.4889130000000  0.5287250000000  0.4165450000000 1.0
C      1  0.4865970000000  0.5516800000000  0.5677490000000 1.0
C      1  0.5157440000000  0.5248390000000  0.4232920000000 1.0
C      1  0.5094640000000  0.5439100000000  0.5522100000000 1.0
C      1  0.5101520000000  0.4339660000000  0.5122270000000 1.0
C      1  0.4354490000000  0.5420140000000  0.5286380000000 1.0
C      1  0.4363410000000  0.4558790000000  0.5234180000000 1.0
C      1  0.4364480000000  0.5027730000000  0.4505960000000 1.0
C      1  0.4764040000000  0.4740660000000  0.5222370000000 1.0
C      1  0.4765810000000  0.4960260000000  0.4669940000000 1.0
C      1  0.4737020000000  0.5237250000000  0.5159840000000 1.0
C      1  0.5054210000000  0.4978590000000  0.5677320000000 1.0
C      1  0.5057210000000  0.4440280000000  0.4649880000000 1.0
C      1  0.5014300000000  0.5602260000000  0.4700740000000 1.0
C      1  0.5414320000000  0.5793590000000  0.4865720000000 1.0
C      1  0.5433770000000  0.4696970000000  0.5792970000000 1.0
C      1  0.5428420000000  0.4448520000000  0.4353800000000 1.0
C      1  0.5522990000000  0.4609030000000  0.4566850000000 1.0
C      1  0.5478930000000  0.5511660000000  0.4899440000000 1.0
C      1  0.5534290000000  0.4803900000000  0.5552240000000 1.0
C      1  0.4786220000000  0.4344110000000  0.4666200000000 1.0
C      1  0.4742970000000  0.5658710000000  0.4630700000000 1.0
C      1  0.4782410000000  0.5038050000000  0.5758460000000 1.0
C      1  0.5598360000000  0.4597470000000  0.5350780000000 1.0
C      1  0.5607100000000  0.4874730000000  0.4476250000000 1.0
C      1  0.5608200000000  0.5479390000000  0.5171330000000 1.0
C      1  0.5017530000000  0.5262670000000  0.5271980000000 1.0
C      1  0.5035350000000  0.4643180000000  0.5084130000000 1.0
C      1  0.5048560000000  0.5118970000000  0.4632930000000 1.0
C      1  0.5217260000000  0.5681770000000  0.5390560000000 1.0
C      1  0.5217180000000  0.4327480000000  0.5401760000000 1.0
C      1  0.5249970000000  0.4969600000000  0.4228360000000 1.0
C      1  0.4604900000000  0.4766920000000  0.4865900000000 1.0
C      1  0.4593770000000  0.5246630000000  0.4880990000000 1.0
C      1  0.4595220000000  0.4995420000000  0.5299530000000 1.0
C      1  0.4754850000000  0.5753220000000  0.5206820000000 1.0
C      1  0.4762490000000  0.4476340000000  0.5557560000000 1.0
C      1  0.4776070000000  0.4794230000000  0.4270800000000 1.0
C      1  0.5256550000000  0.4827380000000  0.5213010000000 1.0
C      1  0.5262280000000  0.4921990000000  0.4734980000000 1.0
C      1  0.5222700000000  0.5300190000000  0.5040460000000 1.0
C      1  0.4521520000000  0.4857830000000  0.4341330000000 1.0
C      1  0.4505040000000  0.5651510000000  0.5221360000000 1.0
C      1  0.4507410000000  0.4495850000000  0.5468440000000 1.0
C      1  0.4597600000000  0.5512550000000  0.5706190000000 1.0
C      1  0.4598850000000  0.4146370000000  0.5102790000000 1.0
C      1  0.4632160000000  0.5330200000000  0.4231350000000 1.0
C      1  0.5149060000000  0.4487850000000  0.4364680000000 1.0
C      1  0.5136940000000  0.5793290000000  0.4895580000000 1.0
C      1  0.5155040000000  0.4702010000000  0.5757250000000 1.0
C      1  0.5042910000000  0.4485490000000  0.5587270000000 1.0
C      1  0.5052680000000  0.4747530000000  0.4257700000000 1.0
C      1  0.5033670000000  0.5765270000000  0.5171370000000 1.0
C      1  0.5515680000000  0.5365230000000  0.4626370000000 1.0
C      1  0.5476350000000  0.5088320000000  0.5497520000000 1.0
C      1  0.5501180000000  0.4498440000000  0.4841540000000 1.0
C      1  0.5263270000000  0.4315630000000  0.4858490000000 1.0
C      1  0.5256600000000  0.5409700000000  0.4471440000000 1.0
C      1  0.5262590000000  0.5216630000000  0.5665980000000 1.0
C      1  0.4312280000000  0.5220310000000  0.5044320000000 1.0
C      1  0.4327470000000  0.4864190000000  0.5183530000000 1.0
C      1  0.4332360000000  0.4920560000000  0.4798780000000 1.0
C      1  0.5034970000000  0.4708710000000  0.4788770000000 1.0
C      1  0.5020070000000  0.5334450000000  0.4831590000000 1.0
C      1  0.5032690000000  0.4977760000000  0.5373070000000 1.0
C      1  0.4543860000000  0.5467780000000  0.4682170000000 1.0
C      1  0.4556110000000  0.5057490000000  0.5589110000000 1.0
C      1  0.4569130000000  0.4487270000000  0.4776590000000 1.0
C      1  0.5603660000000  0.5229930000000  0.5291800000000 1.0
C      1  0.5576630000000  0.4663230000000  0.5070500000000 1.0
C      1  0.5602700000000  0.5092550000000  0.4662330000000 1.0
C      1  0.5333360000000  0.5025810000000  0.5004620000000 1.0
END
