TITL C-3577088-510-185 -7.45346983207176e-07 125000 -966.188579747943 0 0 152 (C1) n - 1
REM
REM in /home/bkarasulu/work/CARBON/AIRSS/Generating-Clusters/EDIP-Nigel-Params/with-SteepDescent/Higher-Symm/SD-CG/HFTN-CG
REM
REM
REM
REM
REM
REM ./C.cell (12c818d87b63d06a65506943cc24bca4)
REM
REM compiler GCC version 9.2.1 20190827 (Red Hat 9.2.1-1)
REM options -cpp -mtune=generic -march=x86-64 -g -O0 -fpre-include=/usr/include/finclude/math-vector-fortran.h
REM seed -239044643 1057146885 -896617573 556824808 1261513811 -594320235 511437430 417195662 915647683 1197242748 -7789056 -614054805 -1568044459 943770311 -791349981 2140332977 692122224 1159275370 -77782779 2023462530 -1700267259 1370086502 587126390 977086448 868756965 -1208948907 319117715 1560809126 823267824 -987967070 1082825062 -1510501909 -1835701489
REM
CELL 1.54180   50.00000   50.00000   50.00000   90.00000   90.00000   90.00000
LATT -1
SFAC C  
C      1  0.5186600000000  0.5184540000000  0.4535420000000 1.0
C      1  0.5191360000000  0.5311130000000  0.5387790000000 1.0
C      1  0.5174740000000  0.4499060000000  0.5061540000000 1.0
C      1  0.4824190000000  0.5185100000000  0.4551300000000 1.0
C      1  0.4824650000000  0.5303340000000  0.5376980000000 1.0
C      1  0.4850830000000  0.4562180000000  0.5059100000000 1.0
C      1  0.6044950000000  0.5093410000000  0.5270910000000 1.0
C      1  0.6040250000000  0.4707520000000  0.4932910000000 1.0
C      1  0.6044210000000  0.5195250000000  0.4770520000000 1.0
C      1  0.3958890000000  0.5062370000000  0.5285330000000 1.0
C      1  0.3970430000000  0.4710290000000  0.4913820000000 1.0
C      1  0.3958070000000  0.5208830000000  0.4794720000000 1.0
C      1  0.5572750000000  0.4716510000000  0.5746110000000 1.0
C      1  0.5578460000000  0.4538110000000  0.4358900000000 1.0
C      1  0.5569460000000  0.5790530000000  0.4868270000000 1.0
C      1  0.4419000000000  0.4644600000000  0.5697550000000 1.0
C      1  0.4431400000000  0.4578480000000  0.4343520000000 1.0
C      1  0.4412030000000  0.5777560000000  0.4963340000000 1.0
C      1  0.5119440000000  0.5558760000000  0.4872680000000 1.0
C      1  0.5122820000000  0.4833360000000  0.5549570000000 1.0
C      1  0.5137750000000  0.4628200000000  0.4562540000000 1.0
C      1  0.4842120000000  0.5587520000000  0.4803310000000 1.0
C      1  0.4846230000000  0.4882370000000  0.5610880000000 1.0
C      1  0.4861600000000  0.4543130000000  0.4589310000000 1.0
C      1  0.5417560000000  0.5729480000000  0.4368620000000 1.0
C      1  0.5431980000000  0.5189620000000  0.5942540000000 1.0
C      1  0.5358780000000  0.4091640000000  0.4704680000000 1.0
C      1  0.4677850000000  0.5713680000000  0.4472160000000 1.0
C      1  0.4680450000000  0.5108250000000  0.5883000000000 1.0
C      1  0.4705560000000  0.4190140000000  0.4659570000000 1.0
C      1  0.5557900000000  0.5032660000000  0.4233600000000 1.0
C      1  0.5565150000000  0.5650450000000  0.5396800000000 1.0
C      1  0.5550730000000  0.4332080000000  0.5351210000000 1.0
C      1  0.4453520000000  0.5100110000000  0.4238700000000 1.0
C      1  0.4446830000000  0.5605990000000  0.5464250000000 1.0
C      1  0.4469050000000  0.4304770000000  0.5300290000000 1.0
C      1  0.5193780000000  0.4100700000000  0.5592340000000 1.0
C      1  0.5194620000000  0.4971190000000  0.3928560000000 1.0
C      1  0.5185200000000  0.5932940000000  0.5504770000000 1.0
C      1  0.4806820000000  0.4101850000000  0.5584930000000 1.0
C      1  0.4810120000000  0.4966550000000  0.3938650000000 1.0
C      1  0.4799430000000  0.5935470000000  0.5504770000000 1.0
C      1  0.5867070000000  0.4576060000000  0.5144260000000 1.0
C      1  0.5871840000000  0.5075950000000  0.4554510000000 1.0
C      1  0.5874160000000  0.5343750000000  0.5274540000000 1.0
C      1  0.4144570000000  0.4560280000000  0.5111060000000 1.0
C      1  0.4130250000000  0.5118840000000  0.4562150000000 1.0
C      1  0.4127410000000  0.5311380000000  0.5321790000000 1.0
C      1  0.4030550000000  0.5491430000000  0.4873430000000 1.0
C      1  0.4036510000000  0.4855120000000  0.5490340000000 1.0
C      1  0.4048070000000  0.4638010000000  0.4631680000000 1.0
C      1  0.5961920000000  0.5482170000000  0.4818140000000 1.0
C      1  0.5962140000000  0.4905990000000  0.5493770000000 1.0
C      1  0.5968440000000  0.4608850000000  0.4655470000000 1.0
C      1  0.4385670000000  0.5150550000000  0.5753710000000 1.0
C      1  0.4409930000000  0.4275350000000  0.4753230000000 1.0
C      1  0.4384770000000  0.5577980000000  0.4492910000000 1.0
C      1  0.5604350000000  0.5234300000000  0.5692170000000 1.0
C      1  0.5611320000000  0.4253130000000  0.4813180000000 1.0
C      1  0.5594700000000  0.5491940000000  0.4446130000000 1.0
C      1  0.5730570000000  0.5777920000000  0.5144810000000 1.0
C      1  0.5720890000000  0.4479880000000  0.5586230000000 1.0
C      1  0.5734950000000  0.4761260000000  0.4237900000000 1.0
C      1  0.4272970000000  0.5747120000000  0.5229290000000 1.0
C      1  0.4286950000000  0.4424900000000  0.5538000000000 1.0
C      1  0.4287240000000  0.4820980000000  0.4233720000000 1.0
C      1  0.4855800000000  0.4369900000000  0.5686900000000 1.0
C      1  0.4865780000000  0.4734620000000  0.4106450000000 1.0
C      1  0.4849000000000  0.5901970000000  0.5218710000000 1.0
C      1  0.5140730000000  0.4362600000000  0.5712840000000 1.0
C      1  0.5151740000000  0.4720520000000  0.4079590000000 1.0
C      1  0.5134910000000  0.5917470000000  0.5216130000000 1.0
C      1  0.5363850000000  0.5738300000000  0.5612780000000 1.0
C      1  0.5349280000000  0.4102470000000  0.5354180000000 1.0
C      1  0.5357890000000  0.5172090000000  0.4049410000000 1.0
C      1  0.4675390000000  0.5716990000000  0.5638590000000 1.0
C      1  0.4681470000000  0.4086690000000  0.5329990000000 1.0
C      1  0.4682730000000  0.5193860000000  0.4055930000000 1.0
C      1  0.4409390000000  0.4726100000000  0.5115060000000 1.0
C      1  0.4396720000000  0.5038400000000  0.4701300000000 1.0
C      1  0.4394370000000  0.5236680000000  0.5179670000000 1.0
C      1  0.5596960000000  0.4731020000000  0.5126450000000 1.0
C      1  0.5599020000000  0.5010680000000  0.4696710000000 1.0
C      1  0.5600320000000  0.5249480000000  0.5155740000000 1.0
C      1  0.4719790000000  0.4062980000000  0.4399830000000 1.0
C      1  0.4685840000000  0.6001910000000  0.4501990000000 1.0
C      1  0.4691730000000  0.4943340000000  0.6121440000000 1.0
C      1  0.5295750000000  0.4095790000000  0.4430710000000 1.0
C      1  0.5450880000000  0.5935940000000  0.4579780000000 1.0
C      1  0.5465780000000  0.4905140000000  0.6021070000000 1.0
C      1  0.4038560000000  0.5556430000000  0.5170410000000 1.0
C      1  0.4052470000000  0.4565920000000  0.5398150000000 1.0
C      1  0.4050540000000  0.4861620000000  0.4425900000000 1.0
C      1  0.5956560000000  0.5577330000000  0.5102410000000 1.0
C      1  0.5948790000000  0.4610760000000  0.5432710000000 1.0
C      1  0.5965020000000  0.4815470000000  0.4435010000000 1.0
C      1  0.4321050000000  0.4908960000000  0.5577720000000 1.0
C      1  0.4336350000000  0.4545370000000  0.4632520000000 1.0
C      1  0.4316430000000  0.5544040000000  0.4788790000000 1.0
C      1  0.5676480000000  0.4964960000000  0.5570430000000 1.0
C      1  0.5682600000000  0.4511370000000  0.4654220000000 1.0
C      1  0.5673140000000  0.5516470000000  0.4737140000000 1.0
C      1  0.5140850000000  0.3931670000000  0.4822150000000 1.0
C      1  0.5144520000000  0.5730340000000  0.4247520000000 1.0
C      1  0.5153820000000  0.5287580000000  0.5999100000000 1.0
C      1  0.4854610000000  0.4021700000000  0.4861010000000 1.0
C      1  0.4866990000000  0.5623530000000  0.4259910000000 1.0
C      1  0.4876140000000  0.5332900000000  0.5899980000000 1.0
C      1  0.5536900000000  0.5268710000000  0.4855140000000 1.0
C      1  0.5537090000000  0.4984370000000  0.5298450000000 1.0
C      1  0.5545900000000  0.4733000000000  0.4824080000000 1.0
C      1  0.4459570000000  0.5281590000000  0.4873990000000 1.0
C      1  0.4464110000000  0.4967980000000  0.5306960000000 1.0
C      1  0.4472120000000  0.4755930000000  0.4817310000000 1.0
C      1  0.5217970000000  0.5352000000000  0.4261610000000 1.0
C      1  0.5228350000000  0.5464710000000  0.5666170000000 1.0
C      1  0.5190780000000  0.4181420000000  0.5101050000000 1.0
C      1  0.4877890000000  0.5331340000000  0.4253850000000 1.0
C      1  0.4878330000000  0.5483810000000  0.5648570000000 1.0
C      1  0.4873190000000  0.4174060000000  0.5110100000000 1.0
C      1  0.4588650000000  0.5435980000000  0.5271780000000 1.0
C      1  0.4616530000000  0.4554380000000  0.5235500000000 1.0
C      1  0.4593940000000  0.5023760000000  0.4483700000000 1.0
C      1  0.5403100000000  0.5451940000000  0.5238940000000 1.0
C      1  0.5387710000000  0.4565670000000  0.5257450000000 1.0
C      1  0.5394380000000  0.4980710000000  0.4484470000000 1.0
C      1  0.5138390000000  0.4742320000000  0.6006400000000 1.0
C      1  0.5155700000000  0.4270000000000  0.4263070000000 1.0
C      1  0.5127910000000  0.6005790000000  0.4739850000000 1.0
C      1  0.4834940000000  0.4721490000000  0.6023900000000 1.0
C      1  0.4850310000000  0.4261570000000  0.4248940000000 1.0
C      1  0.4825350000000  0.6026280000000  0.4745220000000 1.0
C      1  0.5257530000000  0.5020540000000  0.5376290000000 1.0
C      1  0.5271610000000  0.4639950000000  0.4813890000000 1.0
C      1  0.5256190000000  0.5317830000000  0.4791780000000 1.0
C      1  0.4745440000000  0.5012900000000  0.5375860000000 1.0
C      1  0.4760140000000  0.4698590000000  0.4811710000000 1.0
C      1  0.4742580000000  0.5320010000000  0.4808050000000 1.0
C      1  0.5252120000000  0.4646100000000  0.5735740000000 1.0
C      1  0.5270710000000  0.4547160000000  0.4306730000000 1.0
C      1  0.5246110000000  0.5812330000000  0.4950090000000 1.0
C      1  0.4719860000000  0.4632080000000  0.5753060000000 1.0
C      1  0.4733080000000  0.4543050000000  0.4302360000000 1.0
C      1  0.4713580000000  0.5831580000000  0.4954480000000 1.0
C      1  0.5755050000000  0.5451580000000  0.5544880000000 1.0
C      1  0.5737150000000  0.4287850000000  0.5093250000000 1.0
C      1  0.5745800000000  0.5258920000000  0.4330550000000 1.0
C      1  0.4264240000000  0.5390430000000  0.5608520000000 1.0
C      1  0.4288760000000  0.4276470000000  0.5035430000000 1.0
C      1  0.4267360000000  0.5331720000000  0.4352740000000 1.0
C      1  0.6047240000000  0.4997990000000  0.4991520000000 1.0
C      1  0.3964570000000  0.4993810000000  0.4997730000000 1.0
END
