TITL C-3578199-7832-701 -1.69801375648759e-06 125000 -835.936284308124 0 0 135 (C1) n - 1
REM
REM in /home/bkarasulu/work/CARBON/AIRSS/Generating-Clusters/EDIP-Nigel-Params/with-SteepDescent/Higher-Symm/SD-CG/HFTN-CG
REM
REM
REM
REM
REM
REM ./C.cell (12c818d87b63d06a65506943cc24bca4)
REM
REM compiler GCC version 9.2.1 20190827 (Red Hat 9.2.1-1)
REM options -cpp -mtune=generic -march=x86-64 -g -O0 -fpre-include=/usr/include/finclude/math-vector-fortran.h
REM seed -1824306066 1183529178 -917745720 -1392893070 664579492 -2095424777 1829055894 -496971936 -1709141223 2034659728 1248271729 829083463 10128546 -1760804042 856689934 2005389441 1992382510 -1872335982 1864983433 1732433354 1406055988 -313695428 -599715023 -66276932 1016934128 -2087001160 -24667796 -659851332 -1770577307 116244170 -617432912 833250647 -1905462786
REM
CELL 1.54180   50.00000   50.00000   50.00000   90.00000   90.00000   90.00000
LATT -1
SFAC C  
C      1  0.4743110000000  0.4833320000000  0.5420790000000 1.0
C      1  0.4745780000000  0.5146210000000  0.5456020000000 1.0
C      1  0.4693920000000  0.5401750000000  0.5248330000000 1.0
C      1  0.4758820000000  0.5502270000000  0.4948700000000 1.0
C      1  0.4744390000000  0.5350690000000  0.4672150000000 1.0
C      1  0.4744260000000  0.5015280000000  0.4477220000000 1.0
C      1  0.4770180000000  0.4734670000000  0.4548020000000 1.0
C      1  0.4730030000000  0.4459210000000  0.4892330000000 1.0
C      1  0.4724410000000  0.4528240000000  0.5171750000000 1.0
C      1  0.4375980000000  0.5629660000000  0.4688810000000 1.0
C      1  0.4378770000000  0.5276560000000  0.4359120000000 1.0
C      1  0.4365260000000  0.4791800000000  0.4321050000000 1.0
C      1  0.4382110000000  0.4417690000000  0.4618850000000 1.0
C      1  0.4344120000000  0.4279060000000  0.5082830000000 1.0
C      1  0.4383880000000  0.4520290000000  0.5499660000000 1.0
C      1  0.4380100000000  0.4957820000000  0.5689310000000 1.0
C      1  0.4363270000000  0.5419500000000  0.5565110000000 1.0
C      1  0.4360340000000  0.5691260000000  0.5159100000000 1.0
C      1  0.4240080000000  0.4635350000000  0.4762710000000 1.0
C      1  0.4196360000000  0.4542560000000  0.5049940000000 1.0
C      1  0.4229970000000  0.4694500000000  0.5312290000000 1.0
C      1  0.4221280000000  0.4972590000000  0.5435890000000 1.0
C      1  0.4213720000000  0.5265340000000  0.5354840000000 1.0
C      1  0.4211710000000  0.5436870000000  0.5099910000000 1.0
C      1  0.4223410000000  0.5397530000000  0.4800560000000 1.0
C      1  0.4233730000000  0.5171500000000  0.4597190000000 1.0
C      1  0.4213400000000  0.4868800000000  0.4569850000000 1.0
C      1  0.4558300000000  0.4719680000000  0.5644780000000 1.0
C      1  0.4546020000000  0.5208520000000  0.5687270000000 1.0
C      1  0.4521440000000  0.5610550000000  0.5395320000000 1.0
C      1  0.4545630000000  0.5729920000000  0.4919760000000 1.0
C      1  0.4547220000000  0.5498770000000  0.4481620000000 1.0
C      1  0.4533480000000  0.5036320000000  0.4259470000000 1.0
C      1  0.4553570000000  0.4568630000000  0.4414330000000 1.0
C      1  0.4520790000000  0.4261020000000  0.4835490000000 1.0
C      1  0.4533590000000  0.4337840000000  0.5314840000000 1.0
C      1  0.4942020000000  0.3878750000000  0.5100700000000 1.0
C      1  0.4952340000000  0.4207680000000  0.5782970000000 1.0
C      1  0.5032840000000  0.4949360000000  0.6087220000000 1.0
C      1  0.4817850000000  0.5699560000000  0.5953860000000 1.0
C      1  0.4943880000000  0.6098360000000  0.5303780000000 1.0
C      1  0.5015630000000  0.5977250000000  0.4490030000000 1.0
C      1  0.4775930000000  0.5477620000000  0.3907360000000 1.0
C      1  0.5026360000000  0.4662210000000  0.3972000000000 1.0
C      1  0.4810830000000  0.4004780000000  0.4365080000000 1.0
C      1  0.5893450000000  0.4777260000000  0.5465470000000 1.0
C      1  0.5882880000000  0.5084000000000  0.5478500000000 1.0
C      1  0.5883210000000  0.5389330000000  0.5263510000000 1.0
C      1  0.5843060000000  0.5499220000000  0.4981560000000 1.0
C      1  0.5859630000000  0.5358900000000  0.4714880000000 1.0
C      1  0.5844470000000  0.5024360000000  0.4548980000000 1.0
C      1  0.5835420000000  0.4728300000000  0.4593020000000 1.0
C      1  0.5864000000000  0.4567390000000  0.4850350000000 1.0
C      1  0.5897780000000  0.4585800000000  0.5221900000000 1.0
C      1  0.5555510000000  0.4903190000000  0.5852150000000 1.0
C      1  0.5595240000000  0.5459690000000  0.5691730000000 1.0
C      1  0.5546990000000  0.5797280000000  0.5267460000000 1.0
C      1  0.5539970000000  0.5768200000000  0.4673470000000 1.0
C      1  0.5572230000000  0.5361450000000  0.4281810000000 1.0
C      1  0.5516730000000  0.4814820000000  0.4197390000000 1.0
C      1  0.5558250000000  0.4318380000000  0.4521960000000 1.0
C      1  0.5572500000000  0.4183250000000  0.5047710000000 1.0
C      1  0.5570330000000  0.4384800000000  0.5568460000000 1.0
C      1  0.5016590000000  0.5353530000000  0.4564690000000 1.0
C      1  0.5012900000000  0.5115120000000  0.4409230000000 1.0
C      1  0.5049310000000  0.4634320000000  0.4588210000000 1.0
C      1  0.5016750000000  0.4444660000000  0.4821280000000 1.0
C      1  0.5038490000000  0.4517370000000  0.5201840000000 1.0
C      1  0.5021160000000  0.4728530000000  0.5423270000000 1.0
C      1  0.5022820000000  0.5235280000000  0.5490310000000 1.0
C      1  0.5057200000000  0.5498820000000  0.5355180000000 1.0
C      1  0.5069030000000  0.5563250000000  0.5042400000000 1.0
C      1  0.5220100000000  0.4833840000000  0.4140840000000 1.0
C      1  0.5282540000000  0.4238840000000  0.4478370000000 1.0
C      1  0.5279900000000  0.4096120000000  0.5043160000000 1.0
C      1  0.5274630000000  0.4325130000000  0.5593110000000 1.0
C      1  0.5247120000000  0.4897380000000  0.5854050000000 1.0
C      1  0.5312490000000  0.5512830000000  0.5760000000000 1.0
C      1  0.5269450000000  0.5893800000000  0.5343460000000 1.0
C      1  0.5243420000000  0.5841230000000  0.4670710000000 1.0
C      1  0.5298270000000  0.5418080000000  0.4185850000000 1.0
C      1  0.4688020000000  0.6100330000000  0.5408380000000 1.0
C      1  0.4773500000000  0.6046650000000  0.4614800000000 1.0
C      1  0.4590570000000  0.5646600000000  0.4006880000000 1.0
C      1  0.4783540000000  0.4786510000000  0.3910920000000 1.0
C      1  0.4611660000000  0.4112070000000  0.4216100000000 1.0
C      1  0.4691610000000  0.3809330000000  0.5008750000000 1.0
C      1  0.4701540000000  0.4102540000000  0.5729590000000 1.0
C      1  0.4782100000000  0.4822240000000  0.6082280000000 1.0
C      1  0.4625260000000  0.5538580000000  0.6053830000000 1.0
C      1  0.4689500000000  0.6001420000000  0.4877340000000 1.0
C      1  0.4663520000000  0.5698660000000  0.4273440000000 1.0
C      1  0.4664880000000  0.5027430000000  0.3980070000000 1.0
C      1  0.4669900000000  0.4385980000000  0.4190400000000 1.0
C      1  0.4644540000000  0.3979140000000  0.4789430000000 1.0
C      1  0.4682190000000  0.4102010000000  0.5448720000000 1.0
C      1  0.4702190000000  0.4622770000000  0.5901970000000 1.0
C      1  0.4679920000000  0.5279500000000  0.5958800000000 1.0
C      1  0.4660910000000  0.5852620000000  0.5538480000000 1.0
C      1  0.5151640000000  0.4253890000000  0.5306590000000 1.0
C      1  0.5144120000000  0.4641030000000  0.5683020000000 1.0
C      1  0.5158570000000  0.5241150000000  0.5753370000000 1.0
C      1  0.5147990000000  0.5699030000000  0.5561240000000 1.0
C      1  0.5153600000000  0.5846740000000  0.4975910000000 1.0
C      1  0.5147990000000  0.5572020000000  0.4412750000000 1.0
C      1  0.5118350000000  0.5160160000000  0.4134090000000 1.0
C      1  0.5158500000000  0.4489150000000  0.4342180000000 1.0
C      1  0.5123070000000  0.4169490000000  0.4738840000000 1.0
C      1  0.4947720000000  0.4038140000000  0.5332750000000 1.0
C      1  0.4957760000000  0.4482860000000  0.5857070000000 1.0
C      1  0.4973430000000  0.5220130000000  0.5995490000000 1.0
C      1  0.4896430000000  0.5802410000000  0.5706870000000 1.0
C      1  0.4945510000000  0.6047330000000  0.5024810000000 1.0
C      1  0.4953270000000  0.5773640000000  0.4287280000000 1.0
C      1  0.4879110000000  0.5221640000000  0.3946170000000 1.0
C      1  0.4962060000000  0.4414270000000  0.4118390000000 1.0
C      1  0.4890180000000  0.3989630000000  0.4631970000000 1.0
C      1  0.5642470000000  0.5149310000000  0.5664750000000 1.0
C      1  0.5629120000000  0.5515860000000  0.5390220000000 1.0
C      1  0.5583230000000  0.5674210000000  0.4975630000000 1.0
C      1  0.5610340000000  0.5474100000000  0.4575030000000 1.0
C      1  0.5596840000000  0.5065950000000  0.4373640000000 1.0
C      1  0.5581980000000  0.4624670000000  0.4442980000000 1.0
C      1  0.5615680000000  0.4385760000000  0.4819570000000 1.0
C      1  0.5640830000000  0.4412040000000  0.5265740000000 1.0
C      1  0.5637700000000  0.4691980000000  0.5624860000000 1.0
C      1  0.5333480000000  0.4754430000000  0.4651650000000 1.0
C      1  0.5423080000000  0.4605580000000  0.4890810000000 1.0
C      1  0.5461230000000  0.4641300000000  0.5174670000000 1.0
C      1  0.5453640000000  0.4807810000000  0.5413500000000 1.0
C      1  0.5439520000000  0.5096590000000  0.5446530000000 1.0
C      1  0.5447200000000  0.5315290000000  0.5250600000000 1.0
C      1  0.5351580000000  0.5437680000000  0.4995210000000 1.0
C      1  0.5420230000000  0.5304090000000  0.4737090000000 1.0
C      1  0.5403230000000  0.5045410000000  0.4604090000000 1.0
END
