TITL C-3577090-796-621 -1.52351679346051e-06 125000 -906.172877079275 0 0 147 (C1) n - 1
REM
REM in /home/bkarasulu/work/CARBON/AIRSS/Generating-Clusters/EDIP-Nigel-Params/with-SteepDescent/Higher-Symm/SD-CG/HFTN-CG
REM
REM
REM
REM
REM
REM ./C.cell (12c818d87b63d06a65506943cc24bca4)
REM
REM compiler GCC version 9.2.1 20190827 (Red Hat 9.2.1-1)
REM options -cpp -mtune=generic -march=x86-64 -g -O0 -fpre-include=/usr/include/finclude/math-vector-fortran.h
REM seed -980248939 1659320495 -2076848885 339850603 -1557948862 296632308 940191413 -1805528899 1573398264 1560177275 1188442865 1337700981 -1178585058 -70679898 1833156950 -1285057487 -1125252638 -276922688 733964169 -263537196 -554485026 -1452941092 -264251174 -1621726792 -314598669 1845073650 235738188 1573000993 -1763382726 1565419358 -880247712 -2094739074 -1483925988
REM
CELL 1.54180   50.00000   50.00000   50.00000   90.00000   90.00000   90.00000
LATT -1
SFAC C  
C      1  0.6011170000000  0.4926220000000  0.4695070000000 1.0
C      1  0.5678430000000  0.5755420000000  0.4696910000000 1.0
C      1  0.4824420000000  0.6012390000000  0.4710900000000 1.0
C      1  0.4095510000000  0.5502160000000  0.4707780000000 1.0
C      1  0.4078970000000  0.4599300000000  0.4697070000000 1.0
C      1  0.4711510000000  0.4112800000000  0.4782180000000 1.0
C      1  0.5515870000000  0.4186850000000  0.4679350000000 1.0
C      1  0.5596070000000  0.4139190000000  0.4963350000000 1.0
C      1  0.6057960000000  0.4934460000000  0.4986200000000 1.0
C      1  0.5702040000000  0.5794510000000  0.4989010000000 1.0
C      1  0.4811400000000  0.6047750000000  0.5000940000000 1.0
C      1  0.4055570000000  0.5503520000000  0.5002720000000 1.0
C      1  0.4014860000000  0.4581470000000  0.4986700000000 1.0
C      1  0.4751850000000  0.4024640000000  0.5062570000000 1.0
C      1  0.5018260000000  0.3977160000000  0.5164880000000 1.0
C      1  0.5611950000000  0.4382790000000  0.5134230000000 1.0
C      1  0.5870000000000  0.5108840000000  0.5135760000000 1.0
C      1  0.5450260000000  0.5747380000000  0.5139700000000 1.0
C      1  0.4687610000000  0.5821760000000  0.5151070000000 1.0
C      1  0.4157130000000  0.5259570000000  0.5137520000000 1.0
C      1  0.4249650000000  0.4540140000000  0.5163470000000 1.0
C      1  0.4914450000000  0.4099810000000  0.5663210000000 1.0
C      1  0.5597640000000  0.4391430000000  0.5657060000000 1.0
C      1  0.5828570000000  0.5086180000000  0.5623050000000 1.0
C      1  0.5444470000000  0.5714490000000  0.5628840000000 1.0
C      1  0.4715300000000  0.5781470000000  0.5635960000000 1.0
C      1  0.4198140000000  0.5262020000000  0.5628810000000 1.0
C      1  0.4292210000000  0.4537690000000  0.5644640000000 1.0
C      1  0.4612850000000  0.5927660000000  0.5415540000000 1.0
C      1  0.4027880000000  0.5239490000000  0.5401850000000 1.0
C      1  0.4156300000000  0.4434720000000  0.5422760000000 1.0
C      1  0.5042260000000  0.3938980000000  0.5449230000000 1.0
C      1  0.5704870000000  0.4293810000000  0.5404140000000 1.0
C      1  0.5991250000000  0.5158230000000  0.5399910000000 1.0
C      1  0.5484420000000  0.5880730000000  0.5400200000000 1.0
C      1  0.5289710000000  0.5259610000000  0.4842400000000 1.0
C      1  0.4968350000000  0.5396260000000  0.4827020000000 1.0
C      1  0.4661270000000  0.5235460000000  0.4832660000000 1.0
C      1  0.4566290000000  0.4901280000000  0.4833030000000 1.0
C      1  0.4944340000000  0.4587040000000  0.4916060000000 1.0
C      1  0.5238900000000  0.4614580000000  0.4853630000000 1.0
C      1  0.5398480000000  0.4925580000000  0.4815770000000 1.0
C      1  0.4750600000000  0.4347940000000  0.5618010000000 1.0
C      1  0.5308200000000  0.4403100000000  0.5694000000000 1.0
C      1  0.5627610000000  0.4887270000000  0.5535420000000 1.0
C      1  0.5482330000000  0.5432060000000  0.5554430000000 1.0
C      1  0.4956830000000  0.5638500000000  0.5548180000000 1.0
C      1  0.4464570000000  0.5359740000000  0.5552840000000 1.0
C      1  0.4388080000000  0.4804560000000  0.5566980000000 1.0
C      1  0.5430600000000  0.5839650000000  0.4549470000000 1.0
C      1  0.4605980000000  0.5877290000000  0.4570560000000 1.0
C      1  0.4075910000000  0.5251860000000  0.4540560000000 1.0
C      1  0.4296210000000  0.4423950000000  0.4583300000000 1.0
C      1  0.4954020000000  0.4108840000000  0.4620720000000 1.0
C      1  0.5720350000000  0.4360430000000  0.4536350000000 1.0
C      1  0.5931140000000  0.5173730000000  0.4548730000000 1.0
C      1  0.4085680000000  0.4990220000000  0.4683320000000 1.0
C      1  0.4524150000000  0.4363980000000  0.4777780000000 1.0
C      1  0.5197180000000  0.3980690000000  0.4704640000000 1.0
C      1  0.5796950000000  0.4603470000000  0.4699050000000 1.0
C      1  0.5790480000000  0.5384970000000  0.4710690000000 1.0
C      1  0.5179470000000  0.5863100000000  0.4707550000000 1.0
C      1  0.4426990000000  0.5700420000000  0.4728880000000 1.0
C      1  0.4466740000000  0.4315110000000  0.5629240000000 1.0
C      1  0.5185320000000  0.4153730000000  0.5742220000000 1.0
C      1  0.5742160000000  0.4630200000000  0.5596020000000 1.0
C      1  0.5752420000000  0.5360550000000  0.5627160000000 1.0
C      1  0.5176760000000  0.5810800000000  0.5624510000000 1.0
C      1  0.4470810000000  0.5638050000000  0.5630680000000 1.0
C      1  0.4175420000000  0.4981890000000  0.5652170000000 1.0
C      1  0.4658930000000  0.5176810000000  0.6075980000000 1.0
C      1  0.4654320000000  0.4893530000000  0.6015680000000 1.0
C      1  0.4871430000000  0.4763500000000  0.6132500000000 1.0
C      1  0.5135270000000  0.4734660000000  0.6048500000000 1.0
C      1  0.5286770000000  0.4980900000000  0.6054450000000 1.0
C      1  0.5170890000000  0.5243050000000  0.6074710000000 1.0
C      1  0.4897550000000  0.5337840000000  0.6057370000000 1.0
C      1  0.5833840000000  0.5371860000000  0.4999670000000 1.0
C      1  0.5219520000000  0.5876960000000  0.4999970000000 1.0
C      1  0.4436760000000  0.5729370000000  0.5018750000000 1.0
C      1  0.4070740000000  0.5019070000000  0.4978960000000 1.0
C      1  0.4417250000000  0.4337250000000  0.5049150000000 1.0
C      1  0.5224990000000  0.3895310000000  0.4979300000000 1.0
C      1  0.5805910000000  0.4570370000000  0.4996850000000 1.0
C      1  0.5895090000000  0.5624850000000  0.5106840000000 1.0
C      1  0.5067490000000  0.6085110000000  0.5114500000000 1.0
C      1  0.4179260000000  0.5722510000000  0.5131550000000 1.0
C      1  0.3899580000000  0.4820640000000  0.5083430000000 1.0
C      1  0.4600360000000  0.4208330000000  0.5223730000000 1.0
C      1  0.5487900000000  0.3905000000000  0.5074420000000 1.0
C      1  0.6041410000000  0.4679180000000  0.5106680000000 1.0
C      1  0.4961720000000  0.5323970000000  0.3889520000000 1.0
C      1  0.4732490000000  0.5189120000000  0.3797790000000 1.0
C      1  0.4708300000000  0.4925620000000  0.3893500000000 1.0
C      1  0.4913640000000  0.4760990000000  0.3797650000000 1.0
C      1  0.5176730000000  0.4724760000000  0.3888920000000 1.0
C      1  0.5342390000000  0.4987890000000  0.3884130000000 1.0
C      1  0.5195960000000  0.5207860000000  0.3788990000000 1.0
C      1  0.5276050000000  0.5244440000000  0.5703780000000 1.0
C      1  0.4978830000000  0.5358580000000  0.5690900000000 1.0
C      1  0.4698690000000  0.5195480000000  0.5693940000000 1.0
C      1  0.4656550000000  0.4865270000000  0.5716280000000 1.0
C      1  0.4868530000000  0.4633250000000  0.5635650000000 1.0
C      1  0.5160900000000  0.4659070000000  0.5760490000000 1.0
C      1  0.5345350000000  0.4930870000000  0.5675390000000 1.0
C      1  0.4806940000000  0.4546760000000  0.4457370000000 1.0
C      1  0.5352600000000  0.4512880000000  0.4347500000000 1.0
C      1  0.5624570000000  0.4944320000000  0.4326540000000 1.0
C      1  0.5415220000000  0.5433370000000  0.4372930000000 1.0
C      1  0.4941160000000  0.5621370000000  0.4309540000000 1.0
C      1  0.4483610000000  0.5352940000000  0.4363580000000 1.0
C      1  0.4422820000000  0.4803480000000  0.4313120000000 1.0
C      1  0.5185420000000  0.4722980000000  0.4203940000000 1.0
C      1  0.5354280000000  0.4989350000000  0.4198320000000 1.0
C      1  0.5216680000000  0.5233140000000  0.4305930000000 1.0
C      1  0.4961430000000  0.5346410000000  0.4193190000000 1.0
C      1  0.4721930000000  0.5197240000000  0.4298590000000 1.0
C      1  0.4682880000000  0.4921420000000  0.4196560000000 1.0
C      1  0.4909950000000  0.4768340000000  0.4316390000000 1.0
C      1  0.4968150000000  0.4311370000000  0.4424460000000 1.0
C      1  0.5618290000000  0.4443940000000  0.4285910000000 1.0
C      1  0.5829860000000  0.5130600000000  0.4288540000000 1.0
C      1  0.5376160000000  0.5704960000000  0.4306090000000 1.0
C      1  0.4689530000000  0.5745010000000  0.4336230000000 1.0
C      1  0.4231400000000  0.5243500000000  0.4304220000000 1.0
C      1  0.4383300000000  0.4522590000000  0.4332060000000 1.0
C      1  0.5603160000000  0.4933760000000  0.5148550000000 1.0
C      1  0.5426180000000  0.5427700000000  0.5164960000000 1.0
C      1  0.4918520000000  0.5596860000000  0.5160030000000 1.0
C      1  0.4474400000000  0.5312910000000  0.5163780000000 1.0
C      1  0.4409260000000  0.4812330000000  0.5176650000000 1.0
C      1  0.4877520000000  0.4462690000000  0.5170500000000 1.0
C      1  0.5326930000000  0.4506450000000  0.5127250000000 1.0
C      1  0.4711840000000  0.5156110000000  0.5256260000000 1.0
C      1  0.4691900000000  0.4876400000000  0.5254440000000 1.0
C      1  0.4910850000000  0.4690390000000  0.5348580000000 1.0
C      1  0.5209990000000  0.4717070000000  0.5316010000000 1.0
C      1  0.5318310000000  0.4969530000000  0.5237500000000 1.0
C      1  0.5219710000000  0.5235210000000  0.5267330000000 1.0
C      1  0.4946490000000  0.5315890000000  0.5252400000000 1.0
C      1  0.4974690000000  0.5643320000000  0.4620360000000 1.0
C      1  0.4468870000000  0.5405120000000  0.4652240000000 1.0
C      1  0.4353040000000  0.4856720000000  0.4610520000000 1.0
C      1  0.4712940000000  0.4609380000000  0.4739710000000 1.0
C      1  0.5284470000000  0.4400100000000  0.4622880000000 1.0
C      1  0.5634520000000  0.4863490000000  0.4617320000000 1.0
C      1  0.5487470000000  0.5418360000000  0.4655230000000 1.0
END
