TITL C-3577085-527-278 5.52411640938049e-07 125000 -834.712503409684 0 0 132 (C1) n - 1
REM
REM in /home/bkarasulu/work/CARBON/AIRSS/Generating-Clusters/EDIP-Nigel-Params/with-SteepDescent/Higher-Symm/SD-CG/HFTN-CG
REM
REM
REM
REM
REM
REM ./C.cell (12c818d87b63d06a65506943cc24bca4)
REM
REM compiler GCC version 9.2.1 20190827 (Red Hat 9.2.1-1)
REM options -cpp -mtune=generic -march=x86-64 -g -O0 -fpre-include=/usr/include/finclude/math-vector-fortran.h
REM seed 508797835 2004165189 -1040334814 663331742 -1319460327 -1148944995 -640350398 -1847887714 1813026578 1878665290 -69296340 -1933654113 -2078699357 -1411138487 -1264219590 1077128157 1549144378 -1876244157 107078222 -904079084 -949447884 -1184729330 1437881716 -2015227170 -36713303 -154749373 -1525021756 1470533281 1966706716 -1927566300 -1794950255 -554961755 957850
REM
CELL 1.54180   50.00000   50.00000   50.00000   90.00000   90.00000   90.00000
LATT -1
SFAC C  
C      1  0.5056730000000  0.4402470000000  0.4625030000000 1.0
C      1  0.5143720000000  0.5789070000000  0.4350570000000 1.0
C      1  0.4648900000000  0.5620790000000  0.4510510000000 1.0
C      1  0.4115130000000  0.4956970000000  0.4460560000000 1.0
C      1  0.5088060000000  0.4370950000000  0.4966950000000 1.0
C      1  0.4929100000000  0.4079530000000  0.5356630000000 1.0
C      1  0.5410460000000  0.5306910000000  0.5375810000000 1.0
C      1  0.5332750000000  0.3944870000000  0.4920170000000 1.0
C      1  0.4912600000000  0.3925750000000  0.4705010000000 1.0
C      1  0.5508010000000  0.5146410000000  0.4241580000000 1.0
C      1  0.5189270000000  0.3951790000000  0.4676920000000 1.0
C      1  0.4602720000000  0.5491380000000  0.4222550000000 1.0
C      1  0.4923920000000  0.5172050000000  0.5342270000000 1.0
C      1  0.4664140000000  0.4540610000000  0.4861000000000 1.0
C      1  0.5716960000000  0.5223110000000  0.5674470000000 1.0
C      1  0.4277960000000  0.5683190000000  0.5023970000000 1.0
C      1  0.5728020000000  0.5039160000000  0.5218730000000 1.0
C      1  0.5615650000000  0.4707540000000  0.5564310000000 1.0
C      1  0.4616030000000  0.5017460000000  0.5346350000000 1.0
C      1  0.5465810000000  0.5440630000000  0.4258780000000 1.0
C      1  0.5598260000000  0.4806560000000  0.5057970000000 1.0
C      1  0.4969440000000  0.5757780000000  0.4592120000000 1.0
C      1  0.6010820000000  0.5129820000000  0.4836720000000 1.0
C      1  0.4750790000000  0.5230500000000  0.4172330000000 1.0
C      1  0.4207520000000  0.4672120000000  0.4469610000000 1.0
C      1  0.5118410000000  0.5518630000000  0.4718660000000 1.0
C      1  0.5748360000000  0.4972470000000  0.5503240000000 1.0
C      1  0.4721010000000  0.4063580000000  0.4851190000000 1.0
C      1  0.5229980000000  0.4541220000000  0.5844450000000 1.0
C      1  0.4514550000000  0.5378000000000  0.5698210000000 1.0
C      1  0.4565450000000  0.4297860000000  0.4720150000000 1.0
C      1  0.4261420000000  0.5603410000000  0.4524560000000 1.0
C      1  0.5063020000000  0.4455830000000  0.5604470000000 1.0
C      1  0.4053650000000  0.5274020000000  0.4900530000000 1.0
C      1  0.6084950000000  0.4860590000000  0.4801510000000 1.0
C      1  0.4476570000000  0.5183320000000  0.4629270000000 1.0
C      1  0.4476000000000  0.4269180000000  0.5157710000000 1.0
C      1  0.5375400000000  0.5086540000000  0.4694350000000 1.0
C      1  0.5348320000000  0.4806290000000  0.5226200000000 1.0
C      1  0.4284980000000  0.4301250000000  0.4822280000000 1.0
C      1  0.5922080000000  0.4657900000000  0.4699090000000 1.0
C      1  0.5025500000000  0.5876440000000  0.5083550000000 1.0
C      1  0.5434010000000  0.4743040000000  0.5786220000000 1.0
C      1  0.4069080000000  0.4759980000000  0.4924120000000 1.0
C      1  0.5835820000000  0.4526700000000  0.5168730000000 1.0
C      1  0.4161580000000  0.5534130000000  0.4793430000000 1.0
C      1  0.5955850000000  0.5200920000000  0.5122610000000 1.0
C      1  0.5410730000000  0.5841980000000  0.4503480000000 1.0
C      1  0.5543660000000  0.5843870000000  0.5002180000000 1.0
C      1  0.5620280000000  0.4483900000000  0.5357000000000 1.0
C      1  0.4682560000000  0.5748750000000  0.5427320000000 1.0
C      1  0.5587020000000  0.4527820000000  0.4356580000000 1.0
C      1  0.4687800000000  0.5375000000000  0.4689320000000 1.0
C      1  0.4142680000000  0.4566080000000  0.5402510000000 1.0
C      1  0.5365480000000  0.5969580000000  0.4770880000000 1.0
C      1  0.5469570000000  0.4809100000000  0.4738660000000 1.0
C      1  0.4845220000000  0.4207510000000  0.5088850000000 1.0
C      1  0.5021770000000  0.4926810000000  0.5898640000000 1.0
C      1  0.5646070000000  0.5560420000000  0.4984150000000 1.0
C      1  0.5462410000000  0.5547810000000  0.4542990000000 1.0
C      1  0.4999090000000  0.5459190000000  0.5670260000000 1.0
C      1  0.4535800000000  0.5797840000000  0.4970350000000 1.0
C      1  0.5037190000000  0.5118470000000  0.5039640000000 1.0
C      1  0.5691800000000  0.4754980000000  0.4531930000000 1.0
C      1  0.5055830000000  0.4674910000000  0.6025350000000 1.0
C      1  0.5237320000000  0.5052480000000  0.4332650000000 1.0
C      1  0.5175280000000  0.4749940000000  0.4308470000000 1.0
C      1  0.4569370000000  0.4548020000000  0.5132630000000 1.0
C      1  0.4777810000000  0.5262910000000  0.5746640000000 1.0
C      1  0.5462530000000  0.5889040000000  0.5283880000000 1.0
C      1  0.5175120000000  0.5519760000000  0.4207880000000 1.0
C      1  0.4970950000000  0.4648710000000  0.5387920000000 1.0
C      1  0.4132690000000  0.4540050000000  0.4736520000000 1.0
C      1  0.4880650000000  0.4394620000000  0.4366550000000 1.0
C      1  0.5383810000000  0.5420530000000  0.5090400000000 1.0
C      1  0.5160450000000  0.4691730000000  0.4600340000000 1.0
C      1  0.4113230000000  0.5028400000000  0.5347160000000 1.0
C      1  0.5539810000000  0.5706160000000  0.5507940000000 1.0
C      1  0.4506170000000  0.4680760000000  0.4416590000000 1.0
C      1  0.4629770000000  0.4771100000000  0.4687010000000 1.0
C      1  0.4685890000000  0.4710680000000  0.5362180000000 1.0
C      1  0.5444930000000  0.5237690000000  0.5815600000000 1.0
C      1  0.5064010000000  0.5974080000000  0.4803640000000 1.0
C      1  0.5115260000000  0.5577090000000  0.5028860000000 1.0
C      1  0.5698380000000  0.5483990000000  0.4700740000000 1.0
C      1  0.4631410000000  0.5426250000000  0.4989960000000 1.0
C      1  0.4874790000000  0.5449010000000  0.5169960000000 1.0
C      1  0.4927930000000  0.4883260000000  0.4685650000000 1.0
C      1  0.4967660000000  0.5258480000000  0.4626600000000 1.0
C      1  0.4952210000000  0.4858400000000  0.4977910000000 1.0
C      1  0.4709570000000  0.4145510000000  0.5565940000000 1.0
C      1  0.5097500000000  0.5932170000000  0.5557490000000 1.0
C      1  0.5556030000000  0.4357920000000  0.4818550000000 1.0
C      1  0.5311140000000  0.5461550000000  0.5654560000000 1.0
C      1  0.4967650000000  0.4600800000000  0.4184390000000 1.0
C      1  0.5360410000000  0.4221290000000  0.5002390000000 1.0
C      1  0.5246950000000  0.4193850000000  0.4512250000000 1.0
C      1  0.4072680000000  0.4768690000000  0.5221640000000 1.0
C      1  0.4909610000000  0.5731560000000  0.5608260000000 1.0
C      1  0.5736600000000  0.5044350000000  0.4418180000000 1.0
C      1  0.5521340000000  0.4299120000000  0.4538410000000 1.0
C      1  0.5104700000000  0.4658010000000  0.5125780000000 1.0
C      1  0.4200980000000  0.5246460000000  0.5161520000000 1.0
C      1  0.5370560000000  0.4593650000000  0.4183670000000 1.0
C      1  0.4598370000000  0.4387950000000  0.4424630000000 1.0
C      1  0.5019020000000  0.5270200000000  0.4318230000000 1.0
C      1  0.4431860000000  0.4979580000000  0.4828560000000 1.0
C      1  0.4482590000000  0.5154930000000  0.5082680000000 1.0
C      1  0.5797160000000  0.5215740000000  0.4659010000000 1.0
C      1  0.4438080000000  0.4209900000000  0.5450550000000 1.0
C      1  0.4349680000000  0.5134340000000  0.4374460000000 1.0
C      1  0.5317310000000  0.5162080000000  0.4964830000000 1.0
C      1  0.5247030000000  0.5042870000000  0.5422230000000 1.0
C      1  0.5179080000000  0.4212780000000  0.5469510000000 1.0
C      1  0.5811990000000  0.4464450000000  0.4892520000000 1.0
C      1  0.5867860000000  0.5481250000000  0.5182770000000 1.0
C      1  0.4791520000000  0.4395040000000  0.5710410000000 1.0
C      1  0.4315630000000  0.5428080000000  0.4293890000000 1.0
C      1  0.4732330000000  0.5869780000000  0.5165920000000 1.0
C      1  0.4257100000000  0.5521020000000  0.5274970000000 1.0
C      1  0.4763780000000  0.4958540000000  0.5773420000000 1.0
C      1  0.4313480000000  0.5189390000000  0.5744900000000 1.0
C      1  0.4050860000000  0.5006150000000  0.4755790000000 1.0
C      1  0.4599490000000  0.4630020000000  0.5647130000000 1.0
C      1  0.5195080000000  0.5993450000000  0.5304270000000 1.0
C      1  0.5420320000000  0.4263210000000  0.5294540000000 1.0
C      1  0.4491270000000  0.5535860000000  0.5453040000000 1.0
C      1  0.4341070000000  0.5007110000000  0.5533240000000 1.0
C      1  0.4566850000000  0.4994030000000  0.4217420000000 1.0
C      1  0.5747310000000  0.5486200000000  0.5470640000000 1.0
C      1  0.4338370000000  0.4462430000000  0.5577320000000 1.0
C      1  0.5278650000000  0.4992780000000  0.5740920000000 1.0
END
