TITL C-3578200-9634-496 -2.32389226411529e-06 125000 -1080.37965971895 0 0 171 (C1) n - 1
REM
REM in /home/bkarasulu/work/CARBON/AIRSS/Generating-Clusters/EDIP-Nigel-Params/with-SteepDescent/Higher-Symm/SD-CG/HFTN-CG
REM
REM
REM
REM
REM
REM ./C.cell (12c818d87b63d06a65506943cc24bca4)
REM
REM compiler GCC version 9.2.1 20190827 (Red Hat 9.2.1-1)
REM options -cpp -mtune=generic -march=x86-64 -g -O0 -fpre-include=/usr/include/finclude/math-vector-fortran.h
REM seed 879273320 -762704756 -1042846517 1637752138 -626402256 -1631393864 -1078269322 1373046175 1833092513 -1104990791 259619469 -1994713985 -563623450 999380274 -1181840875 -1303435812 1468714458 -862302764 773656738 -1799727165 1259763117 -2146679257 202041006 -1343746660 1382145283 1864275161 945872374 -1777888005 1528928478 1573334441 168571990 -2114237994 -814430972
REM
CELL 1.54180   50.00000   50.00000   50.00000   90.00000   90.00000   90.00000
LATT -1
SFAC C  
C      1  0.4984080000000  0.3930530000000  0.5347200000000 1.0
C      1  0.5004990000000  0.3915200000000  0.4598950000000 1.0
C      1  0.4411580000000  0.4733360000000  0.4090830000000 1.0
C      1  0.4401590000000  0.4737020000000  0.5901690000000 1.0
C      1  0.4984760000000  0.5420470000000  0.5979610000000 1.0
C      1  0.4915150000000  0.5397210000000  0.4012130000000 1.0
C      1  0.4827270000000  0.3979410000000  0.5576030000000 1.0
C      1  0.4878560000000  0.3955350000000  0.4349880000000 1.0
C      1  0.4709730000000  0.4680410000000  0.5220680000000 1.0
C      1  0.4741350000000  0.4703510000000  0.4729000000000 1.0
C      1  0.5487280000000  0.5235370000000  0.4456070000000 1.0
C      1  0.5497120000000  0.5201700000000  0.5534360000000 1.0
C      1  0.4446800000000  0.4763790000000  0.4800440000000 1.0
C      1  0.4404840000000  0.4634840000000  0.5143770000000 1.0
C      1  0.5819480000000  0.5201840000000  0.5746830000000 1.0
C      1  0.5888850000000  0.5210660000000  0.4188810000000 1.0
C      1  0.3958120000000  0.4832430000000  0.4881100000000 1.0
C      1  0.3884550000000  0.4958120000000  0.5236340000000 1.0
C      1  0.5654780000000  0.4679480000000  0.5574510000000 1.0
C      1  0.5734520000000  0.4630130000000  0.4446320000000 1.0
C      1  0.4642310000000  0.4425180000000  0.5648170000000 1.0
C      1  0.4648160000000  0.4370790000000  0.4231870000000 1.0
C      1  0.5140370000000  0.5040100000000  0.4741420000000 1.0
C      1  0.5042910000000  0.5067940000000  0.5284520000000 1.0
C      1  0.4386300000000  0.4334750000000  0.5075390000000 1.0
C      1  0.4369570000000  0.4297690000000  0.4780790000000 1.0
C      1  0.5415470000000  0.4029880000000  0.5113340000000 1.0
C      1  0.5407690000000  0.4004860000000  0.4823950000000 1.0
C      1  0.5176510000000  0.5219890000000  0.6124570000000 1.0
C      1  0.4979460000000  0.5155060000000  0.3829520000000 1.0
C      1  0.5352870000000  0.4553020000000  0.4861020000000 1.0
C      1  0.5354770000000  0.4560950000000  0.5147920000000 1.0
C      1  0.5274110000000  0.5407220000000  0.5601180000000 1.0
C      1  0.5251580000000  0.5413750000000  0.4377280000000 1.0
C      1  0.4379620000000  0.5027570000000  0.4168600000000 1.0
C      1  0.4391250000000  0.5041660000000  0.5863180000000 1.0
C      1  0.5172930000000  0.5312250000000  0.5166580000000 1.0
C      1  0.5213210000000  0.5334060000000  0.4875000000000 1.0
C      1  0.4590400000000  0.5056380000000  0.4385390000000 1.0
C      1  0.4553220000000  0.5087010000000  0.5595980000000 1.0
C      1  0.4800780000000  0.4928740000000  0.6120480000000 1.0
C      1  0.4719000000000  0.5013310000000  0.3817850000000 1.0
C      1  0.5081570000000  0.4583350000000  0.5522060000000 1.0
C      1  0.5106600000000  0.4591750000000  0.4459610000000 1.0
C      1  0.4684210000000  0.4149400000000  0.4409800000000 1.0
C      1  0.4645370000000  0.4175960000000  0.5493710000000 1.0
C      1  0.5616230000000  0.5009030000000  0.4849970000000 1.0
C      1  0.5585450000000  0.5007840000000  0.5136040000000 1.0
C      1  0.5282410000000  0.4691280000000  0.5946740000000 1.0
C      1  0.5361740000000  0.4706270000000  0.4074670000000 1.0
C      1  0.4789190000000  0.4647230000000  0.5510120000000 1.0
C      1  0.4818740000000  0.4653600000000  0.4440420000000 1.0
C      1  0.5980620000000  0.4466070000000  0.5276130000000 1.0
C      1  0.5982490000000  0.4434710000000  0.4809840000000 1.0
C      1  0.4341790000000  0.5157110000000  0.5303810000000 1.0
C      1  0.4354460000000  0.5082220000000  0.4753380000000 1.0
C      1  0.5137200000000  0.4409860000000  0.4711830000000 1.0
C      1  0.5123340000000  0.4410310000000  0.5267810000000 1.0
C      1  0.5759550000000  0.4269540000000  0.4771060000000 1.0
C      1  0.5769960000000  0.4288050000000  0.5303340000000 1.0
C      1  0.5143820000000  0.4451710000000  0.5794800000000 1.0
C      1  0.5191110000000  0.4473130000000  0.4190320000000 1.0
C      1  0.4836120000000  0.4422990000000  0.5899790000000 1.0
C      1  0.4892130000000  0.4469190000000  0.4046870000000 1.0
C      1  0.5234250000000  0.4873620000000  0.4479820000000 1.0
C      1  0.5246460000000  0.4847690000000  0.5525480000000 1.0
C      1  0.4368940000000  0.4562330000000  0.5666290000000 1.0
C      1  0.4409120000000  0.4542110000000  0.4316230000000 1.0
C      1  0.5597750000000  0.5084220000000  0.5891100000000 1.0
C      1  0.5617850000000  0.5105250000000  0.4216860000000 1.0
C      1  0.5213950000000  0.4991220000000  0.3978360000000 1.0
C      1  0.5089670000000  0.4949440000000  0.6018020000000 1.0
C      1  0.4903340000000  0.4909930000000  0.4852810000000 1.0
C      1  0.4843070000000  0.4927200000000  0.5123890000000 1.0
C      1  0.4730420000000  0.5312880000000  0.4443890000000 1.0
C      1  0.4731120000000  0.5342750000000  0.5574120000000 1.0
C      1  0.4307790000000  0.5577920000000  0.5594710000000 1.0
C      1  0.4294490000000  0.5535420000000  0.4448050000000 1.0
C      1  0.4683730000000  0.5437770000000  0.6012730000000 1.0
C      1  0.4615260000000  0.5457760000000  0.4020980000000 1.0
C      1  0.4711320000000  0.4754560000000  0.3994880000000 1.0
C      1  0.4677320000000  0.4678790000000  0.6013750000000 1.0
C      1  0.4762530000000  0.4877750000000  0.5684500000000 1.0
C      1  0.4796510000000  0.4876960000000  0.4265340000000 1.0
C      1  0.4166510000000  0.5278220000000  0.4481360000000 1.0
C      1  0.4162520000000  0.5330460000000  0.5592430000000 1.0
C      1  0.4772200000000  0.5363150000000  0.4728700000000 1.0
C      1  0.4758790000000  0.5402850000000  0.5291520000000 1.0
C      1  0.4294440000000  0.4561240000000  0.4622590000000 1.0
C      1  0.4260020000000  0.4691500000000  0.5420280000000 1.0
C      1  0.4116710000000  0.5144210000000  0.5803730000000 1.0
C      1  0.4109640000000  0.5079340000000  0.4288120000000 1.0
C      1  0.5448500000000  0.4797240000000  0.4718900000000 1.0
C      1  0.5354290000000  0.4846870000000  0.5227450000000 1.0
C      1  0.4732000000000  0.5792850000000  0.4403020000000 1.0
C      1  0.4755560000000  0.5820920000000  0.5594500000000 1.0
C      1  0.5468950000000  0.5788040000000  0.4494110000000 1.0
C      1  0.5488850000000  0.5814330000000  0.5426800000000 1.0
C      1  0.5255270000000  0.6010310000000  0.5183480000000 1.0
C      1  0.5335200000000  0.5967030000000  0.4906820000000 1.0
C      1  0.4654320000000  0.4206030000000  0.4701710000000 1.0
C      1  0.4644840000000  0.4211480000000  0.5200680000000 1.0
C      1  0.5659390000000  0.5252390000000  0.5283580000000 1.0
C      1  0.5638840000000  0.5273390000000  0.4707040000000 1.0
C      1  0.5916250000000  0.5359980000000  0.4647340000000 1.0
C      1  0.5990830000000  0.5434950000000  0.5380730000000 1.0
C      1  0.6047120000000  0.4911540000000  0.4857380000000 1.0
C      1  0.6019890000000  0.4934450000000  0.5177230000000 1.0
C      1  0.5550050000000  0.4417670000000  0.5458060000000 1.0
C      1  0.5626680000000  0.4356410000000  0.4503740000000 1.0
C      1  0.3985920000000  0.4855580000000  0.4405770000000 1.0
C      1  0.3950730000000  0.4937440000000  0.5710090000000 1.0
C      1  0.4724840000000  0.5871010000000  0.4697660000000 1.0
C      1  0.4731770000000  0.5886630000000  0.5298810000000 1.0
C      1  0.4956200000000  0.5972260000000  0.4846110000000 1.0
C      1  0.4961710000000  0.5991230000000  0.5138570000000 1.0
C      1  0.6080060000000  0.5187880000000  0.5289710000000 1.0
C      1  0.6092330000000  0.5151650000000  0.4714050000000 1.0
C      1  0.4847410000000  0.4427320000000  0.4822810000000 1.0
C      1  0.4846020000000  0.4426230000000  0.5120470000000 1.0
C      1  0.4572160000000  0.5542120000000  0.4319140000000 1.0
C      1  0.4592960000000  0.5579110000000  0.5711640000000 1.0
C      1  0.5010340000000  0.5797820000000  0.4289510000000 1.0
C      1  0.5043430000000  0.5810340000000  0.5661740000000 1.0
C      1  0.5090330000000  0.5644260000000  0.4027550000000 1.0
C      1  0.5125490000000  0.5692590000000  0.5926300000000 1.0
C      1  0.5001380000000  0.5546330000000  0.4806220000000 1.0
C      1  0.4998450000000  0.5556870000000  0.5190550000000 1.0
C      1  0.5176480000000  0.5673690000000  0.4512320000000 1.0
C      1  0.5200540000000  0.5658960000000  0.5443870000000 1.0
C      1  0.5840550000000  0.5463690000000  0.5627590000000 1.0
C      1  0.5876560000000  0.5440220000000  0.4360030000000 1.0
C      1  0.5370180000000  0.5493320000000  0.4092130000000 1.0
C      1  0.5401980000000  0.5546900000000  0.5857920000000 1.0
C      1  0.4069060000000  0.5192560000000  0.5151750000000 1.0
C      1  0.4087150000000  0.5089940000000  0.4872520000000 1.0
C      1  0.5943170000000  0.4680860000000  0.4681280000000 1.0
C      1  0.5918740000000  0.4719730000000  0.5382010000000 1.0
C      1  0.5222390000000  0.4123280000000  0.5340990000000 1.0
C      1  0.5228530000000  0.4122340000000  0.4624830000000 1.0
C      1  0.4787900000000  0.3958450000000  0.4807480000000 1.0
C      1  0.4802440000000  0.3975960000000  0.5105480000000 1.0
C      1  0.4287770000000  0.5626270000000  0.4738360000000 1.0
C      1  0.4269250000000  0.5656590000000  0.5298590000000 1.0
C      1  0.4589660000000  0.5158140000000  0.6071430000000 1.0
C      1  0.4495970000000  0.5194650000000  0.3932790000000 1.0
C      1  0.5596020000000  0.4799580000000  0.4235390000000 1.0
C      1  0.5545040000000  0.4786220000000  0.5838630000000 1.0
C      1  0.4510190000000  0.5330440000000  0.4862610000000 1.0
C      1  0.4500550000000  0.5375010000000  0.5161260000000 1.0
C      1  0.5486820000000  0.5476830000000  0.4864410000000 1.0
C      1  0.5576820000000  0.5491790000000  0.5136680000000 1.0
C      1  0.5063960000000  0.5007720000000  0.4249760000000 1.0
C      1  0.5031700000000  0.5001470000000  0.5725320000000 1.0
C      1  0.5435640000000  0.5202440000000  0.3995520000000 1.0
C      1  0.5443810000000  0.5299150000000  0.6038070000000 1.0
C      1  0.4013230000000  0.4684730000000  0.4630250000000 1.0
C      1  0.3993490000000  0.4811070000000  0.5459700000000 1.0
C      1  0.5512030000000  0.5771370000000  0.4780310000000 1.0
C      1  0.5669690000000  0.5742960000000  0.5213710000000 1.0
C      1  0.4038710000000  0.5606600000000  0.4879730000000 1.0
C      1  0.4048780000000  0.5505890000000  0.5140160000000 1.0
C      1  0.5638300000000  0.5623300000000  0.4303240000000 1.0
C      1  0.5625340000000  0.5674230000000  0.5681540000000 1.0
C      1  0.4483930000000  0.5817930000000  0.4855140000000 1.0
C      1  0.4486400000000  0.5816480000000  0.5151500000000 1.0
C      1  0.5347880000000  0.4242940000000  0.5621510000000 1.0
C      1  0.5373950000000  0.4245220000000  0.4371570000000 1.0
C      1  0.4992280000000  0.5288430000000  0.4288850000000 1.0
C      1  0.5006640000000  0.5293910000000  0.5702240000000 1.0
C      1  0.5696750000000  0.4132990000000  0.5056590000000 1.0
END
