TITL C-3577080-309-392 -4.81119507487257e-06 125000 -727.33512536981 0 0 121 (C1) n - 1
REM
REM in /home/bkarasulu/work/CARBON/AIRSS/Generating-Clusters/EDIP-Nigel-Params/with-SteepDescent/Higher-Symm/SD-CG/HFTN-CG
REM
REM
REM
REM
REM
REM ./C.cell (12c818d87b63d06a65506943cc24bca4)
REM
REM compiler GCC version 9.2.1 20190827 (Red Hat 9.2.1-1)
REM options -cpp -mtune=generic -march=x86-64 -g -O0 -fpre-include=/usr/include/finclude/math-vector-fortran.h
REM seed 1266954742 -599828319 2052327223 -2110999295 -224778279 -899405673 -1276922666 -444853912 710426309 -1096699488 -1908453346 44553551 -1568099637 -217584145 1642391115 1053348029 699981623 290879310 1305518475 -731134869 740872261 413517787 94516573 -1046466619 219792 -762634914 -143501374 -2020626549 599922667 -457271330 -392635349 176676313 695259980
REM
CELL 1.54180   50.00000   50.00000   50.00000   90.00000   90.00000   90.00000
LATT -1
SFAC C  
C      1  0.4113930000000  0.5307620000000  0.4846880000000 1.0
C      1  0.5673220000000  0.5602900000000  0.4838330000000 1.0
C      1  0.5194050000000  0.4082590000000  0.4848120000000 1.0
C      1  0.4141600000000  0.5297700000000  0.5158060000000 1.0
C      1  0.5683310000000  0.5599270000000  0.5152790000000 1.0
C      1  0.5183740000000  0.4105840000000  0.5159650000000 1.0
C      1  0.5729790000000  0.4674200000000  0.5508710000000 1.0
C      1  0.4365710000000  0.4539470000000  0.5498880000000 1.0
C      1  0.4920880000000  0.5798840000000  0.5494250000000 1.0
C      1  0.5291540000000  0.5141340000000  0.4045630000000 1.0
C      1  0.4951480000000  0.4529930000000  0.4188530000000 1.0
C      1  0.4639880000000  0.5260620000000  0.3999470000000 1.0
C      1  0.4888260000000  0.5206560000000  0.5324080000000 1.0
C      1  0.5246070000000  0.4996810000000  0.5322610000000 1.0
C      1  0.4886730000000  0.4793520000000  0.5304660000000 1.0
C      1  0.4191210000000  0.4563550000000  0.5238320000000 1.0
C      1  0.5022830000000  0.5923230000000  0.5230010000000 1.0
C      1  0.5797600000000  0.4511170000000  0.5250060000000 1.0
C      1  0.5638260000000  0.4274470000000  0.5126090000000 1.0
C      1  0.4068130000000  0.4817320000000  0.5108170000000 1.0
C      1  0.5308420000000  0.5907750000000  0.5118040000000 1.0
C      1  0.5813440000000  0.5343720000000  0.4734460000000 1.0
C      1  0.4887350000000  0.4082590000000  0.4745630000000 1.0
C      1  0.4257740000000  0.5572770000000  0.4747240000000 1.0
C      1  0.4535170000000  0.4932140000000  0.5843830000000 1.0
C      1  0.5178910000000  0.5420160000000  0.5863320000000 1.0
C      1  0.5294230000000  0.4625560000000  0.5851410000000 1.0
C      1  0.4119840000000  0.5034470000000  0.5289420000000 1.0
C      1  0.5476580000000  0.5753980000000  0.5297040000000 1.0
C      1  0.5420050000000  0.4211120000000  0.5301150000000 1.0
C      1  0.5308500000000  0.4642420000000  0.4990890000000 1.0
C      1  0.4551670000000  0.4927900000000  0.4981560000000 1.0
C      1  0.5168460000000  0.5442260000000  0.5005520000000 1.0
C      1  0.3963540000000  0.4948880000000  0.4844980000000 1.0
C      1  0.5456780000000  0.5926760000000  0.4845910000000 1.0
C      1  0.5583150000000  0.4113310000000  0.4865310000000 1.0
C      1  0.4990500000000  0.4308700000000  0.5247730000000 1.0
C      1  0.4411030000000  0.5367410000000  0.5254640000000 1.0
C      1  0.5614850000000  0.5334330000000  0.5259000000000 1.0
C      1  0.5039220000000  0.5506390000000  0.4226570000000 1.0
C      1  0.5422140000000  0.4668650000000  0.4228790000000 1.0
C      1  0.4564210000000  0.4815800000000  0.4203570000000 1.0
C      1  0.4986660000000  0.4791320000000  0.6032930000000 1.0
C      1  0.4805440000000  0.5126100000000  0.6036580000000 1.0
C      1  0.5184060000000  0.5068680000000  0.6033060000000 1.0
C      1  0.4341400000000  0.4803170000000  0.4678440000000 1.0
C      1  0.5125900000000  0.5683500000000  0.4701950000000 1.0
C      1  0.5519360000000  0.4519170000000  0.4710160000000 1.0
C      1  0.4858770000000  0.4618610000000  0.5565410000000 1.0
C      1  0.4745090000000  0.5325240000000  0.5578750000000 1.0
C      1  0.5416530000000  0.5059990000000  0.5578570000000 1.0
C      1  0.4772450000000  0.4837820000000  0.4773930000000 1.0
C      1  0.4983400000000  0.5289630000000  0.4836570000000 1.0
C      1  0.5266580000000  0.4884150000000  0.4830710000000 1.0
C      1  0.5952500000000  0.4647780000000  0.4701280000000 1.0
C      1  0.4220570000000  0.4356180000000  0.4693250000000 1.0
C      1  0.4813030000000  0.6024920000000  0.4684640000000 1.0
C      1  0.4834090000000  0.4235700000000  0.4497020000000 1.0
C      1  0.4425430000000  0.5524660000000  0.4508090000000 1.0
C      1  0.5689540000000  0.5217270000000  0.4499450000000 1.0
C      1  0.5857980000000  0.5135750000000  0.4947950000000 1.0
C      1  0.4692740000000  0.4197820000000  0.4944140000000 1.0
C      1  0.4455540000000  0.5679940000000  0.4949710000000 1.0
C      1  0.4595030000000  0.4394280000000  0.4469280000000 1.0
C      1  0.4657600000000  0.5691040000000  0.4461670000000 1.0
C      1  0.5734260000000  0.4936960000000  0.4476860000000 1.0
C      1  0.5153300000000  0.5721070000000  0.5686110000000 1.0
C      1  0.5574510000000  0.4526920000000  0.5733140000000 1.0
C      1  0.4316080000000  0.4738300000000  0.5726980000000 1.0
C      1  0.4893540000000  0.5325630000000  0.5835210000000 1.0
C      1  0.5345970000000  0.4922410000000  0.5830080000000 1.0
C      1  0.4781860000000  0.4758120000000  0.5814420000000 1.0
C      1  0.4566540000000  0.5286180000000  0.4609940000000 1.0
C      1  0.5404920000000  0.5237690000000  0.4588290000000 1.0
C      1  0.5022460000000  0.4457220000000  0.4562220000000 1.0
C      1  0.5373320000000  0.5220290000000  0.5109710000000 1.0
C      1  0.5009740000000  0.4568710000000  0.5080690000000 1.0
C      1  0.4634120000000  0.5216180000000  0.5101420000000 1.0
C      1  0.4838680000000  0.4538420000000  0.4820980000000 1.0
C      1  0.4702730000000  0.5393930000000  0.4858670000000 1.0
C      1  0.5480610000000  0.5082600000000  0.4862600000000 1.0
C      1  0.4185990000000  0.5065920000000  0.4649500000000 1.0
C      1  0.5426610000000  0.5672520000000  0.4651550000000 1.0
C      1  0.5391280000000  0.4247260000000  0.4657930000000 1.0
C      1  0.5040490000000  0.5487260000000  0.5278230000000 1.0
C      1  0.5415750000000  0.4727140000000  0.5267120000000 1.0
C      1  0.4571240000000  0.4783380000000  0.5252320000000 1.0
C      1  0.4807910000000  0.6016770000000  0.5073380000000 1.0
C      1  0.5971610000000  0.4665910000000  0.5088060000000 1.0
C      1  0.4231450000000  0.4333190000000  0.5079040000000 1.0
C      1  0.4854050000000  0.4796480000000  0.4197450000000 1.0
C      1  0.4852520000000  0.5431030000000  0.4034500000000 1.0
C      1  0.5391800000000  0.4883610000000  0.4052140000000 1.0
C      1  0.5832460000000  0.5155660000000  0.5329160000000 1.0
C      1  0.4726990000000  0.4210400000000  0.5322310000000 1.0
C      1  0.4456200000000  0.5644950000000  0.5328430000000 1.0
C      1  0.4505710000000  0.5156750000000  0.5632320000000 1.0
C      1  0.5392190000000  0.5348410000000  0.5641940000000 1.0
C      1  0.5117420000000  0.4491190000000  0.5631130000000 1.0
C      1  0.4750100000000  0.5214210000000  0.4382290000000 1.0
C      1  0.5231360000000  0.5020870000000  0.4410870000000 1.0
C      1  0.4920510000000  0.4966150000000  0.4438480000000 1.0
C      1  0.5798070000000  0.4409400000000  0.4736620000000 1.0
C      1  0.4111320000000  0.4617220000000  0.4714000000000 1.0
C      1  0.5091130000000  0.5980170000000  0.4736940000000 1.0
C      1  0.4933550000000  0.5607720000000  0.4470260000000 1.0
C      1  0.5546590000000  0.4721680000000  0.4478740000000 1.0
C      1  0.4512920000000  0.4672720000000  0.4456640000000 1.0
C      1  0.5289090000000  0.5361430000000  0.4235730000000 1.0
C      1  0.5223300000000  0.4468290000000  0.4232700000000 1.0
C      1  0.4516700000000  0.5107070000000  0.4206040000000 1.0
C      1  0.5352340000000  0.4470240000000  0.5443360000000 1.0
C      1  0.4379020000000  0.4964820000000  0.5432430000000 1.0
C      1  0.5293340000000  0.5566550000000  0.5459250000000 1.0
C      1  0.4444530000000  0.4341580000000  0.4882490000000 1.0
C      1  0.4693890000000  0.5836620000000  0.4878170000000 1.0
C      1  0.5854150000000  0.4847100000000  0.4894350000000 1.0
C      1  0.4682350000000  0.5613450000000  0.5505180000000 1.0
C      1  0.5695290000000  0.4974080000000  0.5506280000000 1.0
C      1  0.4641830000000  0.4421110000000  0.5498990000000 1.0
C      1  0.5005970000000  0.5001170000000  0.4867920000000 1.0
END
