TITL C-3577088-510-45 -5.69465201312316e-07 125000 -208.195953851757 0 0 36 (S4) n - 1
REM
REM in /home/bkarasulu/work/CARBON/AIRSS/Generating-Clusters/EDIP-Nigel-Params/with-SteepDescent/Higher-Symm/SD-CG/HFTN-CG
REM
REM
REM
REM
REM
REM ./C.cell (12c818d87b63d06a65506943cc24bca4)
REM
REM compiler GCC version 9.2.1 20190827 (Red Hat 9.2.1-1)
REM options -cpp -mtune=generic -march=x86-64 -g -O0 -fpre-include=/usr/include/finclude/math-vector-fortran.h
REM seed 1537889796 1674080174 -1438619073 -1356891627 -799704233 -1309502093 -1661831786 -1109881679 1063107344 2105387531 -1102633218 785671537 -42066149 -1508101989 -1398705114 -1670111076 533145063 478469420 443315822 504800333 -1869831798 1958758137 1363307095 2062633099 -1174310927 75435123 -666090433 -1293088203 1735069032 921454214 -590217766 -789019735 1224705808
REM
CELL 1.54180   50.00000   50.00000   50.00000   90.00000   90.00000   90.00000
LATT -1
SFAC C  
C      1  0.5312180000000  0.4786470000000  0.4637730000000 1.0
C      1  0.4789390000000  0.4690870000000  0.5366580000000 1.0
C      1  0.4687930000000  0.5207560000000  0.4634170000000 1.0
C      1  0.5210500000000  0.5315100000000  0.5361520000000 1.0
C      1  0.5177010000000  0.5059550000000  0.5226970000000 1.0
C      1  0.5057720000000  0.4821090000000  0.4774050000000 1.0
C      1  0.4822920000000  0.4944180000000  0.5227860000000 1.0
C      1  0.4942350000000  0.5175180000000  0.4771130000000 1.0
C      1  0.5598130000000  0.5146010000000  0.4571630000000 1.0
C      1  0.5149460000000  0.4405460000000  0.5432170000000 1.0
C      1  0.4402000000000  0.4846970000000  0.4573900000000 1.0
C      1  0.4850410000000  0.5601550000000  0.5422300000000 1.0
C      1  0.5404620000000  0.5260360000000  0.4749690000000 1.0
C      1  0.5262360000000  0.4597470000000  0.5251580000000 1.0
C      1  0.4595460000000  0.4735570000000  0.4753880000000 1.0
C      1  0.4737560000000  0.5406610000000  0.5244850000000 1.0
C      1  0.4645590000000  0.5156660000000  0.5360150000000 1.0
C      1  0.5153750000000  0.5351380000000  0.4635650000000 1.0
C      1  0.5354300000000  0.4849280000000  0.5362780000000 1.0
C      1  0.4846360000000  0.4642690000000  0.4641420000000 1.0
C      1  0.5066530000000  0.5614200000000  0.4978750000000 1.0
C      1  0.5614350000000  0.4933610000000  0.5016860000000 1.0
C      1  0.4933480000000  0.4385530000000  0.4988810000000 1.0
C      1  0.4385640000000  0.5066660000000  0.5015580000000 1.0
C      1  0.5579560000000  0.4871420000000  0.4645530000000 1.0
C      1  0.4874280000000  0.4423430000000  0.5360330000000 1.0
C      1  0.4420550000000  0.5122740000000  0.4643290000000 1.0
C      1  0.5125610000000  0.5582410000000  0.5350850000000 1.0
C      1  0.5071080000000  0.4638720000000  0.5029260000000 1.0
C      1  0.4638500000000  0.4928700000000  0.4974250000000 1.0
C      1  0.4928910000000  0.5361710000000  0.5023300000000 1.0
C      1  0.5361510000000  0.5070870000000  0.4973190000000 1.0
C      1  0.5119070000000  0.5625980000000  0.4702430000000 1.0
C      1  0.5628360000000  0.4883380000000  0.5293510000000 1.0
C      1  0.4881020000000  0.4369220000000  0.4712710000000 1.0
C      1  0.4371560000000  0.5121420000000  0.5291360000000 1.0
END
