TITL C-3578198-8939-308 -3.25969409622289e-05 125000 -1203.6307621891 0 0 190 (C1) n - 1
REM
REM in /home/bkarasulu/work/CARBON/AIRSS/Generating-Clusters/EDIP-Nigel-Params/with-SteepDescent/Higher-Symm/SD-CG/HFTN-CG
REM
REM
REM
REM
REM
REM ./C.cell (12c818d87b63d06a65506943cc24bca4)
REM
REM compiler GCC version 9.2.1 20190827 (Red Hat 9.2.1-1)
REM options -cpp -mtune=generic -march=x86-64 -g -O0 -fpre-include=/usr/include/finclude/math-vector-fortran.h
REM seed 1107181503 -2027053146 -883425575 -1731589004 -54825284 1895509077 -1165415827 1404576332 167918181 -614456931 1652296859 1142583521 441572112 1932003482 -765200546 -830989510 839976140 590089180 1518396634 -2067595635 -101198812 492643780 1462093075 -1567396387 -1664073227 -888792206 -1276980043 1133722711 -1332151289 919675096 -1835114668 -1540611895 1389638343
REM
CELL 1.54180   50.00000   50.00000   50.00000   90.00000   90.00000   90.00000
LATT -1
SFAC C  
C      1  0.5451470000000  0.5666520000000  0.4431190000000 1.0
C      1  0.4529810000000  0.5659110000000  0.5575670000000 1.0
C      1  0.5451050000000  0.4369890000000  0.4433190000000 1.0
C      1  0.4543270000000  0.4367640000000  0.5567310000000 1.0
C      1  0.4448750000000  0.5644440000000  0.4480140000000 1.0
C      1  0.5607940000000  0.5585170000000  0.5525150000000 1.0
C      1  0.4380090000000  0.4322750000000  0.4453320000000 1.0
C      1  0.5617980000000  0.4328030000000  0.5551570000000 1.0
C      1  0.4929370000000  0.5705200000000  0.5816640000000 1.0
C      1  0.5071000000000  0.5738680000000  0.4187810000000 1.0
C      1  0.4933500000000  0.4363110000000  0.5835090000000 1.0
C      1  0.5061080000000  0.4351370000000  0.4163090000000 1.0
C      1  0.5515170000000  0.3956410000000  0.5203190000000 1.0
C      1  0.4485230000000  0.3951960000000  0.4803850000000 1.0
C      1  0.5570910000000  0.6023200000000  0.5233790000000 1.0
C      1  0.4439920000000  0.6049080000000  0.4793600000000 1.0
C      1  0.4295730000000  0.4424140000000  0.4029060000000 1.0
C      1  0.5733470000000  0.4444360000000  0.5964820000000 1.0
C      1  0.4290810000000  0.5538570000000  0.4082400000000 1.0
C      1  0.5758250000000  0.5573220000000  0.5935840000000 1.0
C      1  0.5087920000000  0.5485600000000  0.5672550000000 1.0
C      1  0.4902790000000  0.5517700000000  0.4326750000000 1.0
C      1  0.5078520000000  0.4643670000000  0.5621920000000 1.0
C      1  0.4922030000000  0.4624890000000  0.4377480000000 1.0
C      1  0.4437420000000  0.5262100000000  0.4510590000000 1.0
C      1  0.5593680000000  0.5261170000000  0.5477300000000 1.0
C      1  0.4403450000000  0.4663290000000  0.4498050000000 1.0
C      1  0.5603040000000  0.4672410000000  0.5503060000000 1.0
C      1  0.4482830000000  0.4850000000000  0.3961770000000 1.0
C      1  0.5531290000000  0.4863690000000  0.6033090000000 1.0
C      1  0.4476030000000  0.5135850000000  0.3954520000000 1.0
C      1  0.5516830000000  0.5153900000000  0.6027170000000 1.0
C      1  0.4123270000000  0.5856760000000  0.5107400000000 1.0
C      1  0.5873900000000  0.5851190000000  0.4894200000000 1.0
C      1  0.4158340000000  0.4103810000000  0.5128190000000 1.0
C      1  0.5843570000000  0.4106860000000  0.4877040000000 1.0
C      1  0.5099690000000  0.5150220000000  0.4772390000000 1.0
C      1  0.4883420000000  0.5153260000000  0.5224840000000 1.0
C      1  0.5195400000000  0.4905830000000  0.4838670000000 1.0
C      1  0.4793580000000  0.4904780000000  0.5165170000000 1.0
C      1  0.4115690000000  0.4226640000000  0.5377820000000 1.0
C      1  0.5879650000000  0.4236030000000  0.4629030000000 1.0
C      1  0.4095320000000  0.5755420000000  0.5368460000000 1.0
C      1  0.5889240000000  0.5762880000000  0.4628110000000 1.0
C      1  0.5811950000000  0.4715850000000  0.4494790000000 1.0
C      1  0.4174200000000  0.4707320000000  0.5509790000000 1.0
C      1  0.5782960000000  0.5306870000000  0.4480780000000 1.0
C      1  0.4189220000000  0.5300920000000  0.5525540000000 1.0
C      1  0.4926420000000  0.4118500000000  0.5668320000000 1.0
C      1  0.5073080000000  0.4109080000000  0.4334590000000 1.0
C      1  0.4917400000000  0.5944610000000  0.5630300000000 1.0
C      1  0.5091870000000  0.5973810000000  0.4384600000000 1.0
C      1  0.4712720000000  0.5104470000000  0.4451310000000 1.0
C      1  0.5312540000000  0.5120210000000  0.5565570000000 1.0
C      1  0.4661980000000  0.4801920000000  0.4361240000000 1.0
C      1  0.5347990000000  0.4812450000000  0.5634370000000 1.0
C      1  0.4618470000000  0.4413850000000  0.5034830000000 1.0
C      1  0.5371080000000  0.4416090000000  0.4969350000000 1.0
C      1  0.4561070000000  0.5553230000000  0.5042060000000 1.0
C      1  0.5420090000000  0.5544980000000  0.4950150000000 1.0
C      1  0.5767480000000  0.5278020000000  0.5921890000000 1.0
C      1  0.4231000000000  0.5251550000000  0.4065910000000 1.0
C      1  0.5783910000000  0.4735860000000  0.5947390000000 1.0
C      1  0.4237540000000  0.4711260000000  0.4046420000000 1.0
C      1  0.4619660000000  0.5844160000000  0.4335740000000 1.0
C      1  0.5398590000000  0.5890060000000  0.5717820000000 1.0
C      1  0.4605270000000  0.4216800000000  0.4305480000000 1.0
C      1  0.5390360000000  0.4232660000000  0.5702240000000 1.0
C      1  0.4998410000000  0.4826050000000  0.6065930000000 1.0
C      1  0.4998940000000  0.4856190000000  0.3927330000000 1.0
C      1  0.5007340000000  0.5124510000000  0.6069320000000 1.0
C      1  0.4982210000000  0.5160930000000  0.3916170000000 1.0
C      1  0.5484670000000  0.5146600000000  0.4131770000000 1.0
C      1  0.4492690000000  0.5131640000000  0.5870780000000 1.0
C      1  0.5492140000000  0.4902620000000  0.4007360000000 1.0
C      1  0.4497100000000  0.4889550000000  0.5998140000000 1.0
C      1  0.4289160000000  0.5412140000000  0.4998420000000 1.0
C      1  0.5693590000000  0.5402250000000  0.4977900000000 1.0
C      1  0.4312160000000  0.4482290000000  0.4957490000000 1.0
C      1  0.5677140000000  0.4477510000000  0.5050830000000 1.0
C      1  0.5178220000000  0.5152150000000  0.5270390000000 1.0
C      1  0.4808730000000  0.5144030000000  0.4742440000000 1.0
C      1  0.5293380000000  0.4900950000000  0.5105960000000 1.0
C      1  0.4694960000000  0.4895780000000  0.4899030000000 1.0
C      1  0.5164820000000  0.4144010000000  0.5005960000000 1.0
C      1  0.4835280000000  0.4143250000000  0.4997500000000 1.0
C      1  0.5152140000000  0.6034040000000  0.5017120000000 1.0
C      1  0.4853330000000  0.6048100000000  0.5020070000000 1.0
C      1  0.5199440000000  0.5894260000000  0.5499950000000 1.0
C      1  0.4832030000000  0.5908000000000  0.4539570000000 1.0
C      1  0.5165200000000  0.4200060000000  0.5492980000000 1.0
C      1  0.4831960000000  0.4189630000000  0.4509390000000 1.0
C      1  0.4731780000000  0.4599410000000  0.4830850000000 1.0
C      1  0.5251930000000  0.4605760000000  0.5165590000000 1.0
C      1  0.4736480000000  0.5436490000000  0.4816190000000 1.0
C      1  0.5250990000000  0.5436510000000  0.5183380000000 1.0
C      1  0.4409120000000  0.5753900000000  0.4750950000000 1.0
C      1  0.5579460000000  0.5723000000000  0.5254820000000 1.0
C      1  0.4302910000000  0.4139680000000  0.4675550000000 1.0
C      1  0.5701030000000  0.4138130000000  0.5336680000000 1.0
C      1  0.4769250000000  0.4005350000000  0.4742360000000 1.0
C      1  0.5231480000000  0.4012800000000  0.5263380000000 1.0
C      1  0.4731610000000  0.6090840000000  0.4759550000000 1.0
C      1  0.5283850000000  0.6074170000000  0.5274790000000 1.0
C      1  0.4239060000000  0.4415670000000  0.5542620000000 1.0
C      1  0.5754350000000  0.4422610000000  0.4461930000000 1.0
C      1  0.4229210000000  0.5593070000000  0.5551100000000 1.0
C      1  0.5747690000000  0.5597130000000  0.4455130000000 1.0
C      1  0.4296330000000  0.5190160000000  0.4799050000000 1.0
C      1  0.5704040000000  0.5184610000000  0.5181650000000 1.0
C      1  0.4281150000000  0.4721940000000  0.4787350000000 1.0
C      1  0.5711340000000  0.4720410000000  0.5211410000000 1.0
C      1  0.4198370000000  0.5136750000000  0.4343450000000 1.0
C      1  0.5827100000000  0.5147650000000  0.5643480000000 1.0
C      1  0.4178160000000  0.4800650000000  0.4333410000000 1.0
C      1  0.5833860000000  0.4815670000000  0.5658700000000 1.0
C      1  0.6011510000000  0.5147940000000  0.4440720000000 1.0
C      1  0.3962510000000  0.5139740000000  0.5567920000000 1.0
C      1  0.6034390000000  0.4876410000000  0.4428370000000 1.0
C      1  0.3951270000000  0.4867160000000  0.5578250000000 1.0
C      1  0.5240770000000  0.5306320000000  0.4083120000000 1.0
C      1  0.4737920000000  0.5284460000000  0.5915000000000 1.0
C      1  0.5251100000000  0.4769820000000  0.4097720000000 1.0
C      1  0.4736500000000  0.4760190000000  0.5899120000000 1.0
C      1  0.5346250000000  0.3963960000000  0.4729020000000 1.0
C      1  0.4656590000000  0.3962500000000  0.5275010000000 1.0
C      1  0.5374640000000  0.5955430000000  0.4826450000000 1.0
C      1  0.4625870000000  0.5953560000000  0.5193130000000 1.0
C      1  0.5537240000000  0.5150260000000  0.4425320000000 1.0
C      1  0.4434290000000  0.5142360000000  0.5576160000000 1.0
C      1  0.5576920000000  0.4879640000000  0.4530260000000 1.0
C      1  0.4404540000000  0.4874330000000  0.5466840000000 1.0
C      1  0.4653670000000  0.5516510000000  0.5340840000000 1.0
C      1  0.5306560000000  0.5524210000000  0.4654170000000 1.0
C      1  0.4665810000000  0.4500350000000  0.5328540000000 1.0
C      1  0.5328740000000  0.4499180000000  0.4675080000000 1.0
C      1  0.4145740000000  0.5646040000000  0.4871370000000 1.0
C      1  0.5839680000000  0.5630500000000  0.5107240000000 1.0
C      1  0.4120140000000  0.4273380000000  0.4861850000000 1.0
C      1  0.5879160000000  0.4275560000000  0.5148100000000 1.0
C      1  0.4653290000000  0.4083320000000  0.5541300000000 1.0
C      1  0.5346900000000  0.4083470000000  0.4461660000000 1.0
C      1  0.4641540000000  0.5932500000000  0.5492350000000 1.0
C      1  0.5363000000000  0.5944080000000  0.4522720000000 1.0
C      1  0.5288420000000  0.4689440000000  0.6000430000000 1.0
C      1  0.4735820000000  0.4701630000000  0.3990670000000 1.0
C      1  0.5248980000000  0.5242500000000  0.5929350000000 1.0
C      1  0.4718170000000  0.5290930000000  0.3991940000000 1.0
C      1  0.5181630000000  0.5604250000000  0.5411230000000 1.0
C      1  0.4872530000000  0.5613180000000  0.4621210000000 1.0
C      1  0.5103960000000  0.4480360000000  0.5381460000000 1.0
C      1  0.4890350000000  0.4470630000000  0.4623390000000 1.0
C      1  0.4420820000000  0.3959000000000  0.5094680000000 1.0
C      1  0.5580040000000  0.3964670000000  0.4912050000000 1.0
C      1  0.4361890000000  0.6042370000000  0.5083320000000 1.0
C      1  0.5639450000000  0.6033330000000  0.4942470000000 1.0
C      1  0.5509640000000  0.5711270000000  0.5900500000000 1.0
C      1  0.4605590000000  0.5566110000000  0.4075220000000 1.0
C      1  0.5421080000000  0.4396730000000  0.5961060000000 1.0
C      1  0.4588520000000  0.4363620000000  0.4050410000000 1.0
C      1  0.4706040000000  0.5251840000000  0.5432660000000 1.0
C      1  0.5255310000000  0.5257770000000  0.4555300000000 1.0
C      1  0.4670110000000  0.4779900000000  0.5393930000000 1.0
C      1  0.5317010000000  0.4778070000000  0.4608780000000 1.0
C      1  0.4671660000000  0.4472140000000  0.5834810000000 1.0
C      1  0.5318140000000  0.4476520000000  0.4160430000000 1.0
C      1  0.4667870000000  0.5580750000000  0.5848540000000 1.0
C      1  0.5322090000000  0.5599670000000  0.4153280000000 1.0
C      1  0.5891830000000  0.5662210000000  0.5596410000000 1.0
C      1  0.4181840000000  0.5663390000000  0.4348780000000 1.0
C      1  0.5878100000000  0.4300420000000  0.5709660000000 1.0
C      1  0.4110870000000  0.4290840000000  0.4306590000000 1.0
C      1  0.3995760000000  0.5536220000000  0.4543910000000 1.0
C      1  0.6042180000000  0.5535240000000  0.5386050000000 1.0
C      1  0.3951400000000  0.4398120000000  0.4542830000000 1.0
C      1  0.6046630000000  0.4405210000000  0.5465480000000 1.0
C      1  0.5143100000000  0.4824350000000  0.4377370000000 1.0
C      1  0.4850120000000  0.4849130000000  0.5625880000000 1.0
C      1  0.5051380000000  0.5254610000000  0.4332670000000 1.0
C      1  0.4899600000000  0.5233580000000  0.5659080000000 1.0
C      1  0.3992580000000  0.4811990000000  0.4747170000000 1.0
C      1  0.6002670000000  0.4804960000000  0.5236510000000 1.0
C      1  0.4004520000000  0.5111560000000  0.4747550000000 1.0
C      1  0.5996480000000  0.5102880000000  0.5217160000000 1.0
C      1  0.6072790000000  0.4694370000000  0.5500990000000 1.0
C      1  0.3931240000000  0.4686060000000  0.4488910000000 1.0
C      1  0.6064810000000  0.5248380000000  0.5463200000000 1.0
C      1  0.3957420000000  0.5250660000000  0.4492720000000 1.0
C      1  0.4413310000000  0.4945530000000  0.4908760000000 1.0
C      1  0.5575600000000  0.4941040000000  0.5089660000000 1.0
END
