TITL C-3578197-9521-162 3.40696663326964e-06 125000 -1133.13244012498 0 0 185 (C1) n - 1
REM
REM in /home/bkarasulu/work/CARBON/AIRSS/Generating-Clusters/EDIP-Nigel-Params/with-SteepDescent/Higher-Symm/SD-CG/HFTN-CG
REM
REM
REM
REM
REM
REM ./C.cell (12c818d87b63d06a65506943cc24bca4)
REM
REM compiler GCC version 9.2.1 20190827 (Red Hat 9.2.1-1)
REM options -cpp -mtune=generic -march=x86-64 -g -O0 -fpre-include=/usr/include/finclude/math-vector-fortran.h
REM seed 1845851407 -1902056551 -460062900 -590979583 -483213597 1949339037 -1543679450 182698091 365460700 -1535300584 1065182955 385387107 -843937061 1851378007 -437741597 1308533030 1201675212 560315238 -650750802 -416929292 1726699728 97672112 1104181016 1043183037 -1231891418 -395141027 -1472868396 -1637150922 652216207 -1520937577 -1415061332 -509270709 -632440923
REM
CELL 1.54180   50.00000   50.00000   50.00000   90.00000   90.00000   90.00000
LATT -1
SFAC C  
C      1  0.4646830000000  0.5266540000000  0.5791630000000 1.0
C      1  0.4135630000000  0.5268810000000  0.4910440000000 1.0
C      1  0.4780600000000  0.5281850000000  0.4132460000000 1.0
C      1  0.5769400000000  0.5277780000000  0.4534260000000 1.0
C      1  0.5651660000000  0.5266400000000  0.5595320000000 1.0
C      1  0.4961890000000  0.4937720000000  0.4512700000000 1.0
C      1  0.5455220000000  0.4948810000000  0.4831160000000 1.0
C      1  0.5304710000000  0.4927140000000  0.5345170000000 1.0
C      1  0.4776280000000  0.4926460000000  0.5381030000000 1.0
C      1  0.4569080000000  0.4932100000000  0.4887830000000 1.0
C      1  0.4887030000000  0.4422360000000  0.4355930000000 1.0
C      1  0.5573630000000  0.4411650000000  0.4734060000000 1.0
C      1  0.5442460000000  0.4417940000000  0.5467980000000 1.0
C      1  0.4698460000000  0.4414120000000  0.5561540000000 1.0
C      1  0.4376660000000  0.4404490000000  0.4889800000000 1.0
C      1  0.5027860000000  0.4124160000000  0.5281560000000 1.0
C      1  0.4745570000000  0.4118410000000  0.5112800000000 1.0
C      1  0.4817460000000  0.4124110000000  0.4789200000000 1.0
C      1  0.5142140000000  0.4125310000000  0.4761880000000 1.0
C      1  0.5274720000000  0.4130390000000  0.5069250000000 1.0
C      1  0.5811570000000  0.4320710000000  0.4548270000000 1.0
C      1  0.5691610000000  0.4324080000000  0.5642510000000 1.0
C      1  0.4610190000000  0.4325540000000  0.5852430000000 1.0
C      1  0.4075120000000  0.4312500000000  0.4901930000000 1.0
C      1  0.4802080000000  0.4315790000000  0.4070770000000 1.0
C      1  0.4371690000000  0.5129090000000  0.5300370000000 1.0
C      1  0.4504060000000  0.5131760000000  0.4493780000000 1.0
C      1  0.5339070000000  0.5124080000000  0.4386430000000 1.0
C      1  0.5708540000000  0.5126180000000  0.5147010000000 1.0
C      1  0.5096170000000  0.5132980000000  0.5705170000000 1.0
C      1  0.4052560000000  0.4720260000000  0.5346640000000 1.0
C      1  0.4349630000000  0.4718860000000  0.4210300000000 1.0
C      1  0.5530980000000  0.4731390000000  0.4163080000000 1.0
C      1  0.5997480000000  0.4728070000000  0.5272040000000 1.0
C      1  0.5045030000000  0.4723230000000  0.6021880000000 1.0
C      1  0.4576200000000  0.4074770000000  0.5711620000000 1.0
C      1  0.4197190000000  0.4065140000000  0.4811160000000 1.0
C      1  0.4933990000000  0.4074820000000  0.4151990000000 1.0
C      1  0.5767110000000  0.4073470000000  0.4692950000000 1.0
C      1  0.5544400000000  0.4075890000000  0.5626310000000 1.0
C      1  0.5259790000000  0.4062720000000  0.5656700000000 1.0
C      1  0.4460070000000  0.4059450000000  0.5449580000000 1.0
C      1  0.4410930000000  0.4057430000000  0.4618780000000 1.0
C      1  0.5163350000000  0.4076490000000  0.4319540000000 1.0
C      1  0.5705260000000  0.4065120000000  0.4973580000000 1.0
C      1  0.5803850000000  0.5101600000000  0.4300280000000 1.0
C      1  0.5904220000000  0.5115710000000  0.5573940000000 1.0
C      1  0.4743230000000  0.5118510000000  0.6028990000000 1.0
C      1  0.3944900000000  0.5115230000000  0.5077420000000 1.0
C      1  0.4568670000000  0.5111400000000  0.4017300000000 1.0
C      1  0.4123650000000  0.4837690000000  0.5853800000000 1.0
C      1  0.3902990000000  0.4831890000000  0.4447990000000 1.0
C      1  0.5192640000000  0.4850130000000  0.3798250000000 1.0
C      1  0.6213220000000  0.4847010000000  0.4816660000000 1.0
C      1  0.5548150000000  0.4837720000000  0.6106340000000 1.0
C      1  0.5404420000000  0.5060820000000  0.6015550000000 1.0
C      1  0.4169550000000  0.5059400000000  0.5688480000000 1.0
C      1  0.4070500000000  0.5057170000000  0.4430540000000 1.0
C      1  0.5257540000000  0.5075360000000  0.3955270000000 1.0
C      1  0.6087490000000  0.5071590000000  0.4930530000000 1.0
C      1  0.4139830000000  0.4719630000000  0.5064020000000 1.0
C      1  0.4643070000000  0.4711920000000  0.4183210000000 1.0
C      1  0.5642930000000  0.4712990000000  0.4432520000000 1.0
C      1  0.5764280000000  0.4716200000000  0.5452150000000 1.0
C      1  0.4807840000000  0.4721410000000  0.5849590000000 1.0
C      1  0.5891440000000  0.4857110000000  0.4414720000000 1.0
C      1  0.5848900000000  0.4861970000000  0.5683900000000 1.0
C      1  0.4610890000000  0.4870190000000  0.5997530000000 1.0
C      1  0.3933190000000  0.4872100000000  0.4930800000000 1.0
C      1  0.4699890000000  0.4870410000000  0.3945370000000 1.0
C      1  0.4321170000000  0.5024970000000  0.4225640000000 1.0
C      1  0.5511740000000  0.5033910000000  0.4138980000000 1.0
C      1  0.6004650000000  0.5034860000000  0.5236110000000 1.0
C      1  0.5078760000000  0.5031300000000  0.6025520000000 1.0
C      1  0.4059460000000  0.5027640000000  0.5380790000000 1.0
C      1  0.4782990000000  0.5797380000000  0.5894050000000 1.0
C      1  0.4086880000000  0.5797660000000  0.5074700000000 1.0
C      1  0.4643120000000  0.5805510000000  0.4155840000000 1.0
C      1  0.5697220000000  0.5794180000000  0.4401530000000 1.0
C      1  0.5788230000000  0.5793560000000  0.5487480000000 1.0
C      1  0.4652870000000  0.3913690000000  0.4671180000000 1.0
C      1  0.5191520000000  0.3920870000000  0.4557720000000 1.0
C      1  0.5477730000000  0.3920980000000  0.5069070000000 1.0
C      1  0.5097730000000  0.3914830000000  0.5473160000000 1.0
C      1  0.4584590000000  0.3909980000000  0.5239750000000 1.0
C      1  0.4732180000000  0.4380010000000  0.4621460000000 1.0
C      1  0.5282540000000  0.4380770000000  0.4640130000000 1.0
C      1  0.5438560000000  0.4389040000000  0.5158320000000 1.0
C      1  0.4991330000000  0.4380160000000  0.5464340000000 1.0
C      1  0.4561560000000  0.4373510000000  0.5134330000000 1.0
C      1  0.5232960000000  0.5694930000000  0.4856050000000 1.0
C      1  0.5210260000000  0.5694110000000  0.5168930000000 1.0
C      1  0.4905810000000  0.5693890000000  0.5242640000000 1.0
C      1  0.4740620000000  0.5694600000000  0.4976120000000 1.0
C      1  0.4942180000000  0.5695270000000  0.4736600000000 1.0
C      1  0.5357920000000  0.5975940000000  0.4751300000000 1.0
C      1  0.5349360000000  0.5973710000000  0.5258990000000 1.0
C      1  0.4861640000000  0.5972120000000  0.5406440000000 1.0
C      1  0.4571930000000  0.5974250000000  0.4987970000000 1.0
C      1  0.4879400000000  0.5977020000000  0.4584670000000 1.0
C      1  0.4337530000000  0.5373630000000  0.5103200000000 1.0
C      1  0.4678130000000  0.5381240000000  0.4394310000000 1.0
C      1  0.5486230000000  0.5372290000000  0.4512170000000 1.0
C      1  0.5612460000000  0.5369100000000  0.5318380000000 1.0
C      1  0.4896330000000  0.5374450000000  0.5668240000000 1.0
C      1  0.5873160000000  0.5673680000000  0.5016520000000 1.0
C      1  0.5257180000000  0.5677920000000  0.5842370000000 1.0
C      1  0.4280040000000  0.5668740000000  0.5507110000000 1.0
C      1  0.4281130000000  0.5681770000000  0.4468940000000 1.0
C      1  0.5278030000000  0.5672570000000  0.4164330000000 1.0
C      1  0.4414530000000  0.4866150000000  0.5140190000000 1.0
C      1  0.4671700000000  0.4864740000000  0.4473880000000 1.0
C      1  0.5391180000000  0.4863160000000  0.4560490000000 1.0
C      1  0.5579410000000  0.4863610000000  0.5241840000000 1.0
C      1  0.4961260000000  0.4870270000000  0.5613760000000 1.0
C      1  0.4225330000000  0.5611080000000  0.5241690000000 1.0
C      1  0.4519690000000  0.5624770000000  0.4340450000000 1.0
C      1  0.5486410000000  0.5610840000000  0.4337350000000 1.0
C      1  0.5787420000000  0.5604620000000  0.5272160000000 1.0
C      1  0.4988510000000  0.5612610000000  0.5819790000000 1.0
C      1  0.5250760000000  0.4563610000000  0.5878180000000 1.0
C      1  0.4250460000000  0.4562010000000  0.5501620000000 1.0
C      1  0.4278790000000  0.4560290000000  0.4450870000000 1.0
C      1  0.5278490000000  0.4577210000000  0.4161330000000 1.0
C      1  0.5915880000000  0.4568210000000  0.5034540000000 1.0
C      1  0.4882750000000  0.5181160000000  0.5222420000000 1.0
C      1  0.4753560000000  0.5182780000000  0.4940090000000 1.0
C      1  0.4980410000000  0.5180250000000  0.4723040000000 1.0
C      1  0.5255580000000  0.5180980000000  0.4885120000000 1.0
C      1  0.5189580000000  0.5180580000000  0.5188660000000 1.0
C      1  0.5748480000000  0.4316720000000  0.5123070000000 1.0
C      1  0.5124160000000  0.4308980000000  0.5744730000000 1.0
C      1  0.4334440000000  0.4305630000000  0.5345890000000 1.0
C      1  0.4462640000000  0.4308760000000  0.4471470000000 1.0
C      1  0.5315290000000  0.4325820000000  0.4337660000000 1.0
C      1  0.5049050000000  0.5162270000000  0.4143240000000 1.0
C      1  0.5841720000000  0.5158330000000  0.4793540000000 1.0
C      1  0.5420250000000  0.5122490000000  0.5723240000000 1.0
C      1  0.4453780000000  0.5118040000000  0.5613090000000 1.0
C      1  0.4237240000000  0.5121850000000  0.4668530000000 1.0
C      1  0.4183890000000  0.4571590000000  0.5792500000000 1.0
C      1  0.3981620000000  0.4564840000000  0.4484470000000 1.0
C      1  0.5173880000000  0.4581140000000  0.3879620000000 1.0
C      1  0.6132950000000  0.4578550000000  0.4830050000000 1.0
C      1  0.5507370000000  0.4571810000000  0.6029740000000 1.0
C      1  0.5299650000000  0.4680600000000  0.5584030000000 1.0
C      1  0.4542220000000  0.4678540000000  0.5460300000000 1.0
C      1  0.4410070000000  0.4671970000000  0.4717260000000 1.0
C      1  0.5054660000000  0.4684400000000  0.4343520000000 1.0
C      1  0.5649190000000  0.4684490000000  0.4897800000000 1.0
C      1  0.4753410000000  0.6211780000000  0.4995380000000 1.0
C      1  0.4930350000000  0.6213480000000  0.4760230000000 1.0
C      1  0.5208670000000  0.6212930000000  0.4855500000000 1.0
C      1  0.5204180000000  0.6211040000000  0.5149620000000 1.0
C      1  0.4922810000000  0.6210110000000  0.5236190000000 1.0
C      1  0.5660060000000  0.6018670000000  0.4778140000000 1.0
C      1  0.5415340000000  0.6017390000000  0.5555830000000 1.0
C      1  0.4597620000000  0.6014810000000  0.5559140000000 1.0
C      1  0.4338900000000  0.6021540000000  0.4791620000000 1.0
C      1  0.4996200000000  0.6022050000000  0.4304320000000 1.0
C      1  0.4473310000000  0.5778820000000  0.5667520000000 1.0
C      1  0.4193920000000  0.5787520000000  0.4706470000000 1.0
C      1  0.5026930000000  0.5783140000000  0.4147110000000 1.0
C      1  0.5815140000000  0.5777390000000  0.4768220000000 1.0
C      1  0.5473360000000  0.5781050000000  0.5708410000000 1.0
C      1  0.4913330000000  0.5435740000000  0.4577520000000 1.0
C      1  0.5377730000000  0.5435390000000  0.4785310000000 1.0
C      1  0.5321660000000  0.5431770000000  0.5280570000000 1.0
C      1  0.4837110000000  0.5431560000000  0.5380400000000 1.0
C      1  0.4588290000000  0.5432910000000  0.4950420000000 1.0
C      1  0.5252270000000  0.4636780000000  0.5071180000000 1.0
C      1  0.5007520000000  0.4620460000000  0.5259810000000 1.0
C      1  0.4758980000000  0.4610270000000  0.5088690000000 1.0
C      1  0.4833150000000  0.4628580000000  0.4792020000000 1.0
C      1  0.5152370000000  0.4638030000000  0.4770510000000 1.0
C      1  0.5708890000000  0.4433310000000  0.5899520000000 1.0
C      1  0.4371320000000  0.4436930000000  0.5946140000000 1.0
C      1  0.3903550000000  0.4429970000000  0.4714320000000 1.0
C      1  0.4930860000000  0.4445860000000  0.3858090000000 1.0
C      1  0.6058620000000  0.4442770000000  0.4599470000000 1.0
C      1  0.4201780000000  0.6060950000000  0.5050270000000 1.0
C      1  0.4709950000000  0.6069020000000  0.4250550000000 1.0
C      1  0.5627120000000  0.6059190000000  0.4488030000000 1.0
C      1  0.5681830000000  0.6055740000000  0.5435460000000 1.0
C      1  0.4793470000000  0.6059730000000  0.5775480000000 1.0
END
