TITL C-3578198-8939-762 9.23013641639896e-07 125000 -258.180195716175 0 0 43 (C1) n - 1
REM
REM in /home/bkarasulu/work/CARBON/AIRSS/Generating-Clusters/EDIP-Nigel-Params/with-SteepDescent/Higher-Symm/SD-CG/HFTN-CG
REM
REM
REM
REM
REM
REM ./C.cell (12c818d87b63d06a65506943cc24bca4)
REM
REM compiler GCC version 9.2.1 20190827 (Red Hat 9.2.1-1)
REM options -cpp -mtune=generic -march=x86-64 -g -O0 -fpre-include=/usr/include/finclude/math-vector-fortran.h
REM seed 1069879751 -1320419811 -833519610 186017393 967869788 1535192215 1489631490 10123911 296040827 -35750479 -1710464933 -415421527 -1521416365 -951296284 1513727866 167922079 2076156777 -535794333 -1629710753 484105211 1026854853 1115277329 -1666773921 1251552756 -17876120 44198883 71026200 1551946970 976799910 -1249049373 4188425 -1921901923 -1506330663
REM
CELL 1.54180   50.00000   50.00000   50.00000   90.00000   90.00000   90.00000
LATT -1
SFAC C  
C      1  0.5110940000000  0.5025500000000  0.5313150000000 1.0
C      1  0.5656910000000  0.4570180000000  0.4842730000000 1.0
C      1  0.4760320000000  0.5473490000000  0.5381710000000 1.0
C      1  0.4804640000000  0.5334110000000  0.4445810000000 1.0
C      1  0.5549180000000  0.5251630000000  0.5368930000000 1.0
C      1  0.5550520000000  0.5021020000000  0.4951620000000 1.0
C      1  0.4804010000000  0.4839440000000  0.4864400000000 1.0
C      1  0.4663510000000  0.5094260000000  0.5634460000000 1.0
C      1  0.5246660000000  0.4328900000000  0.5205110000000 1.0
C      1  0.4441300000000  0.5013760000000  0.4552310000000 1.0
C      1  0.5112430000000  0.5219220000000  0.5544970000000 1.0
C      1  0.5708240000000  0.4772950000000  0.5035320000000 1.0
C      1  0.4730060000000  0.4644740000000  0.4645260000000 1.0
C      1  0.5422830000000  0.4968390000000  0.5312810000000 1.0
C      1  0.4412140000000  0.4774200000000  0.5352710000000 1.0
C      1  0.4837730000000  0.5312380000000  0.5595880000000 1.0
C      1  0.4263350000000  0.4766850000000  0.5128970000000 1.0
C      1  0.4628400000000  0.4813130000000  0.4424010000000 1.0
C      1  0.4648970000000  0.4877870000000  0.5457930000000 1.0
C      1  0.5454180000000  0.4468380000000  0.5302700000000 1.0
C      1  0.4519630000000  0.5337350000000  0.4813980000000 1.0
C      1  0.5050850000000  0.5033660000000  0.4784480000000 1.0
C      1  0.5425710000000  0.4651760000000  0.4695090000000 1.0
C      1  0.4781760000000  0.5347270000000  0.5126300000000 1.0
C      1  0.4729780000000  0.5544710000000  0.4914060000000 1.0
C      1  0.4537870000000  0.5302930000000  0.4519190000000 1.0
C      1  0.4992240000000  0.5132130000000  0.4496490000000 1.0
C      1  0.4984490000000  0.4573700000000  0.4532450000000 1.0
C      1  0.5337400000000  0.4926060000000  0.4770110000000 1.0
C      1  0.4557030000000  0.5031120000000  0.4931960000000 1.0
C      1  0.5320620000000  0.5410820000000  0.5465610000000 1.0
C      1  0.5221820000000  0.5634110000000  0.4883770000000 1.0
C      1  0.5592580000000  0.4710470000000  0.5299620000000 1.0
C      1  0.4968050000000  0.5625890000000  0.4793200000000 1.0
C      1  0.5050480000000  0.5212390000000  0.5066120000000 1.0
C      1  0.4305910000000  0.4889130000000  0.4885600000000 1.0
C      1  0.5115040000000  0.4491930000000  0.5016520000000 1.0
C      1  0.4884170000000  0.4658060000000  0.5088200000000 1.0
C      1  0.5549650000000  0.5306740000000  0.5072460000000 1.0
C      1  0.4904380000000  0.4801510000000  0.5340270000000 1.0
C      1  0.5267500000000  0.5429950000000  0.5081660000000 1.0
C      1  0.4909680000000  0.4900530000000  0.4341150000000 1.0
C      1  0.5187030000000  0.4477360000000  0.4720920000000 1.0
END
