TITL C-3577078-809-139 6.45245202922831e-07 125000 -1146.11682605728 0 0 180 (C1) n - 1
REM
REM in /home/bkarasulu/work/CARBON/AIRSS/Generating-Clusters/EDIP-Nigel-Params/with-SteepDescent/Higher-Symm/SD-CG/HFTN-CG
REM
REM
REM
REM
REM
REM ./C.cell (12c818d87b63d06a65506943cc24bca4)
REM
REM compiler GCC version 9.2.1 20190827 (Red Hat 9.2.1-1)
REM options -cpp -mtune=generic -march=x86-64 -g -O0 -fpre-include=/usr/include/finclude/math-vector-fortran.h
REM seed 227452199 -630202636 -199697263 1474254398 -1121787666 -820470550 -1414852091 -1948611638 -683098783 647614952 -867354202 -1472224519 1841589448 -2005931474 1689274794 -1878478225 -1692833660 168069561 1444618497 1108146641 2057630283 -1127581734 84250315 1493148590 -1616786748 1518422605 713767760 2043710770 888432397 736092346 -2067184584 -740073665 -1781466169
REM
CELL 1.54180   50.00000   50.00000   50.00000   90.00000   90.00000   90.00000
LATT -1
SFAC C  
C      1  0.5498180000000  0.4956330000000  0.5455030000000 1.0
C      1  0.4968200000000  0.4478230000000  0.5462160000000 1.0
C      1  0.4519360000000  0.5032290000000  0.5423140000000 1.0
C      1  0.5045210000000  0.5461250000000  0.5433790000000 1.0
C      1  0.4772160000000  0.4984850000000  0.5887690000000 1.0
C      1  0.5031280000000  0.5138950000000  0.5840980000000 1.0
C      1  0.5248170000000  0.4943030000000  0.5899420000000 1.0
C      1  0.4830200000000  0.4672230000000  0.5920390000000 1.0
C      1  0.5242700000000  0.5621960000000  0.4766780000000 1.0
C      1  0.5628640000000  0.4774270000000  0.4778680000000 1.0
C      1  0.4765610000000  0.4385040000000  0.4769220000000 1.0
C      1  0.4400940000000  0.5240080000000  0.4766120000000 1.0
C      1  0.5360410000000  0.5176860000000  0.4687620000000 1.0
C      1  0.5190950000000  0.4650140000000  0.4664620000000 1.0
C      1  0.4660550000000  0.4817490000000  0.4634450000000 1.0
C      1  0.4827580000000  0.5386460000000  0.4664230000000 1.0
C      1  0.5913710000000  0.5684840000000  0.4699750000000 1.0
C      1  0.5690100000000  0.4067230000000  0.4710210000000 1.0
C      1  0.4062210000000  0.4320910000000  0.4700710000000 1.0
C      1  0.4315970000000  0.5920970000000  0.4707780000000 1.0
C      1  0.4923100000000  0.4730250000000  0.6219840000000 1.0
C      1  0.4766920000000  0.5018250000000  0.6194560000000 1.0
C      1  0.5031640000000  0.5152550000000  0.6225750000000 1.0
C      1  0.5189740000000  0.4894410000000  0.6188730000000 1.0
C      1  0.4960310000000  0.3858530000000  0.5120100000000 1.0
C      1  0.3803670000000  0.5048480000000  0.5092120000000 1.0
C      1  0.5036080000000  0.6164780000000  0.5104250000000 1.0
C      1  0.6172200000000  0.4974200000000  0.5080280000000 1.0
C      1  0.4987430000000  0.6195590000000  0.4829440000000 1.0
C      1  0.6208900000000  0.5017920000000  0.4805880000000 1.0
C      1  0.5007110000000  0.3814770000000  0.4849620000000 1.0
C      1  0.3793880000000  0.5000120000000  0.4815960000000 1.0
C      1  0.3880920000000  0.5306760000000  0.5228250000000 1.0
C      1  0.5298120000000  0.6109540000000  0.5238600000000 1.0
C      1  0.6132440000000  0.4711670000000  0.5217060000000 1.0
C      1  0.4696320000000  0.3912850000000  0.5258130000000 1.0
C      1  0.4462070000000  0.3993310000000  0.4786720000000 1.0
C      1  0.3994540000000  0.5519980000000  0.4771470000000 1.0
C      1  0.5519760000000  0.6014090000000  0.4773940000000 1.0
C      1  0.6018260000000  0.4475140000000  0.4768290000000 1.0
C      1  0.5365800000000  0.5500310000000  0.5798290000000 1.0
C      1  0.5584500000000  0.4653730000000  0.5808010000000 1.0
C      1  0.4565970000000  0.4544620000000  0.5843790000000 1.0
C      1  0.4470020000000  0.5355030000000  0.5798960000000 1.0
C      1  0.4961370000000  0.3975780000000  0.4628360000000 1.0
C      1  0.3992010000000  0.5029260000000  0.4623210000000 1.0
C      1  0.5024990000000  0.6019000000000  0.4617270000000 1.0
C      1  0.6024900000000  0.4970320000000  0.4601890000000 1.0
C      1  0.5366670000000  0.5758790000000  0.4335510000000 1.0
C      1  0.5734840000000  0.4623610000000  0.4355640000000 1.0
C      1  0.4618730000000  0.4249630000000  0.4352030000000 1.0
C      1  0.4245070000000  0.5371840000000  0.4341330000000 1.0
C      1  0.6035720000000  0.5096440000000  0.5536090000000 1.0
C      1  0.5087740000000  0.4060110000000  0.5542330000000 1.0
C      1  0.3949620000000  0.4931950000000  0.5540580000000 1.0
C      1  0.4913500000000  0.6001110000000  0.5550280000000 1.0
C      1  0.4227770000000  0.5434600000000  0.5640790000000 1.0
C      1  0.5430270000000  0.5747500000000  0.5641010000000 1.0
C      1  0.5807970000000  0.4575840000000  0.5630040000000 1.0
C      1  0.4581010000000  0.4337150000000  0.5624190000000 1.0
C      1  0.5287880000000  0.5871410000000  0.4617320000000 1.0
C      1  0.5873330000000  0.4709450000000  0.4620850000000 1.0
C      1  0.4700040000000  0.4128540000000  0.4630930000000 1.0
C      1  0.4143340000000  0.5289450000000  0.4622660000000 1.0
C      1  0.4117910000000  0.4708750000000  0.5647820000000 1.0
C      1  0.4688000000000  0.5820130000000  0.5646930000000 1.0
C      1  0.5855250000000  0.5320880000000  0.5642700000000 1.0
C      1  0.5335990000000  0.4190800000000  0.5656020000000 1.0
C      1  0.4807110000000  0.5908130000000  0.4448590000000 1.0
C      1  0.5890760000000  0.5186230000000  0.4449200000000 1.0
C      1  0.5182800000000  0.4098970000000  0.4475330000000 1.0
C      1  0.4096580000000  0.4810920000000  0.4455310000000 1.0
C      1  0.5628890000000  0.4431820000000  0.5428280000000 1.0
C      1  0.4420150000000  0.4450370000000  0.5400180000000 1.0
C      1  0.4393260000000  0.5570980000000  0.5424850000000 1.0
C      1  0.5575980000000  0.5589530000000  0.5422370000000 1.0
C      1  0.4572720000000  0.5981400000000  0.5213980000000 1.0
C      1  0.5988080000000  0.5432170000000  0.5203030000000 1.0
C      1  0.5441130000000  0.4028480000000  0.5220820000000 1.0
C      1  0.3973240000000  0.4572420000000  0.5216390000000 1.0
C      1  0.5773370000000  0.5927420000000  0.4688080000000 1.0
C      1  0.5926800000000  0.4219350000000  0.4691170000000 1.0
C      1  0.4208780000000  0.4080900000000  0.4698980000000 1.0
C      1  0.4076050000000  0.5776730000000  0.4692400000000 1.0
C      1  0.4507750000000  0.4326920000000  0.5127670000000 1.0
C      1  0.4321980000000  0.5457410000000  0.5145930000000 1.0
C      1  0.5465710000000  0.5674830000000  0.5147080000000 1.0
C      1  0.5693470000000  0.4531420000000  0.5143780000000 1.0
C      1  0.5012320000000  0.4537530000000  0.4875650000000 1.0
C      1  0.4563570000000  0.4993820000000  0.4856970000000 1.0
C      1  0.4997790000000  0.5484360000000  0.4880780000000 1.0
C      1  0.5468840000000  0.4999780000000  0.4901220000000 1.0
C      1  0.4826310000000  0.4696020000000  0.5307160000000 1.0
C      1  0.4739280000000  0.5167430000000  0.5295040000000 1.0
C      1  0.5180150000000  0.5252800000000  0.5293610000000 1.0
C      1  0.5282800000000  0.4802040000000  0.5344810000000 1.0
C      1  0.4812550000000  0.5122160000000  0.3892580000000 1.0
C      1  0.5119290000000  0.5170600000000  0.3901000000000 1.0
C      1  0.5167610000000  0.4861320000000  0.3912880000000 1.0
C      1  0.4861950000000  0.4812430000000  0.3900020000000 1.0
C      1  0.5485510000000  0.4371640000000  0.4947560000000 1.0
C      1  0.4375810000000  0.4534420000000  0.4919520000000 1.0
C      1  0.4525590000000  0.5626220000000  0.4958900000000 1.0
C      1  0.5626550000000  0.5473780000000  0.4958220000000 1.0
C      1  0.4833990000000  0.4386990000000  0.4206410000000 1.0
C      1  0.4380310000000  0.5158150000000  0.4189860000000 1.0
C      1  0.5151450000000  0.5623210000000  0.4181350000000 1.0
C      1  0.5593610000000  0.4834500000000  0.4207220000000 1.0
C      1  0.5867660000000  0.5542790000000  0.5445230000000 1.0
C      1  0.5562090000000  0.4144500000000  0.5462890000000 1.0
C      1  0.4128290000000  0.4485880000000  0.5450360000000 1.0
C      1  0.4465380000000  0.5854310000000  0.5453720000000 1.0
C      1  0.4911410000000  0.5235100000000  0.4424930000000 1.0
C      1  0.5191100000000  0.5109110000000  0.4452730000000 1.0
C      1  0.5134090000000  0.4817770000000  0.4420480000000 1.0
C      1  0.4827370000000  0.4862670000000  0.4388080000000 1.0
C      1  0.5584570000000  0.5275480000000  0.5771920000000 1.0
C      1  0.5328990000000  0.4465730000000  0.5793780000000 1.0
C      1  0.4365570000000  0.4771280000000  0.5802650000000 1.0
C      1  0.4719220000000  0.5542630000000  0.5765000000000 1.0
C      1  0.4534840000000  0.4745050000000  0.5318890000000 1.0
C      1  0.4756140000000  0.5455490000000  0.5346140000000 1.0
C      1  0.5467520000000  0.5241980000000  0.5348430000000 1.0
C      1  0.5266040000000  0.4507700000000  0.5357910000000 1.0
C      1  0.4807170000000  0.5628380000000  0.5085330000000 1.0
C      1  0.5630580000000  0.5191250000000  0.5088380000000 1.0
C      1  0.5205750000000  0.4375920000000  0.5075400000000 1.0
C      1  0.4415840000000  0.4801050000000  0.5040980000000 1.0
C      1  0.3839820000000  0.4827800000000  0.5283660000000 1.0
C      1  0.4816850000000  0.6120880000000  0.5293430000000 1.0
C      1  0.6139140000000  0.5193410000000  0.5272460000000 1.0
C      1  0.5176290000000  0.3930650000000  0.5296740000000 1.0
C      1  0.4370550000000  0.4418000000000  0.4301440000000 1.0
C      1  0.4420180000000  0.5616130000000  0.4306560000000 1.0
C      1  0.5602210000000  0.5571620000000  0.4308800000000 1.0
C      1  0.5570340000000  0.4372840000000  0.4318420000000 1.0
C      1  0.5988410000000  0.4489790000000  0.5067560000000 1.0
C      1  0.4467900000000  0.4032780000000  0.5083870000000 1.0
C      1  0.4030860000000  0.5514720000000  0.5069120000000 1.0
C      1  0.5513310000000  0.5971030000000  0.5075470000000 1.0
C      1  0.4516170000000  0.5820570000000  0.4510500000000 1.0
C      1  0.5807350000000  0.5479410000000  0.4510800000000 1.0
C      1  0.5474140000000  0.4188500000000  0.4543430000000 1.0
C      1  0.4186120000000  0.4522580000000  0.4520960000000 1.0
C      1  0.5229610000000  0.4871780000000  0.5075210000000 1.0
C      1  0.4937400000000  0.4784880000000  0.5051430000000 1.0
C      1  0.4817260000000  0.5065920000000  0.5025990000000 1.0
C      1  0.5079760000000  0.5227330000000  0.5014240000000 1.0
C      1  0.5230110000000  0.5330360000000  0.4135550000000 1.0
C      1  0.5304400000000  0.4743270000000  0.4162090000000 1.0
C      1  0.4746050000000  0.4677830000000  0.4147610000000 1.0
C      1  0.4665350000000  0.5248370000000  0.4127280000000 1.0
C      1  0.4447210000000  0.4661300000000  0.4147850000000 1.0
C      1  0.4654480000000  0.5548600000000  0.4141020000000 1.0
C      1  0.5527260000000  0.5332980000000  0.4155540000000 1.0
C      1  0.5327780000000  0.4444880000000  0.4162560000000 1.0
C      1  0.4296170000000  0.5157460000000  0.5275630000000 1.0
C      1  0.5152270000000  0.5694370000000  0.5271930000000 1.0
C      1  0.5717740000000  0.4852680000000  0.5272500000000 1.0
C      1  0.4831480000000  0.4274030000000  0.5184780000000 1.0
C      1  0.5602200000000  0.3999850000000  0.4977680000000 1.0
C      1  0.4000840000000  0.4434520000000  0.4959150000000 1.0
C      1  0.4412550000000  0.5999110000000  0.4969530000000 1.0
C      1  0.5998600000000  0.5591520000000  0.4959240000000 1.0
C      1  0.4880480000000  0.5695310000000  0.4257050000000 1.0
C      1  0.5669400000000  0.5107050000000  0.4272070000000 1.0
C      1  0.5103470000000  0.4304040000000  0.4279310000000 1.0
C      1  0.4309150000000  0.4887380000000  0.4267810000000 1.0
C      1  0.5517680000000  0.4959700000000  0.5775830000000 1.0
C      1  0.5052280000000  0.4581380000000  0.5738300000000 1.0
C      1  0.4508260000000  0.5051300000000  0.5740230000000 1.0
C      1  0.5062380000000  0.5434780000000  0.5746840000000 1.0
C      1  0.4555270000000  0.5477980000000  0.4694950000000 1.0
C      1  0.5467920000000  0.5446990000000  0.4702940000000 1.0
C      1  0.5461010000000  0.4549070000000  0.4696350000000 1.0
C      1  0.4549790000000  0.4550730000000  0.4668160000000 1.0
C      1  0.5203770000000  0.5915580000000  0.5474490000000 1.0
C      1  0.5952600000000  0.4803530000000  0.5459570000000 1.0
C      1  0.4776290000000  0.4090750000000  0.5529950000000 1.0
C      1  0.4066790000000  0.5210390000000  0.5462090000000 1.0
END
