TITL C-3578205-846-463 2.45426079881461e-06 125000 -762.515563646747 0 0 121 (C1) n - 1
REM
REM in /home/bkarasulu/work/CARBON/AIRSS/Generating-Clusters/EDIP-Nigel-Params/with-SteepDescent/Higher-Symm/SD-CG/HFTN-CG
REM
REM
REM
REM
REM
REM ./C.cell (12c818d87b63d06a65506943cc24bca4)
REM
REM compiler GCC version 9.2.1 20190827 (Red Hat 9.2.1-1)
REM options -cpp -mtune=generic -march=x86-64 -g -O0 -fpre-include=/usr/include/finclude/math-vector-fortran.h
REM seed 556092007 -514602104 -1406802303 1386137385 2117643317 740352754 -506793283 -1925585920 -1556233472 1535507253 1935688051 354010879 85052678 -283406516 -1888207214 1816740148 462842525 -625184696 1130391459 706519497 566208533 -1617291066 -2001289347 162174064 -1575085212 -693310886 -226291021 -360997953 -1718359416 1555352100 1185587214 601080191 -434456034
REM
CELL 1.54180   50.00000   50.00000   50.00000   90.00000   90.00000   90.00000
LATT -1
SFAC C  
C      1  0.4790660000000  0.5803000000000  0.5198010000000 1.0
C      1  0.4892200000000  0.5902760000000  0.4716850000000 1.0
C      1  0.5266600000000  0.5858430000000  0.5073100000000 1.0
C      1  0.3979260000000  0.5152510000000  0.5088860000000 1.0
C      1  0.5488510000000  0.5125340000000  0.4133110000000 1.0
C      1  0.5575860000000  0.5149700000000  0.5830180000000 1.0
C      1  0.4286110000000  0.5296550000000  0.5514880000000 1.0
C      1  0.4894530000000  0.5401280000000  0.4090410000000 1.0
C      1  0.5815720000000  0.5364420000000  0.5366890000000 1.0
C      1  0.4031200000000  0.5165440000000  0.4603780000000 1.0
C      1  0.5876060000000  0.5163660000000  0.4437980000000 1.0
C      1  0.5116020000000  0.5156890000000  0.6022050000000 1.0
C      1  0.5372840000000  0.5732230000000  0.5341100000000 1.0
C      1  0.4501070000000  0.5740530000000  0.5170340000000 1.0
C      1  0.5083950000000  0.5782090000000  0.4477270000000 1.0
C      1  0.5176370000000  0.5278280000000  0.4504580000000 1.0
C      1  0.5348080000000  0.5243490000000  0.5375360000000 1.0
C      1  0.4516070000000  0.5274870000000  0.5089180000000 1.0
C      1  0.5028230000000  0.4124210000000  0.4653610000000 1.0
C      1  0.5280160000000  0.4126140000000  0.5274540000000 1.0
C      1  0.4578850000000  0.4094870000000  0.5193110000000 1.0
C      1  0.5530470000000  0.4745890000000  0.5576130000000 1.0
C      1  0.4280310000000  0.4764170000000  0.5139570000000 1.0
C      1  0.5319660000000  0.4700080000000  0.4301380000000 1.0
C      1  0.5715120000000  0.4893820000000  0.4491170000000 1.0
C      1  0.5201680000000  0.4891680000000  0.5915340000000 1.0
C      1  0.4071370000000  0.4884320000000  0.4700760000000 1.0
C      1  0.5195190000000  0.4793070000000  0.4708850000000 1.0
C      1  0.4991300000000  0.4919220000000  0.5228950000000 1.0
C      1  0.4777420000000  0.4873170000000  0.5009330000000 1.0
C      1  0.4481140000000  0.5450470000000  0.5345890000000 1.0
C      1  0.4898390000000  0.5547220000000  0.4356020000000 1.0
C      1  0.5533370000000  0.5469930000000  0.5274670000000 1.0
C      1  0.5358250000000  0.4464960000000  0.4462680000000 1.0
C      1  0.5301270000000  0.4565030000000  0.5480610000000 1.0
C      1  0.4372430000000  0.4504730000000  0.5016080000000 1.0
C      1  0.5009790000000  0.5536220000000  0.4777860000000 1.0
C      1  0.5105180000000  0.5503960000000  0.5107030000000 1.0
C      1  0.4795980000000  0.5343690000000  0.4961520000000 1.0
C      1  0.4295430000000  0.4830310000000  0.5669170000000 1.0
C      1  0.4863220000000  0.4904460000000  0.4065960000000 1.0
C      1  0.5906680000000  0.4856370000000  0.5278450000000 1.0
C      1  0.5549350000000  0.5029370000000  0.5458530000000 1.0
C      1  0.4513600000000  0.4964180000000  0.5121130000000 1.0
C      1  0.5200330000000  0.5122510000000  0.4244180000000 1.0
C      1  0.5039330000000  0.4649990000000  0.5917770000000 1.0
C      1  0.4289990000000  0.4712730000000  0.4597430000000 1.0
C      1  0.5811110000000  0.4616960000000  0.4600640000000 1.0
C      1  0.4475810000000  0.5327190000000  0.4569600000000 1.0
C      1  0.5596260000000  0.5289180000000  0.4762900000000 1.0
C      1  0.4898610000000  0.5244710000000  0.5622280000000 1.0
C      1  0.5588280000000  0.4419920000000  0.4644830000000 1.0
C      1  0.5118610000000  0.4498470000000  0.5696200000000 1.0
C      1  0.4386260000000  0.4476490000000  0.4730210000000 1.0
C      1  0.5183980000000  0.4688620000000  0.5230800000000 1.0
C      1  0.4870550000000  0.4677770000000  0.4654910000000 1.0
C      1  0.5350560000000  0.4661940000000  0.4979230000000 1.0
C      1  0.5893880000000  0.5302980000000  0.4706270000000 1.0
C      1  0.4845040000000  0.5253260000000  0.5914140000000 1.0
C      1  0.4236080000000  0.5255880000000  0.4396220000000 1.0
C      1  0.5502540000000  0.4390510000000  0.4944440000000 1.0
C      1  0.4635480000000  0.4454800000000  0.5509450000000 1.0
C      1  0.4635850000000  0.4376700000000  0.4613670000000 1.0
C      1  0.4639370000000  0.4874550000000  0.6106540000000 1.0
C      1  0.4281040000000  0.4953540000000  0.4174050000000 1.0
C      1  0.6107420000000  0.4891730000000  0.4842500000000 1.0
C      1  0.5122480000000  0.5088020000000  0.4733950000000 1.0
C      1  0.5151410000000  0.5176830000000  0.5165570000000 1.0
C      1  0.4844230000000  0.5094570000000  0.4816230000000 1.0
C      1  0.5328270000000  0.5317660000000  0.5875530000000 1.0
C      1  0.4055120000000  0.5328460000000  0.4856460000000 1.0
C      1  0.5649990000000  0.5317670000000  0.4296140000000 1.0
C      1  0.4347490000000  0.4414600000000  0.5452540000000 1.0
C      1  0.4903320000000  0.4483590000000  0.4320890000000 1.0
C      1  0.5697920000000  0.4402590000000  0.5261120000000 1.0
C      1  0.4748860000000  0.4691500000000  0.5921580000000 1.0
C      1  0.4417470000000  0.4759880000000  0.4341620000000 1.0
C      1  0.5903980000000  0.4695730000000  0.4864750000000 1.0
C      1  0.4627230000000  0.5568860000000  0.4473450000000 1.0
C      1  0.5526200000000  0.5477590000000  0.4978180000000 1.0
C      1  0.4728270000000  0.5458690000000  0.5507300000000 1.0
C      1  0.4856080000000  0.4957120000000  0.5498630000000 1.0
C      1  0.4669000000000  0.5097440000000  0.4585690000000 1.0
C      1  0.5539880000000  0.4978340000000  0.4736110000000 1.0
C      1  0.4886820000000  0.5683920000000  0.5440860000000 1.0
C      1  0.4632340000000  0.5755130000000  0.4691410000000 1.0
C      1  0.5407800000000  0.5709390000000  0.4862870000000 1.0
C      1  0.4436510000000  0.5171970000000  0.4077640000000 1.0
C      1  0.6030760000000  0.5152930000000  0.4924740000000 1.0
C      1  0.4590710000000  0.5105010000000  0.5948050000000 1.0
C      1  0.4748990000000  0.4129010000000  0.4713350000000 1.0
C      1  0.5312160000000  0.4166830000000  0.4991200000000 1.0
C      1  0.4772160000000  0.4245360000000  0.5350570000000 1.0
C      1  0.5769860000000  0.4643030000000  0.5420020000000 1.0
C      1  0.4217160000000  0.4680730000000  0.5431760000000 1.0
C      1  0.5044620000000  0.4709820000000  0.4188960000000 1.0
C      1  0.5453540000000  0.5407170000000  0.4519390000000 1.0
C      1  0.5190320000000  0.5360090000000  0.5608730000000 1.0
C      1  0.4352470000000  0.5401840000000  0.4854260000000 1.0
C      1  0.5100680000000  0.4341370000000  0.4483360000000 1.0
C      1  0.5455180000000  0.4320100000000  0.5403770000000 1.0
C      1  0.4342600000000  0.4272600000000  0.5192000000000 1.0
C      1  0.5162150000000  0.5646790000000  0.5525990000000 1.0
C      1  0.4419660000000  0.5695710000000  0.4890640000000 1.0
C      1  0.5364840000000  0.5694820000000  0.4573010000000 1.0
C      1  0.5156420000000  0.5300000000000  0.4019660000000 1.0
C      1  0.5801810000000  0.5248050000000  0.5640700000000 1.0
C      1  0.4080600000000  0.5213430000000  0.5345510000000 1.0
C      1  0.4723990000000  0.5158710000000  0.4098090000000 1.0
C      1  0.5879900000000  0.5132850000000  0.5182870000000 1.0
C      1  0.4417520000000  0.5087790000000  0.5689850000000 1.0
C      1  0.4665820000000  0.4738280000000  0.5637270000000 1.0
C      1  0.4699010000000  0.4852870000000  0.4415020000000 1.0
C      1  0.5647000000000  0.4821780000000  0.4986210000000 1.0
C      1  0.5217260000000  0.3982930000000  0.4802750000000 1.0
C      1  0.5023830000000  0.4133200000000  0.5385300000000 1.0
C      1  0.4647590000000  0.4002780000000  0.4938640000000 1.0
C      1  0.4037930000000  0.4877550000000  0.4995360000000 1.0
C      1  0.5551730000000  0.4856920000000  0.4245130000000 1.0
C      1  0.5488650000000  0.4857400000000  0.5857160000000 1.0
C      1  0.4978060000000  0.5913280000000  0.5005840000000 1.0
END
