TITL C-3578206-1180-708 -2.61034465287825e-06 125000 -1096.77991501733 0 0 180 (C1) n - 1
REM
REM in /home/bkarasulu/work/CARBON/AIRSS/Generating-Clusters/EDIP-Nigel-Params/with-SteepDescent/Higher-Symm/SD-CG/HFTN-CG
REM
REM
REM
REM
REM
REM ./C.cell (12c818d87b63d06a65506943cc24bca4)
REM
REM compiler GCC version 9.2.1 20190827 (Red Hat 9.2.1-1)
REM options -cpp -mtune=generic -march=x86-64 -g -O0 -fpre-include=/usr/include/finclude/math-vector-fortran.h
REM seed -552943374 -984921030 811938445 28694207 -2009643268 -1179815035 1532056742 1176260634 -755562112 990920686 -1820997409 1188871014 1573813139 -1952846478 -1978465627 824400937 229403047 102345211 -1581984582 1706857682 1875840917 1002612778 265001883 898272978 405890098 1104241982 129779531 -564638580 -1368638252 754254541 139821733 -1785535564 -916648746
REM
CELL 1.54180   50.00000   50.00000   50.00000   90.00000   90.00000   90.00000
LATT -1
SFAC C  
C      1  0.4869730000000  0.4383670000000  0.5764450000000 1.0
C      1  0.5733080000000  0.4929830000000  0.4394970000000 1.0
C      1  0.4306520000000  0.5872000000000  0.4799170000000 1.0
C      1  0.5166880000000  0.5747040000000  0.5778420000000 1.0
C      1  0.5023710000000  0.4370900000000  0.4301500000000 1.0
C      1  0.4865380000000  0.5720670000000  0.4223150000000 1.0
C      1  0.4326140000000  0.5048470000000  0.4389460000000 1.0
C      1  0.4430420000000  0.4840200000000  0.5534250000000 1.0
C      1  0.5562800000000  0.5229190000000  0.5599990000000 1.0
C      1  0.5566330000000  0.4340890000000  0.4887120000000 1.0
C      1  0.5514460000000  0.5671790000000  0.5161020000000 1.0
C      1  0.4478050000000  0.4332410000000  0.5004210000000 1.0
C      1  0.4758450000000  0.4515420000000  0.4358030000000 1.0
C      1  0.5623130000000  0.4926490000000  0.5658420000000 1.0
C      1  0.4461130000000  0.5705090000000  0.4984190000000 1.0
C      1  0.5065330000000  0.5542800000000  0.4333130000000 1.0
C      1  0.5144460000000  0.4468920000000  0.5755990000000 1.0
C      1  0.4931920000000  0.5577810000000  0.5770400000000 1.0
C      1  0.4353660000000  0.5096060000000  0.5632960000000 1.0
C      1  0.4166050000000  0.4841480000000  0.4275600000000 1.0
C      1  0.5855770000000  0.5167340000000  0.4312850000000 1.0
C      1  0.5552190000000  0.4395880000000  0.5178110000000 1.0
C      1  0.5660470000000  0.5719730000000  0.4917780000000 1.0
C      1  0.4300230000000  0.4206090000000  0.4796190000000 1.0
C      1  0.4546760000000  0.4824290000000  0.4045230000000 1.0
C      1  0.4013260000000  0.4730250000000  0.4813480000000 1.0
C      1  0.4744670000000  0.4162970000000  0.4617080000000 1.0
C      1  0.5289180000000  0.5185420000000  0.4047810000000 1.0
C      1  0.5432640000000  0.4870340000000  0.5878340000000 1.0
C      1  0.4648200000000  0.5193750000000  0.6064310000000 1.0
C      1  0.6011050000000  0.5277560000000  0.4831340000000 1.0
C      1  0.5977490000000  0.4743530000000  0.5221530000000 1.0
C      1  0.4135630000000  0.5332760000000  0.5211300000000 1.0
C      1  0.5252980000000  0.5840640000000  0.4596560000000 1.0
C      1  0.5244830000000  0.4052880000000  0.5305650000000 1.0
C      1  0.4786410000000  0.5894040000000  0.5284460000000 1.0
C      1  0.4693460000000  0.4752870000000  0.6070380000000 1.0
C      1  0.4146820000000  0.4610090000000  0.5221010000000 1.0
C      1  0.4778790000000  0.4043690000000  0.5302490000000 1.0
C      1  0.5356620000000  0.5310300000000  0.5846280000000 1.0
C      1  0.5383180000000  0.4737090000000  0.4091940000000 1.0
C      1  0.4664830000000  0.5264190000000  0.3960290000000 1.0
C      1  0.5941490000000  0.5316400000000  0.5281680000000 1.0
C      1  0.5847680000000  0.4656790000000  0.4768600000000 1.0
C      1  0.4131320000000  0.5280640000000  0.4769550000000 1.0
C      1  0.5212350000000  0.6021110000000  0.5265180000000 1.0
C      1  0.5259220000000  0.4142820000000  0.4591240000000 1.0
C      1  0.4759840000000  0.5860970000000  0.4629630000000 1.0
C      1  0.4258530000000  0.3937820000000  0.4885980000000 1.0
C      1  0.4763280000000  0.4378730000000  0.3919170000000 1.0
C      1  0.3887290000000  0.4881520000000  0.4328810000000 1.0
C      1  0.5725360000000  0.5995010000000  0.4912790000000 1.0
C      1  0.5682970000000  0.3957290000000  0.5108900000000 1.0
C      1  0.4389530000000  0.6150270000000  0.5163310000000 1.0
C      1  0.5140040000000  0.5618180000000  0.3872840000000 1.0
C      1  0.5094330000000  0.4143510000000  0.6078110000000 1.0
C      1  0.4821670000000  0.5658910000000  0.6039050000000 1.0
C      1  0.6137810000000  0.5123220000000  0.4350590000000 1.0
C      1  0.5910850000000  0.4920140000000  0.5748940000000 1.0
C      1  0.4070890000000  0.5087440000000  0.5687620000000 1.0
C      1  0.4332590000000  0.3894270000000  0.5149150000000 1.0
C      1  0.4833360000000  0.4214560000000  0.5993160000000 1.0
C      1  0.3964880000000  0.4832910000000  0.5620530000000 1.0
C      1  0.5678670000000  0.6104370000000  0.5167540000000 1.0
C      1  0.5680690000000  0.4071530000000  0.4842310000000 1.0
C      1  0.4322410000000  0.6139230000000  0.4893860000000 1.0
C      1  0.5118450000000  0.5675030000000  0.6152130000000 1.0
C      1  0.5019460000000  0.4308300000000  0.4014990000000 1.0
C      1  0.4884380000000  0.5724770000000  0.3937680000000 1.0
C      1  0.6025780000000  0.5176830000000  0.5730070000000 1.0
C      1  0.6139200000000  0.4846400000000  0.4422750000000 1.0
C      1  0.3856910000000  0.5153590000000  0.4399230000000 1.0
C      1  0.5608000000000  0.5765040000000  0.5906420000000 1.0
C      1  0.5863090000000  0.5644100000000  0.5654080000000 1.0
C      1  0.5637180000000  0.5837340000000  0.5616380000000 1.0
C      1  0.4363480000000  0.4431120000000  0.5909040000000 1.0
C      1  0.4439250000000  0.5603230000000  0.4238400000000 1.0
C      1  0.5623240000000  0.4308380000000  0.4220100000000 1.0
C      1  0.4244500000000  0.4414140000000  0.5658370000000 1.0
C      1  0.4178060000000  0.5521050000000  0.4325790000000 1.0
C      1  0.5825790000000  0.4481850000000  0.4305590000000 1.0
C      1  0.4353620000000  0.4224920000000  0.5487580000000 1.0
C      1  0.4362340000000  0.5860970000000  0.4332370000000 1.0
C      1  0.5620110000000  0.4057240000000  0.4345540000000 1.0
C      1  0.5517390000000  0.5605090000000  0.4182720000000 1.0
C      1  0.5914450000000  0.5580340000000  0.4454770000000 1.0
C      1  0.5681040000000  0.5714940000000  0.4383060000000 1.0
C      1  0.4325410000000  0.4381540000000  0.4191120000000 1.0
C      1  0.4360260000000  0.5555160000000  0.5897700000000 1.0
C      1  0.5503640000000  0.4157380000000  0.5807810000000 1.0
C      1  0.4174160000000  0.4435010000000  0.4439560000000 1.0
C      1  0.4253910000000  0.5585830000000  0.5638860000000 1.0
C      1  0.5825500000000  0.4416420000000  0.5589410000000 1.0
C      1  0.4347530000000  0.4114610000000  0.4307680000000 1.0
C      1  0.4353540000000  0.5778410000000  0.5464810000000 1.0
C      1  0.5668580000000  0.4183810000000  0.5584510000000 1.0
C      1  0.5106990000000  0.4785210000000  0.4169420000000 1.0
C      1  0.4348110000000  0.5100250000000  0.4856080000000 1.0
C      1  0.4883580000000  0.4117740000000  0.5048890000000 1.0
C      1  0.4803970000000  0.5174960000000  0.4206710000000 1.0
C      1  0.4954230000000  0.4857870000000  0.5990050000000 1.0
C      1  0.5047240000000  0.5297190000000  0.5793790000000 1.0
C      1  0.5642030000000  0.4849850000000  0.4872800000000 1.0
C      1  0.5714080000000  0.5171560000000  0.5168190000000 1.0
C      1  0.4402420000000  0.4638510000000  0.5081200000000 1.0
C      1  0.5145370000000  0.5876030000000  0.5021170000000 1.0
C      1  0.5280440000000  0.4320890000000  0.4822450000000 1.0
C      1  0.4729800000000  0.5646970000000  0.4844100000000 1.0
C      1  0.5163640000000  0.4767380000000  0.5786150000000 1.0
C      1  0.4372390000000  0.5190820000000  0.5133980000000 1.0
C      1  0.4754630000000  0.4306980000000  0.4878710000000 1.0
C      1  0.4926540000000  0.5144630000000  0.6017830000000 1.0
C      1  0.4610430000000  0.4965300000000  0.4302780000000 1.0
C      1  0.5037850000000  0.5047300000000  0.4066440000000 1.0
C      1  0.5723210000000  0.4869760000000  0.5176200000000 1.0
C      1  0.5738220000000  0.5176550000000  0.4858030000000 1.0
C      1  0.4293970000000  0.4800700000000  0.4846360000000 1.0
C      1  0.5191700000000  0.5602610000000  0.4750190000000 1.0
C      1  0.5149650000000  0.4180480000000  0.5064320000000 1.0
C      1  0.4914430000000  0.5717030000000  0.5090360000000 1.0
C      1  0.5289730000000  0.4286960000000  0.5931900000000 1.0
C      1  0.6083720000000  0.5365950000000  0.4553030000000 1.0
C      1  0.4490510000000  0.5886120000000  0.5235180000000 1.0
C      1  0.4572040000000  0.5481040000000  0.6072290000000 1.0
C      1  0.4590860000000  0.4520010000000  0.4110720000000 1.0
C      1  0.5263900000000  0.5487040000000  0.4104170000000 1.0
C      1  0.3960090000000  0.4635440000000  0.4527700000000 1.0
C      1  0.4097730000000  0.5359430000000  0.5513680000000 1.0
C      1  0.5905540000000  0.4688320000000  0.5526320000000 1.0
C      1  0.5544140000000  0.4125510000000  0.5309560000000 1.0
C      1  0.5552540000000  0.5887890000000  0.4592320000000 1.0
C      1  0.4463130000000  0.4060550000000  0.4577020000000 1.0
C      1  0.5364940000000  0.4431910000000  0.4122580000000 1.0
C      1  0.5857750000000  0.5353760000000  0.5573840000000 1.0
C      1  0.4485130000000  0.5976860000000  0.4577030000000 1.0
C      1  0.4606470000000  0.5556470000000  0.3984300000000 1.0
C      1  0.4613870000000  0.4462740000000  0.6043730000000 1.0
C      1  0.5358960000000  0.5610280000000  0.5958040000000 1.0
C      1  0.4184240000000  0.4671180000000  0.5514170000000 1.0
C      1  0.4118870000000  0.5262750000000  0.4469040000000 1.0
C      1  0.5893320000000  0.4707010000000  0.4474490000000 1.0
C      1  0.5513100000000  0.3987760000000  0.4595380000000 1.0
C      1  0.5503100000000  0.5925180000000  0.5319270000000 1.0
C      1  0.4479710000000  0.4121920000000  0.5250790000000 1.0
C      1  0.5028230000000  0.4596760000000  0.5169620000000 1.0
C      1  0.5070370000000  0.4819370000000  0.4466800000000 1.0
C      1  0.4735380000000  0.5096200000000  0.4884640000000 1.0
C      1  0.5320980000000  0.5438060000000  0.5168800000000 1.0
C      1  0.5173140000000  0.4615440000000  0.4748740000000 1.0
C      1  0.4762390000000  0.5358020000000  0.4715090000000 1.0
C      1  0.4936030000000  0.5305500000000  0.4461620000000 1.0
C      1  0.4871650000000  0.4715050000000  0.5373260000000 1.0
C      1  0.4971090000000  0.5150760000000  0.5554500000000 1.0
C      1  0.5327220000000  0.4849740000000  0.4916130000000 1.0
C      1  0.5449960000000  0.5205080000000  0.5313310000000 1.0
C      1  0.4605290000000  0.4820660000000  0.5293570000000 1.0
C      1  0.4905770000000  0.4584370000000  0.4895800000000 1.0
C      1  0.5078530000000  0.4887910000000  0.5502910000000 1.0
C      1  0.4651780000000  0.5106370000000  0.5182600000000 1.0
C      1  0.5313900000000  0.5374300000000  0.4881400000000 1.0
C      1  0.5311900000000  0.4551570000000  0.5241120000000 1.0
C      1  0.5022800000000  0.5486180000000  0.5231200000000 1.0
C      1  0.4834420000000  0.5290690000000  0.5346300000000 1.0
C      1  0.4772790000000  0.4780570000000  0.4488080000000 1.0
C      1  0.5135110000000  0.5098290000000  0.4540820000000 1.0
C      1  0.5296890000000  0.4937030000000  0.5273290000000 1.0
C      1  0.5225200000000  0.5110400000000  0.4806240000000 1.0
C      1  0.4730440000000  0.4806490000000  0.4782140000000 1.0
C      1  0.4975550000000  0.6056400000000  0.5421140000000 1.0
C      1  0.6104020000000  0.5406990000000  0.5067330000000 1.0
C      1  0.5013330000000  0.3969660000000  0.5455370000000 1.0
C      1  0.5009570000000  0.5992750000000  0.4571390000000 1.0
C      1  0.4993470000000  0.4048700000000  0.4509800000000 1.0
C      1  0.4519110000000  0.4958650000000  0.6163230000000 1.0
C      1  0.5494160000000  0.4990410000000  0.4001530000000 1.0
C      1  0.3922860000000  0.4602840000000  0.5050030000000 1.0
C      1  0.3971320000000  0.5380930000000  0.4984360000000 1.0
C      1  0.6035270000000  0.4603460000000  0.4978130000000 1.0
C      1  0.5414150000000  0.5101720000000  0.6040770000000 1.0
C      1  0.4529230000000  0.5036710000000  0.3848280000000 1.0
END
