TITL C-3577091-527-721 -2.76599485929626e-06 125000 -1252.55625374472 0 0 196 (C1) n - 1
REM
REM in /home/bkarasulu/work/CARBON/AIRSS/Generating-Clusters/EDIP-Nigel-Params/with-SteepDescent/Higher-Symm/SD-CG/HFTN-CG
REM
REM
REM
REM
REM
REM ./C.cell (12c818d87b63d06a65506943cc24bca4)
REM
REM compiler GCC version 9.2.1 20190827 (Red Hat 9.2.1-1)
REM options -cpp -mtune=generic -march=x86-64 -g -O0 -fpre-include=/usr/include/finclude/math-vector-fortran.h
REM seed 897708057 -760477236 -324569374 1174337407 -1694935545 1577792003 -469120849 -422594781 1137299125 1704251234 -979924461 -2100465381 -394426182 1720486664 -46981181 900109056 1440314300 -165623122 1327753368 256521423 637137559 -135041752 -127386042 1170967780 -1821279060 1319692510 1641877749 -1620805489 -1159737389 979605868 -269439093 -58669901 -1383275030
REM
CELL 1.54180   50.00000   50.00000   50.00000   90.00000   90.00000   90.00000
LATT -1
SFAC C  
C      1  0.4645680000000  0.5932220000000  0.5313070000000 1.0
C      1  0.5864070000000  0.5318580000000  0.4608550000000 1.0
C      1  0.5314420000000  0.4584850000000  0.5864730000000 1.0
C      1  0.4598130000000  0.4103580000000  0.4616190000000 1.0
C      1  0.5426830000000  0.5854440000000  0.4679610000000 1.0
C      1  0.5426720000000  0.4149650000000  0.5319960000000 1.0
C      1  0.5761890000000  0.4662510000000  0.5353580000000 1.0
C      1  0.4150700000000  0.5381530000000  0.5424270000000 1.0
C      1  0.4141720000000  0.4628480000000  0.4606870000000 1.0
C      1  0.5316560000000  0.5399710000000  0.4167550000000 1.0
C      1  0.4584410000000  0.4596440000000  0.4110150000000 1.0
C      1  0.4622500000000  0.5523250000000  0.5898220000000 1.0
C      1  0.5194900000000  0.4400930000000  0.4719140000000 1.0
C      1  0.4595110000000  0.4762750000000  0.5402230000000 1.0
C      1  0.4667960000000  0.5448650000000  0.4595180000000 1.0
C      1  0.5397920000000  0.5549090000000  0.5276580000000 1.0
C      1  0.4708410000000  0.4541670000000  0.5221780000000 1.0
C      1  0.4580280000000  0.5339200000000  0.4867930000000 1.0
C      1  0.4326650000000  0.5176660000000  0.4808830000000 1.0
C      1  0.5462850000000  0.4746610000000  0.4515510000000 1.0
C      1  0.5541570000000  0.5223460000000  0.5337330000000 1.0
C      1  0.4807910000000  0.4878270000000  0.5564630000000 1.0
C      1  0.5208590000000  0.5386630000000  0.5463910000000 1.0
C      1  0.5189830000000  0.4596830000000  0.4497710000000 1.0
C      1  0.5071560000000  0.4974380000000  0.6056940000000 1.0
C      1  0.4987360000000  0.6267140000000  0.5122940000000 1.0
C      1  0.6171450000000  0.5154020000000  0.4952020000000 1.0
C      1  0.5136850000000  0.5039680000000  0.3859010000000 1.0
C      1  0.4861180000000  0.4946180000000  0.3853660000000 1.0
C      1  0.4793130000000  0.5069110000000  0.6042880000000 1.0
C      1  0.5000770000000  0.3853480000000  0.4829810000000 1.0
C      1  0.5098990000000  0.6217930000000  0.4851170000000 1.0
C      1  0.5091120000000  0.3876530000000  0.5101540000000 1.0
C      1  0.6107960000000  0.4882370000000  0.5037720000000 1.0
C      1  0.3805400000000  0.5126060000000  0.5058070000000 1.0
C      1  0.3818480000000  0.4848580000000  0.4947390000000 1.0
C      1  0.5132170000000  0.5409460000000  0.4417410000000 1.0
C      1  0.5310980000000  0.4396330000000  0.5175660000000 1.0
C      1  0.4294740000000  0.5123000000000  0.5485500000000 1.0
C      1  0.5149690000000  0.4601970000000  0.5622170000000 1.0
C      1  0.4774240000000  0.5402400000000  0.5664330000000 1.0
C      1  0.4655540000000  0.4581840000000  0.4493570000000 1.0
C      1  0.5372860000000  0.5613150000000  0.4847220000000 1.0
C      1  0.4685040000000  0.4373100000000  0.4737920000000 1.0
C      1  0.4745090000000  0.5715390000000  0.5151290000000 1.0
C      1  0.4424410000000  0.4763330000000  0.4604240000000 1.0
C      1  0.5634140000000  0.5152370000000  0.4701980000000 1.0
C      1  0.5463420000000  0.4734160000000  0.5254140000000 1.0
C      1  0.5549970000000  0.4806190000000  0.5812150000000 1.0
C      1  0.4814080000000  0.5898300000000  0.5581160000000 1.0
C      1  0.5835900000000  0.5575240000000  0.4785200000000 1.0
C      1  0.5554650000000  0.5180670000000  0.4223170000000 1.0
C      1  0.4347000000000  0.4803780000000  0.4169160000000 1.0
C      1  0.4351770000000  0.5379870000000  0.5882780000000 1.0
C      1  0.4733500000000  0.4130120000000  0.4334280000000 1.0
C      1  0.5247430000000  0.5837210000000  0.4430300000000 1.0
C      1  0.5236610000000  0.4154820000000  0.5580390000000 1.0
C      1  0.5838480000000  0.4411810000000  0.5192800000000 1.0
C      1  0.4268020000000  0.5580550000000  0.5189730000000 1.0
C      1  0.4177740000000  0.4378350000000  0.4800470000000 1.0
C      1  0.4511850000000  0.4774040000000  0.4881720000000 1.0
C      1  0.4664880000000  0.5182680000000  0.4435380000000 1.0
C      1  0.4952720000000  0.4371650000000  0.4864990000000 1.0
C      1  0.4343150000000  0.4959030000000  0.5021340000000 1.0
C      1  0.5616610000000  0.4663010000000  0.4783820000000 1.0
C      1  0.5690260000000  0.4943950000000  0.4904570000000 1.0
C      1  0.4714140000000  0.5105240000000  0.5741430000000 1.0
C      1  0.5263160000000  0.4820450000000  0.5464920000000 1.0
C      1  0.5161320000000  0.5144570000000  0.4505660000000 1.0
C      1  0.5030680000000  0.5663490000000  0.5178350000000 1.0
C      1  0.5012980000000  0.4309000000000  0.5157320000000 1.0
C      1  0.5096640000000  0.5538330000000  0.4907050000000 1.0
C      1  0.4757060000000  0.4333150000000  0.6040650000000 1.0
C      1  0.4416400000000  0.5995840000000  0.4786110000000 1.0
C      1  0.6099650000000  0.4747970000000  0.4323670000000 1.0
C      1  0.4753430000000  0.5653920000000  0.3933790000000 1.0
C      1  0.5185430000000  0.4363140000000  0.4132430000000 1.0
C      1  0.5181430000000  0.5677040000000  0.6029420000000 1.0
C      1  0.4392420000000  0.3959830000000  0.5194410000000 1.0
C      1  0.5668360000000  0.6065840000000  0.5266850000000 1.0
C      1  0.5733140000000  0.3915490000000  0.4753300000000 1.0
C      1  0.5948010000000  0.5219970000000  0.5646280000000 1.0
C      1  0.3973200000000  0.4722290000000  0.5622880000000 1.0
C      1  0.4004900000000  0.5212980000000  0.4361800000000 1.0
C      1  0.4797000000000  0.5156120000000  0.4932500000000 1.0
C      1  0.5265020000000  0.5064590000000  0.4927440000000 1.0
C      1  0.5010420000000  0.4928870000000  0.5352230000000 1.0
C      1  0.4934430000000  0.4737300000000  0.5115490000000 1.0
C      1  0.5058200000000  0.5251580000000  0.5011110000000 1.0
C      1  0.5149750000000  0.4822160000000  0.4808690000000 1.0
C      1  0.5491080000000  0.5003030000000  0.5108900000000 1.0
C      1  0.4447040000000  0.4988390000000  0.5287590000000 1.0
C      1  0.4800070000000  0.4875350000000  0.4871260000000 1.0
C      1  0.4907840000000  0.5015790000000  0.4465450000000 1.0
C      1  0.4910080000000  0.4731970000000  0.4467940000000 1.0
C      1  0.5039470000000  0.5218010000000  0.5297730000000 1.0
C      1  0.5510080000000  0.5168400000000  0.5961600000000 1.0
C      1  0.5129200000000  0.6009240000000  0.5551840000000 1.0
C      1  0.5935100000000  0.5581840000000  0.5161940000000 1.0
C      1  0.5569450000000  0.4837100000000  0.4056550000000 1.0
C      1  0.4438310000000  0.5133230000000  0.4058530000000 1.0
C      1  0.4388380000000  0.4798950000000  0.5959490000000 1.0
C      1  0.5251700000000  0.3985770000000  0.4400080000000 1.0
C      1  0.4928550000000  0.5925760000000  0.4461620000000 1.0
C      1  0.4874870000000  0.4002950000000  0.5556860000000 1.0
C      1  0.5886610000000  0.4488590000000  0.4839110000000 1.0
C      1  0.4102180000000  0.5529700000000  0.4888000000000 1.0
C      1  0.4090000000000  0.4438050000000  0.5111150000000 1.0
C      1  0.4856320000000  0.5395570000000  0.3920850000000 1.0
C      1  0.5470450000000  0.3900440000000  0.4849100000000 1.0
C      1  0.3881910000000  0.4840450000000  0.5390630000000 1.0
C      1  0.4832600000000  0.4599800000000  0.6081350000000 1.0
C      1  0.5086880000000  0.5427130000000  0.6107660000000 1.0
C      1  0.5104480000000  0.4605440000000  0.4007230000000 1.0
C      1  0.5421770000000  0.6105830000000  0.5146550000000 1.0
C      1  0.4646490000000  0.3920990000000  0.5096530000000 1.0
C      1  0.4639620000000  0.6144930000000  0.4851450000000 1.0
C      1  0.3985130000000  0.5115140000000  0.4624960000000 1.0
C      1  0.6095000000000  0.4863870000000  0.4578020000000 1.0
C      1  0.5968170000000  0.5139500000000  0.5380060000000 1.0
C      1  0.4506620000000  0.4484940000000  0.4978180000000 1.0
C      1  0.4394440000000  0.5046440000000  0.4475430000000 1.0
C      1  0.5031940000000  0.4153460000000  0.4279470000000 1.0
C      1  0.4546970000000  0.5514650000000  0.5102830000000 1.0
C      1  0.5402740000000  0.4476100000000  0.4902400000000 1.0
C      1  0.5595370000000  0.5478830000000  0.4994520000000 1.0
C      1  0.4405540000000  0.5101960000000  0.5764750000000 1.0
C      1  0.5428050000000  0.5039480000000  0.5604210000000 1.0
C      1  0.5450430000000  0.5047800000000  0.4485340000000 1.0
C      1  0.4987420000000  0.5595100000000  0.5559610000000 1.0
C      1  0.4997400000000  0.4363710000000  0.5492880000000 1.0
C      1  0.4956430000000  0.5570080000000  0.4610850000000 1.0
C      1  0.3921470000000  0.4829480000000  0.4672600000000 1.0
C      1  0.4827410000000  0.4673710000000  0.3947890000000 1.0
C      1  0.4705850000000  0.3888090000000  0.4809470000000 1.0
C      1  0.3875480000000  0.5135230000000  0.5342620000000 1.0
C      1  0.5980800000000  0.4864240000000  0.5299030000000 1.0
C      1  0.6123590000000  0.5157840000000  0.4650520000000 1.0
C      1  0.4793890000000  0.5376420000000  0.6124970000000 1.0
C      1  0.5115430000000  0.4687030000000  0.6079740000000 1.0
C      1  0.5145960000000  0.5330610000000  0.3917820000000 1.0
C      1  0.4697260000000  0.6189050000000  0.5142290000000 1.0
C      1  0.5379310000000  0.3912030000000  0.5133190000000 1.0
C      1  0.5375450000000  0.6110270000000  0.4855020000000 1.0
C      1  0.5903700000000  0.4544140000000  0.4333270000000 1.0
C      1  0.4585070000000  0.4340900000000  0.5820560000000 1.0
C      1  0.4410880000000  0.5803070000000  0.4589930000000 1.0
C      1  0.5774510000000  0.5438280000000  0.5641920000000 1.0
C      1  0.4171990000000  0.4528690000000  0.5609340000000 1.0
C      1  0.4186620000000  0.5424570000000  0.4379600000000 1.0
C      1  0.4565180000000  0.5646920000000  0.4140490000000 1.0
C      1  0.5467760000000  0.4350980000000  0.4188980000000 1.0
C      1  0.5347370000000  0.5629770000000  0.5809840000000 1.0
C      1  0.4412720000000  0.4158030000000  0.5389950000000 1.0
C      1  0.5623470000000  0.5865200000000  0.5458510000000 1.0
C      1  0.5723050000000  0.4112020000000  0.4551100000000 1.0
C      1  0.5254770000000  0.5184160000000  0.6103220000000 1.0
C      1  0.5189200000000  0.6171800000000  0.5312060000000 1.0
C      1  0.6071510000000  0.5322360000000  0.5178790000000 1.0
C      1  0.5297270000000  0.4820240000000  0.3959830000000 1.0
C      1  0.4678710000000  0.5163430000000  0.3890660000000 1.0
C      1  0.4634390000000  0.4820330000000  0.6119290000000 1.0
C      1  0.5242300000000  0.3861660000000  0.4666790000000 1.0
C      1  0.4886340000000  0.6103480000000  0.4697010000000 1.0
C      1  0.4871550000000  0.3908350000000  0.5277740000000 1.0
C      1  0.6098180000000  0.4695590000000  0.4817970000000 1.0
C      1  0.3910520000000  0.5304180000000  0.4848500000000 1.0
C      1  0.3913610000000  0.4672100000000  0.5152780000000 1.0
C      1  0.4620430000000  0.4158310000000  0.5599130000000 1.0
C      1  0.4244790000000  0.5573340000000  0.4627330000000 1.0
C      1  0.5661060000000  0.4573280000000  0.4163780000000 1.0
C      1  0.4637200000000  0.5779840000000  0.4396710000000 1.0
C      1  0.5514100000000  0.4113810000000  0.4347150000000 1.0
C      1  0.5365730000000  0.5836050000000  0.5607530000000 1.0
C      1  0.4211680000000  0.4362870000000  0.5372390000000 1.0
C      1  0.5798530000000  0.5637320000000  0.5430130000000 1.0
C      1  0.5903600000000  0.4343150000000  0.4564450000000 1.0
C      1  0.5562500000000  0.5433790000000  0.5834640000000 1.0
C      1  0.4369090000000  0.4538850000000  0.5818540000000 1.0
C      1  0.4387740000000  0.5408730000000  0.4173570000000 1.0
C      1  0.5746840000000  0.4626100000000  0.5654000000000 1.0
C      1  0.4592380000000  0.5815760000000  0.5791610000000 1.0
C      1  0.5711660000000  0.5784650000000  0.4597500000000 1.0
C      1  0.5783130000000  0.5372380000000  0.4319860000000 1.0
C      1  0.4153660000000  0.4570610000000  0.4309480000000 1.0
C      1  0.4186940000000  0.5536070000000  0.5689310000000 1.0
C      1  0.4538370000000  0.4302000000000  0.4182970000000 1.0
C      1  0.5410200000000  0.5688250000000  0.4215720000000 1.0
C      1  0.5413820000000  0.4293930000000  0.5796760000000 1.0
C      1  0.5710800000000  0.4219460000000  0.5388150000000 1.0
C      1  0.4349970000000  0.5848740000000  0.5350650000000 1.0
C      1  0.4294760000000  0.4167490000000  0.4595610000000 1.0
C      1  0.4273150000000  0.4293060000000  0.4317730000000 1.0
C      1  0.4324900000000  0.5800300000000  0.5644390000000 1.0
C      1  0.5685850000000  0.4336250000000  0.5669220000000 1.0
C      1  0.5692070000000  0.5661010000000  0.4320620000000 1.0
END
