TITL C-3578202-4305-795 4.38004530788138e-06 125000 -939.728145803358 0 0 150 (C1) n - 1
REM
REM in /home/bkarasulu/work/CARBON/AIRSS/Generating-Clusters/EDIP-Nigel-Params/with-SteepDescent/Higher-Symm/SD-CG/HFTN-CG
REM
REM
REM
REM
REM
REM ./C.cell (12c818d87b63d06a65506943cc24bca4)
REM
REM compiler GCC version 9.2.1 20190827 (Red Hat 9.2.1-1)
REM options -cpp -mtune=generic -march=x86-64 -g -O0 -fpre-include=/usr/include/finclude/math-vector-fortran.h
REM seed -1863399873 -1084573830 694766562 -579446100 289464595 -438927440 -1059718867 -986619927 -1743322745 151405083 862785402 1494399026 527267963 2134106747 -1446556230 685209674 -685917717 -942949782 1860814412 -912064071 -373738158 -1230879486 979131506 -1531258901 -449949765 509722795 868273564 1885852779 915794494 -1762958907 -2008459772 1158015006 -1525287868
REM
CELL 1.54180   50.00000   50.00000   50.00000   90.00000   90.00000   90.00000
LATT -1
SFAC C  
C      1  0.5354480000000  0.5963210000000  0.5479340000000 1.0
C      1  0.4834120000000  0.5966260000000  0.5576480000000 1.0
C      1  0.4438580000000  0.5942610000000  0.5226130000000 1.0
C      1  0.4456820000000  0.5920670000000  0.4722670000000 1.0
C      1  0.4885150000000  0.5969800000000  0.4395940000000 1.0
C      1  0.5379890000000  0.5959800000000  0.4521070000000 1.0
C      1  0.5607720000000  0.5985890000000  0.5026170000000 1.0
C      1  0.4036770000000  0.4616300000000  0.5183770000000 1.0
C      1  0.4295560000000  0.4625980000000  0.4371400000000 1.0
C      1  0.5041820000000  0.4690420000000  0.3933980000000 1.0
C      1  0.5863850000000  0.4669590000000  0.4470000000000 1.0
C      1  0.5968110000000  0.4604720000000  0.5272740000000 1.0
C      1  0.5393610000000  0.4631150000000  0.5892020000000 1.0
C      1  0.4473930000000  0.4665260000000  0.5910070000000 1.0
C      1  0.4521940000000  0.5343520000000  0.5885260000000 1.0
C      1  0.4040440000000  0.5302880000000  0.5244350000000 1.0
C      1  0.4311580000000  0.5306330000000  0.4321860000000 1.0
C      1  0.5030760000000  0.5386910000000  0.3952310000000 1.0
C      1  0.5830300000000  0.5350800000000  0.4482690000000 1.0
C      1  0.5925260000000  0.5323740000000  0.5279140000000 1.0
C      1  0.5358900000000  0.5319010000000  0.5886150000000 1.0
C      1  0.5477380000000  0.5094160000000  0.5716750000000 1.0
C      1  0.4714260000000  0.5107990000000  0.5848040000000 1.0
C      1  0.4227610000000  0.5090450000000  0.5372450000000 1.0
C      1  0.4360940000000  0.5091070000000  0.4508680000000 1.0
C      1  0.4864540000000  0.5147750000000  0.4052510000000 1.0
C      1  0.5648960000000  0.5124020000000  0.4447790000000 1.0
C      1  0.5826690000000  0.5075010000000  0.5125430000000 1.0
C      1  0.4763670000000  0.5524090000000  0.5200000000000 1.0
C      1  0.4681730000000  0.5479140000000  0.4928690000000 1.0
C      1  0.4842790000000  0.5531490000000  0.4693170000000 1.0
C      1  0.5130390000000  0.5504000000000  0.4668410000000 1.0
C      1  0.5311050000000  0.5588230000000  0.4880590000000 1.0
C      1  0.5270480000000  0.5533030000000  0.5163430000000 1.0
C      1  0.5024220000000  0.5534980000000  0.5307590000000 1.0
C      1  0.4860090000000  0.4540390000000  0.4699370000000 1.0
C      1  0.5167560000000  0.4506580000000  0.4613500000000 1.0
C      1  0.5415210000000  0.4483830000000  0.4883790000000 1.0
C      1  0.5289000000000  0.4498570000000  0.5191820000000 1.0
C      1  0.4998650000000  0.4478100000000  0.5459260000000 1.0
C      1  0.4688560000000  0.4505280000000  0.5367570000000 1.0
C      1  0.4696030000000  0.4526550000000  0.5052660000000 1.0
C      1  0.4766480000000  0.4145110000000  0.5602560000000 1.0
C      1  0.4380350000000  0.4150490000000  0.5199690000000 1.0
C      1  0.4404790000000  0.4079110000000  0.4673340000000 1.0
C      1  0.4878840000000  0.4146040000000  0.4377520000000 1.0
C      1  0.5402700000000  0.4146460000000  0.4539830000000 1.0
C      1  0.5594600000000  0.4084780000000  0.5037710000000 1.0
C      1  0.5307730000000  0.4174730000000  0.5494200000000 1.0
C      1  0.4928980000000  0.6054430000000  0.4660550000000 1.0
C      1  0.5214740000000  0.6052490000000  0.4733290000000 1.0
C      1  0.5336340000000  0.6067120000000  0.5005650000000 1.0
C      1  0.5195190000000  0.6059080000000  0.5265490000000 1.0
C      1  0.4904250000000  0.6054560000000  0.5318130000000 1.0
C      1  0.4681400000000  0.6044660000000  0.5125680000000 1.0
C      1  0.4692680000000  0.6029880000000  0.4835030000000 1.0
C      1  0.4417970000000  0.5570060000000  0.4409640000000 1.0
C      1  0.5077990000000  0.5593800000000  0.4158860000000 1.0
C      1  0.5703340000000  0.5618300000000  0.4546820000000 1.0
C      1  0.5773580000000  0.5585110000000  0.5254310000000 1.0
C      1  0.5274810000000  0.5570750000000  0.5749520000000 1.0
C      1  0.4578920000000  0.5569070000000  0.5693510000000 1.0
C      1  0.4190010000000  0.5532770000000  0.5118600000000 1.0
C      1  0.5134520000000  0.4096910000000  0.5277860000000 1.0
C      1  0.4847910000000  0.4096530000000  0.5318320000000 1.0
C      1  0.4646020000000  0.4094110000000  0.5103390000000 1.0
C      1  0.4666730000000  0.4054400000000  0.4812960000000 1.0
C      1  0.4914630000000  0.4107110000000  0.4662400000000 1.0
C      1  0.5195850000000  0.4093720000000  0.4753480000000 1.0
C      1  0.5291450000000  0.4082980000000  0.5029670000000 1.0
C      1  0.4366080000000  0.4311290000000  0.5428860000000 1.0
C      1  0.4155020000000  0.4040590000000  0.4795650000000 1.0
C      1  0.4628850000000  0.4123790000000  0.4268740000000 1.0
C      1  0.5322030000000  0.4306230000000  0.4320320000000 1.0
C      1  0.5668170000000  0.4302710000000  0.4861800000000 1.0
C      1  0.5539650000000  0.4307420000000  0.5419040000000 1.0
C      1  0.4945890000000  0.4278180000000  0.5781220000000 1.0
C      1  0.4622200000000  0.4984500000000  0.4911530000000 1.0
C      1  0.4875760000000  0.5041620000000  0.4558080000000 1.0
C      1  0.5194990000000  0.5039350000000  0.4573410000000 1.0
C      1  0.5318660000000  0.5151740000000  0.4843650000000 1.0
C      1  0.5397400000000  0.5027200000000  0.5202040000000 1.0
C      1  0.4962360000000  0.5034830000000  0.5410380000000 1.0
C      1  0.4684600000000  0.4994540000000  0.5292470000000 1.0
C      1  0.5981940000000  0.5263580000000  0.4713630000000 1.0
C      1  0.5882380000000  0.5226730000000  0.5552530000000 1.0
C      1  0.5116030000000  0.5214890000000  0.6002120000000 1.0
C      1  0.4257940000000  0.5247060000000  0.5846310000000 1.0
C      1  0.3913130000000  0.5175030000000  0.5027190000000 1.0
C      1  0.4437930000000  0.5206540000000  0.4084980000000 1.0
C      1  0.5283410000000  0.5276950000000  0.3885570000000 1.0
C      1  0.4839570000000  0.5731000000000  0.4251440000000 1.0
C      1  0.5475420000000  0.5720060000000  0.4396860000000 1.0
C      1  0.5756380000000  0.5743230000000  0.5007680000000 1.0
C      1  0.5457880000000  0.5716130000000  0.5577610000000 1.0
C      1  0.4824950000000  0.5722500000000  0.5720050000000 1.0
C      1  0.4330380000000  0.5695340000000  0.5313480000000 1.0
C      1  0.4327640000000  0.5671880000000  0.4667230000000 1.0
C      1  0.5015330000000  0.5520740000000  0.5605550000000 1.0
C      1  0.4542320000000  0.5498590000000  0.5395260000000 1.0
C      1  0.4383940000000  0.5458000000000  0.4878480000000 1.0
C      1  0.4715290000000  0.5520180000000  0.4423630000000 1.0
C      1  0.5262340000000  0.5503970000000  0.4391120000000 1.0
C      1  0.5603270000000  0.5566550000000  0.4823820000000 1.0
C      1  0.5499380000000  0.5519610000000  0.5354890000000 1.0
C      1  0.5959670000000  0.4337710000000  0.5238680000000 1.0
C      1  0.5397720000000  0.4367340000000  0.5934270000000 1.0
C      1  0.4470090000000  0.4398870000000  0.5883880000000 1.0
C      1  0.3962520000000  0.4368540000000  0.5108780000000 1.0
C      1  0.4237560000000  0.4368070000000  0.4329060000000 1.0
C      1  0.5000300000000  0.4433180000000  0.3994270000000 1.0
C      1  0.5808360000000  0.4407800000000  0.4430220000000 1.0
C      1  0.5124920000000  0.4777870000000  0.5505210000000 1.0
C      1  0.4602010000000  0.4775310000000  0.5460210000000 1.0
C      1  0.4485830000000  0.4734880000000  0.4998350000000 1.0
C      1  0.4741270000000  0.4777210000000  0.4537330000000 1.0
C      1  0.5299790000000  0.4768470000000  0.4564930000000 1.0
C      1  0.5500830000000  0.4760610000000  0.4767380000000 1.0
C      1  0.5352280000000  0.4761480000000  0.5322320000000 1.0
C      1  0.4115080000000  0.5010110000000  0.4923130000000 1.0
C      1  0.4538610000000  0.4941400000000  0.4100910000000 1.0
C      1  0.5313900000000  0.5074240000000  0.4081810000000 1.0
C      1  0.5945730000000  0.5003600000000  0.4837720000000 1.0
C      1  0.5818330000000  0.4952790000000  0.5598060000000 1.0
C      1  0.5044260000000  0.4946380000000  0.5965430000000 1.0
C      1  0.4243170000000  0.5024910000000  0.5674710000000 1.0
C      1  0.5062990000000  0.4924090000000  0.4083670000000 1.0
C      1  0.5744920000000  0.4879320000000  0.4629700000000 1.0
C      1  0.5840920000000  0.4846370000000  0.5327340000000 1.0
C      1  0.5259090000000  0.4852420000000  0.5775120000000 1.0
C      1  0.4509870000000  0.4881310000000  0.5726780000000 1.0
C      1  0.4222960000000  0.4829050000000  0.5135590000000 1.0
C      1  0.4481510000000  0.4842590000000  0.4380980000000 1.0
C      1  0.4499590000000  0.4234790000000  0.5661030000000 1.0
C      1  0.4160360000000  0.4191710000000  0.5026130000000 1.0
C      1  0.4385580000000  0.4141590000000  0.4392270000000 1.0
C      1  0.5061250000000  0.4305590000000  0.4231980000000 1.0
C      1  0.5689350000000  0.4208740000000  0.4590370000000 1.0
C      1  0.5738150000000  0.4170220000000  0.5281320000000 1.0
C      1  0.5220410000000  0.4244780000000  0.5756800000000 1.0
C      1  0.5521210000000  0.5214290000000  0.5420180000000 1.0
C      1  0.4938770000000  0.5224560000000  0.5653130000000 1.0
C      1  0.4491320000000  0.5206630000000  0.5354190000000 1.0
C      1  0.4357710000000  0.5146610000000  0.4800410000000 1.0
C      1  0.4746410000000  0.5224880000000  0.4337170000000 1.0
C      1  0.5362770000000  0.5191680000000  0.4356830000000 1.0
C      1  0.5616810000000  0.5265030000000  0.4858220000000 1.0
C      1  0.4978170000000  0.4649290000000  0.4973560000000 1.0
C      1  0.5100810000000  0.5128140000000  0.5157340000000 1.0
C      1  0.4947360000000  0.4951190000000  0.4944000000000 1.0
END
