TITL C-3577088-510-469 1.49697704282713e-06 125000 -302.717059073397 0 0 50 (Ci) n - 1
REM
REM in /home/bkarasulu/work/CARBON/AIRSS/Generating-Clusters/EDIP-Nigel-Params/with-SteepDescent/Higher-Symm/SD-CG/HFTN-CG
REM
REM
REM
REM
REM
REM ./C.cell (12c818d87b63d06a65506943cc24bca4)
REM
REM compiler GCC version 9.2.1 20190827 (Red Hat 9.2.1-1)
REM options -cpp -mtune=generic -march=x86-64 -g -O0 -fpre-include=/usr/include/finclude/math-vector-fortran.h
REM seed -1800803665 -208446253 -1813314578 -1921763951 78342257 -588229475 1067150856 -1578211983 -1967092879 69886648 -870577319 -849680885 2090151478 -161434681 -581630541 1144733032 -839362530 -670642067 -1414815184 1867094398 1731473338 383060934 1894948148 -2088687733 -1513539148 112148007 -147460339 1741669454 490882728 330963891 1064709609 1183933285 -1052871680
REM
CELL 1.54180   50.00000   50.00000   50.00000   90.00000   90.00000   90.00000
LATT -1
SFAC C  
C      1  0.4520470000000  0.5509240000000  0.4719470000000 1.0
C      1  0.5479530000000  0.4490760000000  0.5280530000000 1.0
C      1  0.5425740000000  0.5398350000000  0.4855600000000 1.0
C      1  0.4574260000000  0.4601650000000  0.5144400000000 1.0
C      1  0.5209260000000  0.4421810000000  0.5393500000000 1.0
C      1  0.4790740000000  0.5578190000000  0.4606500000000 1.0
C      1  0.4741560000000  0.4878440000000  0.4450720000000 1.0
C      1  0.5258440000000  0.5121560000000  0.5549280000000 1.0
C      1  0.4621260000000  0.4712380000000  0.4675480000000 1.0
C      1  0.5378740000000  0.5287620000000  0.5324520000000 1.0
C      1  0.5318690000000  0.4835570000000  0.5514540000000 1.0
C      1  0.4681310000000  0.5164430000000  0.4485460000000 1.0
C      1  0.4929830000000  0.5325510000000  0.5314140000000 1.0
C      1  0.5070170000000  0.4674490000000  0.4685860000000 1.0
C      1  0.5131940000000  0.5808540000000  0.4872290000000 1.0
C      1  0.4868060000000  0.4191460000000  0.5127710000000 1.0
C      1  0.4462920000000  0.5223490000000  0.4680500000000 1.0
C      1  0.5537080000000  0.4776510000000  0.5319500000000 1.0
C      1  0.4812910000000  0.4702460000000  0.5591550000000 1.0
C      1  0.5187090000000  0.5297540000000  0.4408450000000 1.0
C      1  0.4420890000000  0.5181220000000  0.5237660000000 1.0
C      1  0.5579110000000  0.4818780000000  0.4762340000000 1.0
C      1  0.4861530000000  0.5776280000000  0.4812300000000 1.0
C      1  0.5138470000000  0.4223720000000  0.5187700000000 1.0
C      1  0.5352120000000  0.4628720000000  0.4819840000000 1.0
C      1  0.4647880000000  0.5371280000000  0.5180160000000 1.0
C      1  0.4936750000000  0.5302210000000  0.4580680000000 1.0
C      1  0.5063250000000  0.4697790000000  0.5419320000000 1.0
C      1  0.5045050000000  0.4806550000000  0.4421460000000 1.0
C      1  0.4954950000000  0.5193450000000  0.5578540000000 1.0
C      1  0.4559080000000  0.4839070000000  0.4952740000000 1.0
C      1  0.5440920000000  0.5160930000000  0.5047260000000 1.0
C      1  0.4787420000000  0.4441090000000  0.5031740000000 1.0
C      1  0.5212580000000  0.5558910000000  0.4968260000000 1.0
C      1  0.4827780000000  0.4509690000000  0.4752110000000 1.0
C      1  0.5172220000000  0.5490310000000  0.5247890000000 1.0
C      1  0.5661200000000  0.4956770000000  0.5017310000000 1.0
C      1  0.4338800000000  0.5043230000000  0.4982690000000 1.0
C      1  0.5268070000000  0.5009830000000  0.4363200000000 1.0
C      1  0.4731930000000  0.4990170000000  0.5636800000000 1.0
C      1  0.4566980000000  0.4634200000000  0.5433070000000 1.0
C      1  0.5433020000000  0.5365800000000  0.4566930000000 1.0
C      1  0.4980000000000  0.5043730000000  0.4786610000000 1.0
C      1  0.5020000000000  0.4956270000000  0.5213390000000 1.0
C      1  0.5411100000000  0.4403310000000  0.5003880000000 1.0
C      1  0.4588900000000  0.5596690000000  0.4996120000000 1.0
C      1  0.4779290000000  0.5040540000000  0.5017770000000 1.0
C      1  0.5220710000000  0.4959460000000  0.4982230000000 1.0
C      1  0.4482030000000  0.5006240000000  0.5466700000000 1.0
C      1  0.5517970000000  0.4993760000000  0.4533300000000 1.0
END
