TITL C-3577090-796-657 -1.78713855833089e-06 125000 -769.38341464969 0 0 121 (C1) n - 1
REM
REM in /home/bkarasulu/work/CARBON/AIRSS/Generating-Clusters/EDIP-Nigel-Params/with-SteepDescent/Higher-Symm/SD-CG/HFTN-CG
REM
REM
REM
REM
REM
REM ./C.cell (12c818d87b63d06a65506943cc24bca4)
REM
REM compiler GCC version 9.2.1 20190827 (Red Hat 9.2.1-1)
REM options -cpp -mtune=generic -march=x86-64 -g -O0 -fpre-include=/usr/include/finclude/math-vector-fortran.h
REM seed 1728620478 -2010377225 1388748011 -917409242 -2082745288 359942720 -591447001 -2130318878 -1005293017 1087021129 1979695619 -1841313907 1215463020 -105152133 -1188607675 2011681877 -1387851224 56614136 1684380036 1399496657 -1090146839 979222408 -1231633544 -859514339 766471265 -703544222 816949034 -1951554276 -240242890 -1348500472 -1191064509 442203214 365990758
REM
CELL 1.54180   50.00000   50.00000   50.00000   90.00000   90.00000   90.00000
LATT -1
SFAC C  
C      1  0.5180130000000  0.3843550000000  0.4827170000000 1.0
C      1  0.5025750000000  0.6139560000000  0.4690580000000 1.0
C      1  0.4909990000000  0.3932990000000  0.4801250000000 1.0
C      1  0.4795440000000  0.6095950000000  0.4850310000000 1.0
C      1  0.4803060000000  0.3937630000000  0.5090580000000 1.0
C      1  0.4872560000000  0.6183850000000  0.5119400000000 1.0
C      1  0.5022920000000  0.3847790000000  0.5249200000000 1.0
C      1  0.5154420000000  0.6104080000000  0.5150630000000 1.0
C      1  0.5243420000000  0.3933300000000  0.5090300000000 1.0
C      1  0.5235080000000  0.6043600000000  0.4856490000000 1.0
C      1  0.4020520000000  0.5259010000000  0.5334190000000 1.0
C      1  0.4464690000000  0.4750080000000  0.5873470000000 1.0
C      1  0.4998980000000  0.5219780000000  0.5990760000000 1.0
C      1  0.5674990000000  0.4756350000000  0.5819460000000 1.0
C      1  0.6017210000000  0.5252440000000  0.5290580000000 1.0
C      1  0.6010270000000  0.4725310000000  0.4650310000000 1.0
C      1  0.5678980000000  0.5282840000000  0.4246370000000 1.0
C      1  0.4975290000000  0.4896630000000  0.4036090000000 1.0
C      1  0.4341630000000  0.5307320000000  0.4179760000000 1.0
C      1  0.4044190000000  0.4771120000000  0.4736930000000 1.0
C      1  0.5264680000000  0.4236320000000  0.5095950000000 1.0
C      1  0.5211980000000  0.5735970000000  0.4907760000000 1.0
C      1  0.5176270000000  0.4362090000000  0.4826350000000 1.0
C      1  0.4958690000000  0.5626810000000  0.4758900000000 1.0
C      1  0.4898700000000  0.4241410000000  0.4778040000000 1.0
C      1  0.4736030000000  0.5800980000000  0.4890730000000 1.0
C      1  0.4785300000000  0.4244440000000  0.5094440000000 1.0
C      1  0.4808730000000  0.5807020000000  0.5198850000000 1.0
C      1  0.5023910000000  0.4375050000000  0.5247300000000 1.0
C      1  0.5120880000000  0.5799170000000  0.5210250000000 1.0
C      1  0.5598500000000  0.4498940000000  0.4704100000000 1.0
C      1  0.5237220000000  0.5421430000000  0.4382000000000 1.0
C      1  0.4892140000000  0.4605500000000  0.4442360000000 1.0
C      1  0.4491050000000  0.5520600000000  0.4583030000000 1.0
C      1  0.4374570000000  0.4457720000000  0.4923140000000 1.0
C      1  0.4426580000000  0.5485660000000  0.5314190000000 1.0
C      1  0.4737320000000  0.4469050000000  0.5601030000000 1.0
C      1  0.5105450000000  0.5564470000000  0.5669080000000 1.0
C      1  0.5489000000000  0.4477690000000  0.5462130000000 1.0
C      1  0.5622920000000  0.5495690000000  0.5100740000000 1.0
C      1  0.4263680000000  0.5398450000000  0.4434560000000 1.0
C      1  0.4153430000000  0.4641850000000  0.4960820000000 1.0
C      1  0.4214680000000  0.5366460000000  0.5502960000000 1.0
C      1  0.4705070000000  0.4598270000000  0.5858150000000 1.0
C      1  0.5148760000000  0.5278380000000  0.5748040000000 1.0
C      1  0.5703970000000  0.4643460000000  0.5564670000000 1.0
C      1  0.5845340000000  0.5306860000000  0.5074040000000 1.0
C      1  0.5791340000000  0.4608090000000  0.4516240000000 1.0
C      1  0.5434840000000  0.5362270000000  0.4141570000000 1.0
C      1  0.4790080000000  0.4726940000000  0.4182290000000 1.0
C      1  0.4731790000000  0.5527470000000  0.4389280000000 1.0
C      1  0.4476200000000  0.4398660000000  0.4665490000000 1.0
C      1  0.4327690000000  0.5622040000000  0.5068790000000 1.0
C      1  0.4497700000000  0.4491590000000  0.5419310000000 1.0
C      1  0.4831330000000  0.5623000000000  0.5635230000000 1.0
C      1  0.5254980000000  0.4452020000000  0.5650110000000 1.0
C      1  0.5524240000000  0.5496140000000  0.5381710000000 1.0
C      1  0.5687210000000  0.4481680000000  0.4992800000000 1.0
C      1  0.5390140000000  0.5344350000000  0.4677720000000 1.0
C      1  0.5202390000000  0.4530860000000  0.4388570000000 1.0
C      1  0.4735010000000  0.4368990000000  0.4560320000000 1.0
C      1  0.4466010000000  0.5692120000000  0.4828230000000 1.0
C      1  0.4520170000000  0.4361550000000  0.5155730000000 1.0
C      1  0.4655710000000  0.5666720000000  0.5420520000000 1.0
C      1  0.5000830000000  0.4336690000000  0.5536060000000 1.0
C      1  0.5265710000000  0.5640330000000  0.5434060000000 1.0
C      1  0.5511760000000  0.4356620000000  0.5195880000000 1.0
C      1  0.5462130000000  0.5575180000000  0.4858890000000 1.0
C      1  0.5350510000000  0.4383590000000  0.4599660000000 1.0
C      1  0.5003140000000  0.5630470000000  0.4461020000000 1.0
C      1  0.4100790000000  0.5197680000000  0.4541820000000 1.0
C      1  0.4134270000000  0.4797340000000  0.5210060000000 1.0
C      1  0.4285390000000  0.5158870000000  0.5681470000000 1.0
C      1  0.4941390000000  0.4763380000000  0.5917550000000 1.0
C      1  0.5432990000000  0.5169420000000  0.5757760000000 1.0
C      1  0.5850980000000  0.4806000000000  0.5374290000000 1.0
C      1  0.5857350000000  0.5138470000000  0.4841400000000 1.0
C      1  0.5669150000000  0.4792640000000  0.4318510000000 1.0
C      1  0.5358070000000  0.5146270000000  0.3971970000000 1.0
C      1  0.4526150000000  0.4859250000000  0.4196760000000 1.0
C      1  0.5257000000000  0.4725690000000  0.4950020000000 1.0
C      1  0.5170270000000  0.5206100000000  0.4845110000000 1.0
C      1  0.4862000000000  0.4843330000000  0.4663730000000 1.0
C      1  0.4895900000000  0.5326600000000  0.4817000000000 1.0
C      1  0.4684460000000  0.4772330000000  0.4888500000000 1.0
C      1  0.4796030000000  0.5309690000000  0.5087640000000 1.0
C      1  0.4792030000000  0.4824290000000  0.5149270000000 1.0
C      1  0.5016700000000  0.5309620000000  0.5273300000000 1.0
C      1  0.5058150000000  0.4699110000000  0.5202680000000 1.0
C      1  0.5256270000000  0.5247000000000  0.5129650000000 1.0
C      1  0.4533760000000  0.5225060000000  0.5189360000000 1.0
C      1  0.4600880000000  0.4962400000000  0.5345640000000 1.0
C      1  0.5016220000000  0.5134370000000  0.5511700000000 1.0
C      1  0.5176170000000  0.4879810000000  0.5438180000000 1.0
C      1  0.5409030000000  0.5041320000000  0.5280360000000 1.0
C      1  0.5519660000000  0.4903440000000  0.5013150000000 1.0
C      1  0.5243680000000  0.4966650000000  0.4468760000000 1.0
C      1  0.5076340000000  0.5162020000000  0.4301850000000 1.0
C      1  0.4724830000000  0.5128640000000  0.4626460000000 1.0
C      1  0.4438230000000  0.4932750000000  0.4792470000000 1.0
C      1  0.5262000000000  0.4882150000000  0.4020280000000 1.0
C      1  0.4569580000000  0.5144940000000  0.4145120000000 1.0
C      1  0.4110200000000  0.4917880000000  0.4509030000000 1.0
C      1  0.4080170000000  0.5078910000000  0.5124270000000 1.0
C      1  0.4295970000000  0.4876190000000  0.5686910000000 1.0
C      1  0.4810930000000  0.5028600000000  0.5896710000000 1.0
C      1  0.5431130000000  0.4888770000000  0.5853600000000 1.0
C      1  0.5860670000000  0.5093730000000  0.5462050000000 1.0
C      1  0.5987700000000  0.4875680000000  0.4887120000000 1.0
C      1  0.5732240000000  0.5068100000000  0.4420020000000 1.0
C      1  0.4748100000000  0.5065700000000  0.5595010000000 1.0
C      1  0.5196840000000  0.4739110000000  0.5730580000000 1.0
C      1  0.5573780000000  0.5204930000000  0.5488890000000 1.0
C      1  0.5782130000000  0.4756510000000  0.5077760000000 1.0
C      1  0.5600570000000  0.5102450000000  0.4692720000000 1.0
C      1  0.5359480000000  0.4770260000000  0.4287560000000 1.0
C      1  0.4774300000000  0.5233320000000  0.4347520000000 1.0
C      1  0.4367660000000  0.4812620000000  0.4434370000000 1.0
C      1  0.4335760000000  0.5147350000000  0.4981120000000 1.0
C      1  0.4364900000000  0.4770850000000  0.5415210000000 1.0
C      1  0.5141190000000  0.4919570000000  0.4744200000000 1.0
END
