TITL C-3577079-311-239 3.57757186552907e-07 125000 -212.817757384225 0 0 36 (C1) n - 1
REM
REM in /home/bkarasulu/work/CARBON/AIRSS/Generating-Clusters/EDIP-Nigel-Params/with-SteepDescent/Higher-Symm/SD-CG/HFTN-CG
REM
REM
REM
REM
REM
REM ./C.cell (12c818d87b63d06a65506943cc24bca4)
REM
REM compiler GCC version 9.2.1 20190827 (Red Hat 9.2.1-1)
REM options -cpp -mtune=generic -march=x86-64 -g -O0 -fpre-include=/usr/include/finclude/math-vector-fortran.h
REM seed 334905519 -319934491 -1474120720 1102981978 -136925886 -129673776 94398950 1445161530 1989895127 573607691 1992620063 1068255097 -457655532 -1324769592 75589122 -1268248631 564619156 -1449922060 1146468040 1183037691 1151863802 413648807 421016944 1456265943 742516520 -64254535 -1007063261 2116397134 645454275 -1538217404 -972815570 -986531937 -1568543126
REM
CELL 1.54180   50.00000   50.00000   50.00000   90.00000   90.00000   90.00000
LATT -1
SFAC C  
C      1  0.5409820000000  0.4765010000000  0.5473670000000 1.0
C      1  0.4604320000000  0.4700870000000  0.5283570000000 1.0
C      1  0.4562050000000  0.4765340000000  0.4477150000000 1.0
C      1  0.5481700000000  0.4674160000000  0.4619260000000 1.0
C      1  0.4538480000000  0.5180040000000  0.5540680000000 1.0
C      1  0.5443430000000  0.5302230000000  0.5375960000000 1.0
C      1  0.5390940000000  0.5203580000000  0.4500490000000 1.0
C      1  0.4653820000000  0.5308970000000  0.4722510000000 1.0
C      1  0.5359650000000  0.5244170000000  0.5106820000000 1.0
C      1  0.4811600000000  0.5234410000000  0.5456050000000 1.0
C      1  0.4618720000000  0.5288020000000  0.4999050000000 1.0
C      1  0.5142600000000  0.5153390000000  0.4634510000000 1.0
C      1  0.4682760000000  0.4847490000000  0.5039620000000 1.0
C      1  0.5147350000000  0.4793580000000  0.5358810000000 1.0
C      1  0.5400930000000  0.4724520000000  0.4890770000000 1.0
C      1  0.4831880000000  0.4681750000000  0.4555200000000 1.0
C      1  0.4391340000000  0.5020510000000  0.5342060000000 1.0
C      1  0.4666460000000  0.5140820000000  0.4494190000000 1.0
C      1  0.5576370000000  0.5047000000000  0.4648040000000 1.0
C      1  0.5331150000000  0.5126950000000  0.5580690000000 1.0
C      1  0.5586960000000  0.4946050000000  0.5339510000000 1.0
C      1  0.5342550000000  0.4830120000000  0.4414340000000 1.0
C      1  0.4381300000000  0.4916530000000  0.4630010000000 1.0
C      1  0.4669720000000  0.4820220000000  0.5538450000000 1.0
C      1  0.5620550000000  0.4867860000000  0.5051910000000 1.0
C      1  0.4959860000000  0.4837020000000  0.5589060000000 1.0
C      1  0.4406430000000  0.4904360000000  0.4913410000000 1.0
C      1  0.5035830000000  0.4817650000000  0.4366300000000 1.0
C      1  0.4362580000000  0.5151610000000  0.5072380000000 1.0
C      1  0.5030060000000  0.5119260000000  0.5637970000000 1.0
C      1  0.5594190000000  0.5133330000000  0.4937060000000 1.0
C      1  0.4948510000000  0.5102500000000  0.4413410000000 1.0
C      1  0.4836730000000  0.5142320000000  0.5164600000000 1.0
C      1  0.5148890000000  0.4904170000000  0.4858740000000 1.0
C      1  0.5133450000000  0.5030820000000  0.5131530000000 1.0
C      1  0.4897030000000  0.4740460000000  0.4842200000000 1.0
END
