TITL C-3577077-324-318 -1.60728347639872e-06 125000 -961.868997373085 0 0 153 (C1) n - 1
REM
REM in /home/bkarasulu/work/CARBON/AIRSS/Generating-Clusters/EDIP-Nigel-Params/with-SteepDescent/Higher-Symm/SD-CG/HFTN-CG
REM
REM
REM
REM
REM
REM ./C.cell (12c818d87b63d06a65506943cc24bca4)
REM
REM compiler GCC version 9.2.1 20190827 (Red Hat 9.2.1-1)
REM options -cpp -mtune=generic -march=x86-64 -g -O0 -fpre-include=/usr/include/finclude/math-vector-fortran.h
REM seed -73218999 365471471 -288144216 -1083880013 -1690286306 2119728204 283759921 1596909068 -1625107610 1840367094 -692158139 1993791636 561726831 -912997916 706057752 -1259414430 1166687393 1968402421 421139755 1347313197 12779041 -16993250 -1712136992 -1596198 -249124455 1321201730 -1753857000 -941661977 -1752563800 1482913380 -1550685037 -2038848902 -1913403190
REM
CELL 1.54180   50.00000   50.00000   50.00000   90.00000   90.00000   90.00000
LATT -1
SFAC C  
C      1  0.4838170000000  0.4808840000000  0.4565960000000 1.0
C      1  0.5250990000000  0.5219820000000  0.5446270000000 1.0
C      1  0.4530770000000  0.4600540000000  0.5751550000000 1.0
C      1  0.5471210000000  0.5370490000000  0.4283550000000 1.0
C      1  0.5736890000000  0.5016590000000  0.5717110000000 1.0
C      1  0.4237750000000  0.5010500000000  0.4254850000000 1.0
C      1  0.5597960000000  0.4169300000000  0.5326140000000 1.0
C      1  0.4382500000000  0.5783170000000  0.4672960000000 1.0
C      1  0.5636250000000  0.4769610000000  0.5864630000000 1.0
C      1  0.4380940000000  0.5225150000000  0.4129500000000 1.0
C      1  0.4624610000000  0.4617180000000  0.4103670000000 1.0
C      1  0.5344950000000  0.5446400000000  0.5898770000000 1.0
C      1  0.4880740000000  0.5549950000000  0.5849440000000 1.0
C      1  0.5085340000000  0.4455460000000  0.4149020000000 1.0
C      1  0.4222150000000  0.5566440000000  0.5412710000000 1.0
C      1  0.5756560000000  0.4411240000000  0.4565340000000 1.0
C      1  0.4695510000000  0.4185930000000  0.4756890000000 1.0
C      1  0.5327100000000  0.5825290000000  0.5176670000000 1.0
C      1  0.5391640000000  0.4095160000000  0.4455870000000 1.0
C      1  0.4586830000000  0.5893130000000  0.5517380000000 1.0
C      1  0.4572170000000  0.4878490000000  0.5882160000000 1.0
C      1  0.5492440000000  0.5074780000000  0.4041440000000 1.0
C      1  0.5706230000000  0.4371600000000  0.4877330000000 1.0
C      1  0.4315840000000  0.5551580000000  0.5112740000000 1.0
C      1  0.5470210000000  0.3930060000000  0.4937530000000 1.0
C      1  0.4492430000000  0.6029210000000  0.5055520000000 1.0
C      1  0.5826970000000  0.5645220000000  0.4874510000000 1.0
C      1  0.4174030000000  0.4398890000000  0.5162280000000 1.0
C      1  0.4346070000000  0.4795030000000  0.5354760000000 1.0
C      1  0.5662390000000  0.5206000000000  0.4737230000000 1.0
C      1  0.5045180000000  0.5496470000000  0.5441500000000 1.0
C      1  0.5007900000000  0.4545640000000  0.4572510000000 1.0
C      1  0.4169230000000  0.4757470000000  0.5742760000000 1.0
C      1  0.5827310000000  0.5219210000000  0.4338730000000 1.0
C      1  0.5687380000000  0.4993130000000  0.4243250000000 1.0
C      1  0.4310140000000  0.4984490000000  0.5843820000000 1.0
C      1  0.5991560000000  0.5133460000000  0.4551940000000 1.0
C      1  0.4002260000000  0.4850970000000  0.5525880000000 1.0
C      1  0.5840990000000  0.4596600000000  0.5326660000000 1.0
C      1  0.4164690000000  0.5338340000000  0.4660620000000 1.0
C      1  0.5206740000000  0.5949800000000  0.4687950000000 1.0
C      1  0.4724440000000  0.4086670000000  0.5310470000000 1.0
C      1  0.4860360000000  0.5962870000000  0.5575320000000 1.0
C      1  0.5113980000000  0.4042690000000  0.4417760000000 1.0
C      1  0.5362490000000  0.4542760000000  0.4196020000000 1.0
C      1  0.4587970000000  0.5458880000000  0.5805990000000 1.0
C      1  0.4458930000000  0.4977870000000  0.4829480000000 1.0
C      1  0.5607280000000  0.5007040000000  0.5150380000000 1.0
C      1  0.5213870000000  0.5548530000000  0.4249270000000 1.0
C      1  0.4804300000000  0.4452690000000  0.5760600000000 1.0
C      1  0.5409850000000  0.4829160000000  0.6030580000000 1.0
C      1  0.4588710000000  0.5163810000000  0.3945480000000 1.0
C      1  0.4736350000000  0.4566090000000  0.4985640000000 1.0
C      1  0.5209590000000  0.5355180000000  0.5008990000000 1.0
C      1  0.5002300000000  0.3868170000000  0.4605470000000 1.0
C      1  0.4996680000000  0.6119930000000  0.5388370000000 1.0
C      1  0.5559750000000  0.4796490000000  0.4477120000000 1.0
C      1  0.4350390000000  0.5208620000000  0.5639680000000 1.0
C      1  0.5547940000000  0.4528970000000  0.5694400000000 1.0
C      1  0.4445770000000  0.5473600000000  0.4276860000000 1.0
C      1  0.4742940000000  0.5102740000000  0.5777760000000 1.0
C      1  0.5273930000000  0.4877090000000  0.4134620000000 1.0
C      1  0.5161520000000  0.4225360000000  0.5548440000000 1.0
C      1  0.4819990000000  0.5792920000000  0.4420390000000 1.0
C      1  0.5686120000000  0.4106380000000  0.5045060000000 1.0
C      1  0.4303690000000  0.5819810000000  0.4957850000000 1.0
C      1  0.5209030000000  0.4883270000000  0.5822750000000 1.0
C      1  0.4806560000000  0.5100720000000  0.4129720000000 1.0
C      1  0.5623250000000  0.5683540000000  0.4666290000000 1.0
C      1  0.4399190000000  0.4305340000000  0.5349320000000 1.0
C      1  0.5460580000000  0.5270240000000  0.5211260000000 1.0
C      1  0.4700240000000  0.4806920000000  0.4830480000000 1.0
C      1  0.4237280000000  0.4399390000000  0.4670750000000 1.0
C      1  0.5716140000000  0.5692330000000  0.5339760000000 1.0
C      1  0.5736980000000  0.5825040000000  0.5086780000000 1.0
C      1  0.4234510000000  0.4245670000000  0.4924190000000 1.0
C      1  0.4249550000000  0.4755020000000  0.4385920000000 1.0
C      1  0.5688480000000  0.5285110000000  0.5593690000000 1.0
C      1  0.4918300000000  0.3939470000000  0.5099100000000 1.0
C      1  0.5029400000000  0.6084390000000  0.4896030000000 1.0
C      1  0.4915840000000  0.4392650000000  0.4827800000000 1.0
C      1  0.5105330000000  0.5603690000000  0.5159070000000 1.0
C      1  0.5502380000000  0.4365410000000  0.4406900000000 1.0
C      1  0.4446650000000  0.5645370000000  0.5602080000000 1.0
C      1  0.5982390000000  0.4824120000000  0.4949610000000 1.0
C      1  0.4042630000000  0.5105650000000  0.5058790000000 1.0
C      1  0.4944570000000  0.5381660000000  0.4252570000000 1.0
C      1  0.5064700000000  0.4628240000000  0.5713180000000 1.0
C      1  0.5323470000000  0.4074000000000  0.5366480000000 1.0
C      1  0.4652490000000  0.5885940000000  0.4639030000000 1.0
C      1  0.4470170000000  0.5069260000000  0.5378410000000 1.0
C      1  0.5507920000000  0.4977580000000  0.4877850000000 1.0
C      1  0.4714250000000  0.5318420000000  0.4694020000000 1.0
C      1  0.5262930000000  0.4661150000000  0.5184810000000 1.0
C      1  0.5007980000000  0.5029640000000  0.5334240000000 1.0
C      1  0.5041310000000  0.5020440000000  0.4570290000000 1.0
C      1  0.4836940000000  0.5677400000000  0.5041200000000 1.0
C      1  0.5176560000000  0.4329340000000  0.4997040000000 1.0
C      1  0.5379120000000  0.4972820000000  0.5574290000000 1.0
C      1  0.4639900000000  0.4946680000000  0.4356390000000 1.0
C      1  0.4223020000000  0.4683500000000  0.5116060000000 1.0
C      1  0.5810730000000  0.5361420000000  0.4958500000000 1.0
C      1  0.5460990000000  0.5884610000000  0.4815650000000 1.0
C      1  0.4517670000000  0.4179970000000  0.4999080000000 1.0
C      1  0.4823400000000  0.3921840000000  0.4811990000000 1.0
C      1  0.5166020000000  0.6083560000000  0.5166560000000 1.0
C      1  0.5291400000000  0.4645800000000  0.4676570000000 1.0
C      1  0.4761630000000  0.5407060000000  0.5405980000000 1.0
C      1  0.4523420000000  0.4570660000000  0.5438720000000 1.0
C      1  0.5489590000000  0.5420230000000  0.4596660000000 1.0
C      1  0.5239530000000  0.4843200000000  0.4921470000000 1.0
C      1  0.4725160000000  0.5225860000000  0.4970190000000 1.0
C      1  0.5278730000000  0.5000630000000  0.4414980000000 1.0
C      1  0.4751050000000  0.5125680000000  0.5468570000000 1.0
C      1  0.4965940000000  0.4261830000000  0.4317550000000 1.0
C      1  0.5010360000000  0.5766100000000  0.5710410000000 1.0
C      1  0.4868570000000  0.4236740000000  0.5542320000000 1.0
C      1  0.5108440000000  0.5770080000000  0.4461020000000 1.0
C      1  0.4471630000000  0.4328970000000  0.4501370000000 1.0
C      1  0.5487370000000  0.5729830000000  0.5506420000000 1.0
C      1  0.5010530000000  0.5093430000000  0.5900010000000 1.0
C      1  0.5003050000000  0.4909440000000  0.4007450000000 1.0
C      1  0.5865020000000  0.4576560000000  0.5045720000000 1.0
C      1  0.4139550000000  0.5355810000000  0.4946930000000 1.0
C      1  0.4117210000000  0.4679660000000  0.4641460000000 1.0
C      1  0.5799070000000  0.5409560000000  0.5345570000000 1.0
C      1  0.4781700000000  0.4584910000000  0.5279530000000 1.0
C      1  0.5213320000000  0.5424290000000  0.4715770000000 1.0
C      1  0.4719530000000  0.5587230000000  0.4236390000000 1.0
C      1  0.5278750000000  0.4419600000000  0.5732140000000 1.0
C      1  0.5083320000000  0.5365660000000  0.5942200000000 1.0
C      1  0.4896580000000  0.4642150000000  0.4032840000000 1.0
C      1  0.4470760000000  0.6059540000000  0.5330530000000 1.0
C      1  0.5490500000000  0.3933340000000  0.4659040000000 1.0
C      1  0.5947000000000  0.4873280000000  0.4665700000000 1.0
C      1  0.4027040000000  0.5101250000000  0.5361370000000 1.0
C      1  0.4452050000000  0.4557770000000  0.4316060000000 1.0
C      1  0.5508970000000  0.5494590000000  0.5681740000000 1.0
C      1  0.4647600000000  0.5468440000000  0.5134690000000 1.0
C      1  0.5405950000000  0.4428100000000  0.4837600000000 1.0
C      1  0.5911010000000  0.5038380000000  0.5136340000000 1.0
C      1  0.4170680000000  0.4864910000000  0.4894130000000 1.0
C      1  0.4297640000000  0.5547290000000  0.4519760000000 1.0
C      1  0.5693230000000  0.4410010000000  0.5471840000000 1.0
C      1  0.5502110000000  0.4782120000000  0.5337610000000 1.0
C      1  0.4490890000000  0.5154720000000  0.4577380000000 1.0
C      1  0.4975210000000  0.5301080000000  0.4560590000000 1.0
C      1  0.5032060000000  0.4721140000000  0.5377880000000 1.0
C      1  0.5914930000000  0.4642970000000  0.4495680000000 1.0
C      1  0.4032720000000  0.5358980000000  0.5502890000000 1.0
C      1  0.4759050000000  0.5939340000000  0.4914840000000 1.0
C      1  0.5213570000000  0.4039770000000  0.5092300000000 1.0
C      1  0.5013160000000  0.5111930000000  0.5035420000000 1.0
END
