TITL C-3578207-9274-643 -5.93524447514468e-07 125000 -208.820763381686 0 0 35 (C1) n - 1
REM
REM in /home/bkarasulu/work/CARBON/AIRSS/Generating-Clusters/EDIP-Nigel-Params/with-SteepDescent/Higher-Symm/SD-CG/HFTN-CG
REM
REM
REM
REM
REM
REM ./C.cell (12c818d87b63d06a65506943cc24bca4)
REM
REM compiler GCC version 9.2.1 20190827 (Red Hat 9.2.1-1)
REM options -cpp -mtune=generic -march=x86-64 -g -O0 -fpre-include=/usr/include/finclude/math-vector-fortran.h
REM seed 1448263550 -276589276 -217371463 1107561232 165810009 -1373102307 491980605 399833918 -1178342738 -879122054 345086399 903648352 -217772269 -1753983835 11850296 617318195 85662630 -1326425030 -1138041229 72025158 -1335298672 1139346368 -1446182930 -982198939 866618221 -1117499947 -1830312816 -1599358370 513682732 1739824500 -240765777 1016502622 1316261798
REM
CELL 1.54180   50.00000   50.00000   50.00000   90.00000   90.00000   90.00000
LATT -1
SFAC C  
C      1  0.4462560000000  0.4789620000000  0.5119770000000 1.0
C      1  0.5130640000000  0.4437460000000  0.5142770000000 1.0
C      1  0.5310560000000  0.5161200000000  0.5071630000000 1.0
C      1  0.4874270000000  0.5577820000000  0.5192320000000 1.0
C      1  0.5486770000000  0.4814250000000  0.4862320000000 1.0
C      1  0.4853520000000  0.4490800000000  0.4802990000000 1.0
C      1  0.4503080000000  0.5166060000000  0.4888320000000 1.0
C      1  0.5122680000000  0.5591140000000  0.4847900000000 1.0
C      1  0.5269690000000  0.5299230000000  0.5527980000000 1.0
C      1  0.4869950000000  0.5057310000000  0.5435450000000 1.0
C      1  0.4921240000000  0.4841590000000  0.5240010000000 1.0
C      1  0.5240060000000  0.4807890000000  0.5572660000000 1.0
C      1  0.4904400000000  0.5225490000000  0.4572860000000 1.0
C      1  0.5285640000000  0.5181380000000  0.4339490000000 1.0
C      1  0.5308710000000  0.4688460000000  0.4420230000000 1.0
C      1  0.4891170000000  0.4941560000000  0.4499920000000 1.0
C      1  0.5200640000000  0.5312560000000  0.4590010000000 1.0
C      1  0.4755840000000  0.5296990000000  0.4809230000000 1.0
C      1  0.4798580000000  0.4797220000000  0.4763030000000 1.0
C      1  0.5304190000000  0.4665380000000  0.4701030000000 1.0
C      1  0.4700120000000  0.5273480000000  0.5335420000000 1.0
C      1  0.5330090000000  0.5377270000000  0.5262910000000 1.0
C      1  0.5200960000000  0.4722820000000  0.5290580000000 1.0
C      1  0.4691390000000  0.4647810000000  0.5251030000000 1.0
C      1  0.5155530000000  0.4445350000000  0.4827440000000 1.0
C      1  0.5378250000000  0.5178250000000  0.4794500000000 1.0
C      1  0.4826870000000  0.5559260000000  0.4898670000000 1.0
C      1  0.4511450000000  0.4871560000000  0.4838020000000 1.0
C      1  0.4812040000000  0.4416290000000  0.5103020000000 1.0
C      1  0.4475400000000  0.5159260000000  0.5182040000000 1.0
C      1  0.5180980000000  0.5608670000000  0.5155380000000 1.0
C      1  0.5405140000000  0.4892450000000  0.5133310000000 1.0
C      1  0.5160370000000  0.4923800000000  0.4370480000000 1.0
C      1  0.5119380000000  0.5069160000000  0.5591880000000 1.0
C      1  0.4944980000000  0.4933170000000  0.4971330000000 1.0
END
