TITL C-3578206-1180-127 -1.65943839564251e-06 125000 -1187.65159251569 0 0 189 (C1) n - 1
REM
REM in /home/bkarasulu/work/CARBON/AIRSS/Generating-Clusters/EDIP-Nigel-Params/with-SteepDescent/Higher-Symm/SD-CG/HFTN-CG
REM
REM
REM
REM
REM
REM ./C.cell (12c818d87b63d06a65506943cc24bca4)
REM
REM compiler GCC version 9.2.1 20190827 (Red Hat 9.2.1-1)
REM options -cpp -mtune=generic -march=x86-64 -g -O0 -fpre-include=/usr/include/finclude/math-vector-fortran.h
REM seed -635980540 388321895 37584874 937597992 781585551 1389832130 1278772130 -2104614858 1222398853 -1076805888 -2051086939 460917110 -2014091237 1509769170 -270731413 -1123704364 -1277480153 -420695669 -1078804875 -2081900757 1196167432 363309477 2112527921 1616690354 -922137891 823114241 997047948 614021139 389898251 -1493782227 -876225193 1258898965 -1226669801
REM
CELL 1.54180   50.00000   50.00000   50.00000   90.00000   90.00000   90.00000
LATT -1
SFAC C  
C      1  0.4905000000000  0.4631800000000  0.4346440000000 1.0
C      1  0.5091880000000  0.4630510000000  0.5629410000000 1.0
C      1  0.4931770000000  0.5387950000000  0.5615970000000 1.0
C      1  0.5097600000000  0.5363810000000  0.4337750000000 1.0
C      1  0.5590400000000  0.5734490000000  0.5465740000000 1.0
C      1  0.4417820000000  0.5717430000000  0.4518040000000 1.0
C      1  0.5587580000000  0.4280890000000  0.4518080000000 1.0
C      1  0.4421760000000  0.4289460000000  0.5477630000000 1.0
C      1  0.5731910000000  0.4653560000000  0.4180250000000 1.0
C      1  0.4269840000000  0.4655040000000  0.5831950000000 1.0
C      1  0.5749690000000  0.5341290000000  0.5827100000000 1.0
C      1  0.4272190000000  0.5348490000000  0.4170230000000 1.0
C      1  0.4753330000000  0.5860800000000  0.4864480000000 1.0
C      1  0.5252790000000  0.5838990000000  0.5087090000000 1.0
C      1  0.4751760000000  0.4161710000000  0.5123120000000 1.0
C      1  0.5248570000000  0.4140290000000  0.4860220000000 1.0
C      1  0.4941420000000  0.5215670000000  0.6199990000000 1.0
C      1  0.5069960000000  0.5224900000000  0.3779570000000 1.0
C      1  0.4937030000000  0.4779530000000  0.3777150000000 1.0
C      1  0.5085690000000  0.4800820000000  0.6205980000000 1.0
C      1  0.4458740000000  0.4199400000000  0.5196020000000 1.0
C      1  0.5544610000000  0.4188680000000  0.4797240000000 1.0
C      1  0.4459540000000  0.5804300000000  0.4797940000000 1.0
C      1  0.5542990000000  0.5815830000000  0.5182850000000 1.0
C      1  0.5862390000000  0.5299580000000  0.4356390000000 1.0
C      1  0.4130420000000  0.5300010000000  0.5661690000000 1.0
C      1  0.5884780000000  0.4694140000000  0.5660580000000 1.0
C      1  0.4135200000000  0.4700270000000  0.4335350000000 1.0
C      1  0.5309800000000  0.4413480000000  0.4068070000000 1.0
C      1  0.4699070000000  0.4426580000000  0.5919570000000 1.0
C      1  0.5318380000000  0.5580120000000  0.5887380000000 1.0
C      1  0.4694120000000  0.5593760000000  0.4071130000000 1.0
C      1  0.4058330000000  0.5523430000000  0.4789160000000 1.0
C      1  0.5949920000000  0.5531480000000  0.5212240000000 1.0
C      1  0.4052410000000  0.4471080000000  0.5208630000000 1.0
C      1  0.5951660000000  0.4468480000000  0.4791150000000 1.0
C      1  0.5800980000000  0.4518260000000  0.4487930000000 1.0
C      1  0.4202760000000  0.4522640000000  0.5512420000000 1.0
C      1  0.5813300000000  0.5509760000000  0.5494340000000 1.0
C      1  0.4201950000000  0.5481380000000  0.4481830000000 1.0
C      1  0.5756810000000  0.5623020000000  0.4723130000000 1.0
C      1  0.4207600000000  0.5638130000000  0.5298620000000 1.0
C      1  0.5796620000000  0.4349150000000  0.5299450000000 1.0
C      1  0.4214480000000  0.4355780000000  0.4697240000000 1.0
C      1  0.4677710000000  0.5325650000000  0.5074180000000 1.0
C      1  0.5321870000000  0.5309210000000  0.4943160000000 1.0
C      1  0.4671330000000  0.4678380000000  0.4936140000000 1.0
C      1  0.5328310000000  0.4668470000000  0.5069780000000 1.0
C      1  0.5568590000000  0.5340220000000  0.5096200000000 1.0
C      1  0.4416450000000  0.5344280000000  0.4980600000000 1.0
C      1  0.5591880000000  0.4644800000000  0.4980500000000 1.0
C      1  0.4410090000000  0.4655670000000  0.5023260000000 1.0
C      1  0.5029250000000  0.5632880000000  0.5968160000000 1.0
C      1  0.4989150000000  0.5653880000000  0.4022010000000 1.0
C      1  0.5013380000000  0.4355190000000  0.4019960000000 1.0
C      1  0.4994440000000  0.4373520000000  0.5974810000000 1.0
C      1  0.5921940000000  0.5405010000000  0.4622290000000 1.0
C      1  0.4056600000000  0.5406150000000  0.5397870000000 1.0
C      1  0.5955350000000  0.4579370000000  0.5399920000000 1.0
C      1  0.4062930000000  0.4589990000000  0.4598390000000 1.0
C      1  0.5438010000000  0.4678210000000  0.4173920000000 1.0
C      1  0.4564480000000  0.4687350000000  0.5814030000000 1.0
C      1  0.5458480000000  0.5320620000000  0.5777610000000 1.0
C      1  0.4565410000000  0.5323320000000  0.4168070000000 1.0
C      1  0.6086070000000  0.4927440000000  0.4722630000000 1.0
C      1  0.3906720000000  0.4924190000000  0.5283580000000 1.0
C      1  0.6094680000000  0.5070700000000  0.5293880000000 1.0
C      1  0.3905640000000  0.5072930000000  0.4713120000000 1.0
C      1  0.4807590000000  0.5048430000000  0.3818520000000 1.0
C      1  0.5221370000000  0.5068620000000  0.6150270000000 1.0
C      1  0.4800030000000  0.4949560000000  0.6167010000000 1.0
C      1  0.5199050000000  0.4955680000000  0.3823230000000 1.0
C      1  0.4618080000000  0.4680270000000  0.5527610000000 1.0
C      1  0.5382730000000  0.4665350000000  0.4456180000000 1.0
C      1  0.4618280000000  0.5331220000000  0.4451650000000 1.0
C      1  0.5419350000000  0.5328580000000  0.5462680000000 1.0
C      1  0.5723240000000  0.4375900000000  0.4980070000000 1.0
C      1  0.4280750000000  0.4385230000000  0.5017870000000 1.0
C      1  0.5711100000000  0.5607330000000  0.5033890000000 1.0
C      1  0.4283820000000  0.5613000000000  0.4979460000000 1.0
C      1  0.4896900000000  0.4083050000000  0.5649280000000 1.0
C      1  0.5114530000000  0.4074890000000  0.4351410000000 1.0
C      1  0.4899510000000  0.5920790000000  0.4368590000000 1.0
C      1  0.5107230000000  0.5944540000000  0.5634920000000 1.0
C      1  0.3998410000000  0.5199620000000  0.5172780000000 1.0
C      1  0.5991530000000  0.5198800000000  0.4841800000000 1.0
C      1  0.3999060000000  0.4797600000000  0.4823830000000 1.0
C      1  0.6012050000000  0.4790620000000  0.5179340000000 1.0
C      1  0.4848230000000  0.5407900000000  0.6000150000000 1.0
C      1  0.5169980000000  0.5435430000000  0.3960580000000 1.0
C      1  0.4834430000000  0.4578320000000  0.3964680000000 1.0
C      1  0.5174550000000  0.4598680000000  0.6011690000000 1.0
C      1  0.5215590000000  0.4427820000000  0.5189520000000 1.0
C      1  0.4777790000000  0.4453160000000  0.4790470000000 1.0
C      1  0.5221340000000  0.5535960000000  0.4783910000000 1.0
C      1  0.4785890000000  0.5573860000000  0.5187310000000 1.0
C      1  0.4640630000000  0.4226370000000  0.5699290000000 1.0
C      1  0.5368100000000  0.4222370000000  0.4298210000000 1.0
C      1  0.4641490000000  0.5780620000000  0.4306230000000 1.0
C      1  0.5361700000000  0.5786750000000  0.5672470000000 1.0
C      1  0.4389140000000  0.4982350000000  0.4643690000000 1.0
C      1  0.5615120000000  0.4947720000000  0.5363610000000 1.0
C      1  0.4390670000000  0.5021650000000  0.5354470000000 1.0
C      1  0.5602470000000  0.5015540000000  0.4667070000000 1.0
C      1  0.5844010000000  0.5091020000000  0.5928320000000 1.0
C      1  0.4171570000000  0.5099050000000  0.4067190000000 1.0
C      1  0.5833340000000  0.4905310000000  0.4085800000000 1.0
C      1  0.4172050000000  0.4905580000000  0.5933140000000 1.0
C      1  0.5130560000000  0.5791420000000  0.4244000000000 1.0
C      1  0.4884680000000  0.5801490000000  0.5774460000000 1.0
C      1  0.5129760000000  0.4213220000000  0.5768000000000 1.0
C      1  0.4877270000000  0.4207350000000  0.4238360000000 1.0
C      1  0.4669020000000  0.4975670000000  0.5888370000000 1.0
C      1  0.5331670000000  0.4967240000000  0.4107470000000 1.0
C      1  0.4669490000000  0.5031430000000  0.4099910000000 1.0
C      1  0.5344620000000  0.5038780000000  0.5867100000000 1.0
C      1  0.4061090000000  0.4972930000000  0.4290770000000 1.0
C      1  0.5959740000000  0.4967890000000  0.5703720000000 1.0
C      1  0.4060270000000  0.5027080000000  0.5707410000000 1.0
C      1  0.5935440000000  0.5027300000000  0.4315060000000 1.0
C      1  0.4852410000000  0.5500910000000  0.4476970000000 1.0
C      1  0.5181310000000  0.5507230000000  0.5473080000000 1.0
C      1  0.4842010000000  0.4494830000000  0.5503140000000 1.0
C      1  0.5150550000000  0.4491430000000  0.4478160000000 1.0
C      1  0.4824270000000  0.4805730000000  0.5150890000000 1.0
C      1  0.5169070000000  0.4778470000000  0.4846360000000 1.0
C      1  0.4828430000000  0.5205540000000  0.4847110000000 1.0
C      1  0.5172260000000  0.5152110000000  0.5137080000000 1.0
C      1  0.5274800000000  0.4440350000000  0.5486430000000 1.0
C      1  0.4716800000000  0.4453500000000  0.4495880000000 1.0
C      1  0.5288420000000  0.5531900000000  0.4488970000000 1.0
C      1  0.4742400000000  0.5583020000000  0.5485830000000 1.0
C      1  0.5450670000000  0.5459630000000  0.4083760000000 1.0
C      1  0.4550730000000  0.5457090000000  0.5952900000000 1.0
C      1  0.5469330000000  0.4552230000000  0.5952550000000 1.0
C      1  0.4537940000000  0.4541030000000  0.4032440000000 1.0
C      1  0.4668960000000  0.5085580000000  0.4597040000000 1.0
C      1  0.5326720000000  0.5052680000000  0.5378450000000 1.0
C      1  0.4674700000000  0.4928870000000  0.5394130000000 1.0
C      1  0.5327190000000  0.4908480000000  0.4605170000000 1.0
C      1  0.5196150000000  0.6089620000000  0.4723000000000 1.0
C      1  0.4763290000000  0.6092690000000  0.5309490000000 1.0
C      1  0.5204070000000  0.3907220000000  0.5305170000000 1.0
C      1  0.4801580000000  0.3915190000000  0.4688170000000 1.0
C      1  0.4497930000000  0.4291880000000  0.4220500000000 1.0
C      1  0.5507440000000  0.4305000000000  0.5766320000000 1.0
C      1  0.4507890000000  0.5703820000000  0.5769190000000 1.0
C      1  0.5515610000000  0.5728200000000  0.4244100000000 1.0
C      1  0.5140960000000  0.5058590000000  0.4357670000000 1.0
C      1  0.4866120000000  0.5075270000000  0.5623060000000 1.0
C      1  0.5147870000000  0.4941100000000  0.5621800000000 1.0
C      1  0.4855540000000  0.4938530000000  0.4356740000000 1.0
C      1  0.5573120000000  0.5185940000000  0.4125700000000 1.0
C      1  0.4425780000000  0.5190530000000  0.5886400000000 1.0
C      1  0.5584270000000  0.4818960000000  0.5871450000000 1.0
C      1  0.4424650000000  0.4812980000000  0.4105010000000 1.0
C      1  0.6107230000000  0.5297580000000  0.5104750000000 1.0
C      1  0.3893610000000  0.5298860000000  0.4902000000000 1.0
C      1  0.6112590000000  0.4696960000000  0.4904930000000 1.0
C      1  0.3891780000000  0.4698210000000  0.5094480000000 1.0
C      1  0.5051710000000  0.4061550000000  0.4621800000000 1.0
C      1  0.4943950000000  0.4028130000000  0.5380240000000 1.0
C      1  0.4998840000000  0.5915630000000  0.5370720000000 1.0
C      1  0.4954590000000  0.5941420000000  0.4641950000000 1.0
C      1  0.5131200000000  0.6122280000000  0.5005790000000 1.0
C      1  0.4824910000000  0.6121570000000  0.5025330000000 1.0
C      1  0.5153660000000  0.3889340000000  0.5017180000000 1.0
C      1  0.4849700000000  0.3888680000000  0.4974010000000 1.0
C      1  0.4542220000000  0.3997700000000  0.4613120000000 1.0
C      1  0.5459230000000  0.4001590000000  0.5383040000000 1.0
C      1  0.4506910000000  0.6004340000000  0.5375240000000 1.0
C      1  0.5455240000000  0.6003610000000  0.4653260000000 1.0
C      1  0.4370210000000  0.4188960000000  0.4497670000000 1.0
C      1  0.5633410000000  0.4191200000000  0.5497420000000 1.0
C      1  0.4362860000000  0.5799160000000  0.5498420000000 1.0
C      1  0.5621540000000  0.5810930000000  0.4532000000000 1.0
C      1  0.5085710000000  0.5579380000000  0.5194700000000 1.0
C      1  0.4925310000000  0.5522740000000  0.4773330000000 1.0
C      1  0.5071040000000  0.4473640000000  0.4773730000000 1.0
C      1  0.4916950000000  0.4435120000000  0.5207620000000 1.0
C      1  0.4278080000000  0.5115810000000  0.5096600000000 1.0
C      1  0.5716500000000  0.5108340000000  0.4932450000000 1.0
C      1  0.4277310000000  0.4885560000000  0.4902270000000 1.0
C      1  0.5729870000000  0.4867340000000  0.5106770000000 1.0
C      1  0.4142810000000  0.5125730000000  0.4528210000000 1.0
C      1  0.5854000000000  0.5120470000000  0.5473520000000 1.0
C      1  0.4144800000000  0.4874450000000  0.5469640000000 1.0
C      1  0.5846900000000  0.4872320000000  0.4546400000000 1.0
C      1  0.4995200000000  0.4985590000000  0.4988420000000 1.0
END
