TITL C-3577082-504-555 -4.07422599309029e-06 125000 -1130.18295902007 0 0 182 (C1) n - 1
REM
REM in /home/bkarasulu/work/CARBON/AIRSS/Generating-Clusters/EDIP-Nigel-Params/with-SteepDescent/Higher-Symm/SD-CG/HFTN-CG
REM
REM
REM
REM
REM
REM ./C.cell (12c818d87b63d06a65506943cc24bca4)
REM
REM compiler GCC version 9.2.1 20190827 (Red Hat 9.2.1-1)
REM options -cpp -mtune=generic -march=x86-64 -g -O0 -fpre-include=/usr/include/finclude/math-vector-fortran.h
REM seed -1393491190 -175682110 1253825879 988179007 225535521 660087997 -1836828892 1089069082 1570403063 428626271 -1801018104 -1350901595 1761932515 -1990301663 608260737 70016567 -502021335 126696897 803761213 1334782220 -463254806 1302271638 -1760628662 -1327939626 154532725 804454063 152122133 1562235305 -1929018359 211971371 -968040095 -1176454393 -1013502333
REM
CELL 1.54180   50.00000   50.00000   50.00000   90.00000   90.00000   90.00000
LATT -1
SFAC C  
C      1  0.5148870000000  0.4958420000000  0.5527780000000 1.0
C      1  0.4907970000000  0.4769450000000  0.5513890000000 1.0
C      1  0.4660550000000  0.4884360000000  0.5332970000000 1.0
C      1  0.4539200000000  0.4732910000000  0.5084140000000 1.0
C      1  0.4533380000000  0.4962740000000  0.4791810000000 1.0
C      1  0.4730280000000  0.4835090000000  0.4580930000000 1.0
C      1  0.4930750000000  0.5041180000000  0.4415740000000 1.0
C      1  0.5146910000000  0.4736550000000  0.4484400000000 1.0
C      1  0.5279630000000  0.4852720000000  0.4732380000000 1.0
C      1  0.5473430000000  0.4685810000000  0.4914260000000 1.0
C      1  0.5288370000000  0.4869170000000  0.5204340000000 1.0
C      1  0.4460130000000  0.3875680000000  0.4328220000000 1.0
C      1  0.4914740000000  0.3867540000000  0.4116990000000 1.0
C      1  0.5400840000000  0.3872580000000  0.4192940000000 1.0
C      1  0.5774100000000  0.3887290000000  0.4524640000000 1.0
C      1  0.5881780000000  0.3886540000000  0.4999640000000 1.0
C      1  0.5702700000000  0.3900320000000  0.5468170000000 1.0
C      1  0.5345150000000  0.3990820000000  0.5817350000000 1.0
C      1  0.4865630000000  0.3952060000000  0.5871930000000 1.0
C      1  0.4414680000000  0.3906140000000  0.5643460000000 1.0
C      1  0.4156040000000  0.3889030000000  0.5223380000000 1.0
C      1  0.4169380000000  0.3884330000000  0.4721910000000 1.0
C      1  0.5429910000000  0.4965500000000  0.4138300000000 1.0
C      1  0.5725360000000  0.4985380000000  0.4540940000000 1.0
C      1  0.5829250000000  0.5002130000000  0.5069420000000 1.0
C      1  0.5681790000000  0.4988760000000  0.5517560000000 1.0
C      1  0.5278260000000  0.4899010000000  0.5824340000000 1.0
C      1  0.4758270000000  0.5027270000000  0.5901190000000 1.0
C      1  0.4289650000000  0.4950880000000  0.5753820000000 1.0
C      1  0.4172450000000  0.5002330000000  0.5245410000000 1.0
C      1  0.4038580000000  0.4933390000000  0.4626420000000 1.0
C      1  0.4459500000000  0.4964270000000  0.4186480000000 1.0
C      1  0.4928510000000  0.4931890000000  0.3991510000000 1.0
C      1  0.5063630000000  0.4396470000000  0.5903450000000 1.0
C      1  0.4576490000000  0.4319860000000  0.5815050000000 1.0
C      1  0.4239480000000  0.4310970000000  0.5445450000000 1.0
C      1  0.4104060000000  0.4288850000000  0.4964130000000 1.0
C      1  0.4293630000000  0.4299110000000  0.4500990000000 1.0
C      1  0.4661860000000  0.4274700000000  0.4161210000000 1.0
C      1  0.5156120000000  0.4282350000000  0.4126770000000 1.0
C      1  0.5615410000000  0.4285320000000  0.4312350000000 1.0
C      1  0.5844570000000  0.4303140000000  0.4758610000000 1.0
C      1  0.5894390000000  0.4291630000000  0.5255960000000 1.0
C      1  0.5667280000000  0.4317990000000  0.5704270000000 1.0
C      1  0.4476540000000  0.5946550000000  0.5042830000000 1.0
C      1  0.4536090000000  0.5926310000000  0.4753710000000 1.0
C      1  0.4745920000000  0.5966040000000  0.4540410000000 1.0
C      1  0.5033120000000  0.5963160000000  0.4448700000000 1.0
C      1  0.5331840000000  0.6009170000000  0.4549080000000 1.0
C      1  0.5536400000000  0.5988030000000  0.4783990000000 1.0
C      1  0.5581400000000  0.6070860000000  0.5063580000000 1.0
C      1  0.5423850000000  0.5975510000000  0.5403850000000 1.0
C      1  0.5179260000000  0.5931480000000  0.5554720000000 1.0
C      1  0.4909930000000  0.6018360000000  0.5514610000000 1.0
C      1  0.4576450000000  0.5954490000000  0.5323830000000 1.0
C      1  0.4897250000000  0.4330810000000  0.5317150000000 1.0
C      1  0.4630690000000  0.4409430000000  0.5267180000000 1.0
C      1  0.4543840000000  0.4311590000000  0.5023960000000 1.0
C      1  0.4685260000000  0.4258840000000  0.4799960000000 1.0
C      1  0.4798530000000  0.4403750000000  0.4602080000000 1.0
C      1  0.5064640000000  0.4448090000000  0.4528260000000 1.0
C      1  0.5249810000000  0.4312420000000  0.4686400000000 1.0
C      1  0.5430230000000  0.4388960000000  0.4886130000000 1.0
C      1  0.5304410000000  0.4347810000000  0.5139580000000 1.0
C      1  0.5332140000000  0.4575540000000  0.5339090000000 1.0
C      1  0.5059090000000  0.4515160000000  0.5480300000000 1.0
C      1  0.4759540000000  0.5220050000000  0.5666970000000 1.0
C      1  0.4566590000000  0.5169960000000  0.5439480000000 1.0
C      1  0.4263730000000  0.5154110000000  0.4991670000000 1.0
C      1  0.4469610000000  0.5216960000000  0.4604450000000 1.0
C      1  0.4677390000000  0.5231790000000  0.4366330000000 1.0
C      1  0.5140610000000  0.5237980000000  0.4515460000000 1.0
C      1  0.5377190000000  0.5120430000000  0.4652210000000 1.0
C      1  0.5423940000000  0.5270790000000  0.4892400000000 1.0
C      1  0.5519600000000  0.5097280000000  0.5109300000000 1.0
C      1  0.5503380000000  0.5212550000000  0.5377160000000 1.0
C      1  0.5023650000000  0.5232300000000  0.5543340000000 1.0
C      1  0.4757320000000  0.5874780000000  0.5714440000000 1.0
C      1  0.4369240000000  0.5858890000000  0.5504360000000 1.0
C      1  0.4235110000000  0.5796130000000  0.5089400000000 1.0
C      1  0.4310720000000  0.5786410000000  0.4631590000000 1.0
C      1  0.4610390000000  0.5845700000000  0.4312210000000 1.0
C      1  0.5067750000000  0.5787790000000  0.4215880000000 1.0
C      1  0.5479410000000  0.5914930000000  0.4319800000000 1.0
C      1  0.5742930000000  0.5796100000000  0.4721520000000 1.0
C      1  0.5802920000000  0.5914500000000  0.5185410000000 1.0
C      1  0.5603060000000  0.5803020000000  0.5562240000000 1.0
C      1  0.5210600000000  0.5725660000000  0.5754440000000 1.0
C      1  0.5653450000000  0.4682450000000  0.5375050000000 1.0
C      1  0.5281450000000  0.4598190000000  0.5902910000000 1.0
C      1  0.4741690000000  0.4755110000000  0.5765970000000 1.0
C      1  0.4461310000000  0.4738060000000  0.5637230000000 1.0
C      1  0.4227740000000  0.4724700000000  0.5097560000000 1.0
C      1  0.4179700000000  0.4714110000000  0.4775970000000 1.0
C      1  0.4603920000000  0.4727060000000  0.4314550000000 1.0
C      1  0.4865320000000  0.4694010000000  0.4153900000000 1.0
C      1  0.5400840000000  0.4711200000000  0.4304410000000 1.0
C      1  0.5630910000000  0.4703360000000  0.4508020000000 1.0
C      1  0.5743730000000  0.4705470000000  0.5074290000000 1.0
C      1  0.4235800000000  0.4019060000000  0.5458310000000 1.0
C      1  0.4110580000000  0.3999980000000  0.4970210000000 1.0
C      1  0.4279710000000  0.4007720000000  0.4495590000000 1.0
C      1  0.4670080000000  0.3987460000000  0.4182940000000 1.0
C      1  0.5164790000000  0.3993400000000  0.4104600000000 1.0
C      1  0.5614160000000  0.3997230000000  0.4323660000000 1.0
C      1  0.5879020000000  0.4013790000000  0.4750920000000 1.0
C      1  0.5841220000000  0.4006840000000  0.5248530000000 1.0
C      1  0.5578090000000  0.4047720000000  0.5671890000000 1.0
C      1  0.5100920000000  0.4102570000000  0.5899620000000 1.0
C      1  0.4608500000000  0.4035940000000  0.5800060000000 1.0
C      1  0.4118240000000  0.5412270000000  0.5539850000000 1.0
C      1  0.3779800000000  0.5300130000000  0.4825000000000 1.0
C      1  0.4123230000000  0.5394560000000  0.4387330000000 1.0
C      1  0.4632540000000  0.5290440000000  0.3829580000000 1.0
C      1  0.5188820000000  0.5382510000000  0.3971930000000 1.0
C      1  0.5820350000000  0.5291890000000  0.4171510000000 1.0
C      1  0.5976700000000  0.5380560000000  0.4751680000000 1.0
C      1  0.6083730000000  0.5267910000000  0.5454580000000 1.0
C      1  0.5689440000000  0.5179430000000  0.5970270000000 1.0
C      1  0.5127280000000  0.5353900000000  0.6050150000000 1.0
C      1  0.4378390000000  0.5326900000000  0.6021910000000 1.0
C      1  0.5630820000000  0.5123950000000  0.4292460000000 1.0
C      1  0.5906960000000  0.5093310000000  0.4775860000000 1.0
C      1  0.5953020000000  0.5040160000000  0.5367270000000 1.0
C      1  0.5578870000000  0.4982120000000  0.5806960000000 1.0
C      1  0.5073340000000  0.5060490000000  0.6008850000000 1.0
C      1  0.4453130000000  0.5062880000000  0.5979670000000 1.0
C      1  0.4266250000000  0.5137760000000  0.5508480000000 1.0
C      1  0.3986530000000  0.5104680000000  0.4856420000000 1.0
C      1  0.4165380000000  0.5095100000000  0.4399320000000 1.0
C      1  0.4656650000000  0.5050830000000  0.3969760000000 1.0
C      1  0.5175120000000  0.5095230000000  0.4052010000000 1.0
C      1  0.4781460000000  0.5634580000000  0.5405380000000 1.0
C      1  0.4601690000000  0.5410110000000  0.5266900000000 1.0
C      1  0.4395190000000  0.5444090000000  0.5045310000000 1.0
C      1  0.4530660000000  0.5490300000000  0.4760460000000 1.0
C      1  0.4748070000000  0.5528620000000  0.4491590000000 1.0
C      1  0.5067020000000  0.5529320000000  0.4508670000000 1.0
C      1  0.5210520000000  0.5691660000000  0.4743190000000 1.0
C      1  0.5464640000000  0.5562520000000  0.4866930000000 1.0
C      1  0.5501300000000  0.5671450000000  0.5150660000000 1.0
C      1  0.5410660000000  0.5506600000000  0.5399020000000 1.0
C      1  0.5089190000000  0.5510960000000  0.5452420000000 1.0
C      1  0.5751780000000  0.5577050000000  0.5656010000000 1.0
C      1  0.5326280000000  0.5494560000000  0.5886720000000 1.0
C      1  0.4717020000000  0.5623270000000  0.5843310000000 1.0
C      1  0.4274680000000  0.5634820000000  0.5656750000000 1.0
C      1  0.4002850000000  0.5632820000000  0.5095670000000 1.0
C      1  0.4122520000000  0.5565560000000  0.4625760000000 1.0
C      1  0.4506390000000  0.5639810000000  0.4142010000000 1.0
C      1  0.4978280000000  0.5550990000000  0.4074860000000 1.0
C      1  0.5577280000000  0.5691910000000  0.4178570000000 1.0
C      1  0.5801100000000  0.5549780000000  0.4590980000000 1.0
C      1  0.5936270000000  0.5652650000000  0.5207590000000 1.0
C      1  0.4901090000000  0.4416620000000  0.4063900000000 1.0
C      1  0.5406560000000  0.4436050000000  0.4167980000000 1.0
C      1  0.5768350000000  0.4442980000000  0.4507950000000 1.0
C      1  0.5909840000000  0.4453340000000  0.5007720000000 1.0
C      1  0.5804910000000  0.4451580000000  0.5485510000000 1.0
C      1  0.5530880000000  0.4480910000000  0.5882720000000 1.0
C      1  0.4789820000000  0.4496650000000  0.5909420000000 1.0
C      1  0.4364870000000  0.4457380000000  0.5668780000000 1.0
C      1  0.4125080000000  0.4453910000000  0.5208980000000 1.0
C      1  0.4133190000000  0.4433680000000  0.4708470000000 1.0
C      1  0.4467490000000  0.4444040000000  0.4305690000000 1.0
C      1  0.5424360000000  0.5531930000000  0.4005550000000 1.0
C      1  0.5785440000000  0.5538010000000  0.4301930000000 1.0
C      1  0.6042630000000  0.5515570000000  0.4988620000000 1.0
C      1  0.5966760000000  0.5519200000000  0.5464100000000 1.0
C      1  0.5605830000000  0.5421440000000  0.5861430000000 1.0
C      1  0.4895080000000  0.5513610000000  0.6031910000000 1.0
C      1  0.4441260000000  0.5557070000000  0.5879680000000 1.0
C      1  0.3947310000000  0.5494660000000  0.5332380000000 1.0
C      1  0.3921440000000  0.5540300000000  0.4833480000000 1.0
C      1  0.4255310000000  0.5527820000000  0.4181580000000 1.0
C      1  0.4705360000000  0.5489710000000  0.4009360000000 1.0
C      1  0.4925830000000  0.4938310000000  0.4985180000000 1.0
C      1  0.4966410000000  0.4664800000000  0.4984700000000 1.0
C      1  0.5026660000000  0.5725370000000  0.4959860000000 1.0
C      1  0.5021160000000  0.4385520000000  0.5058000000000 1.0
C      1  0.4906900000000  0.5208380000000  0.5018680000000 1.0
C      1  0.4970500000000  0.5472220000000  0.5038990000000 1.0
END
