TITL C-3578196-9646-402 -3.11244512106177e-07 125000 -335.24455223617 0 0 54 (C1) n - 1
REM
REM in /home/bkarasulu/work/CARBON/AIRSS/Generating-Clusters/EDIP-Nigel-Params/with-SteepDescent/Higher-Symm/SD-CG/HFTN-CG
REM
REM
REM
REM
REM
REM ./C.cell (12c818d87b63d06a65506943cc24bca4)
REM
REM compiler GCC version 9.2.1 20190827 (Red Hat 9.2.1-1)
REM options -cpp -mtune=generic -march=x86-64 -g -O0 -fpre-include=/usr/include/finclude/math-vector-fortran.h
REM seed 1972088792 520952006 -2029752896 -2065130620 -911063254 -723035144 -1184373697 1166680332 1306418687 -1698439678 705313886 688506240 620844727 1737797081 1904881273 482708169 -1312625253 -748679870 -314514105 1669808048 -1599456842 -1963192663 -2021410780 -2008882881 18953915 1301825111 1865229835 -779970690 1467903236 -1054321340 -264390665 1071459358 602347276
REM
CELL 1.54180   50.00000   50.00000   50.00000   90.00000   90.00000   90.00000
LATT -1
SFAC C  
C      1  0.5450570000000  0.4768150000000  0.5452630000000 1.0
C      1  0.4336410000000  0.4745060000000  0.5143250000000 1.0
C      1  0.5209520000000  0.4757090000000  0.4374040000000 1.0
C      1  0.5544600000000  0.5031340000000  0.4822990000000 1.0
C      1  0.4889660000000  0.5033320000000  0.5547350000000 1.0
C      1  0.4568090000000  0.5029800000000  0.4596450000000 1.0
C      1  0.4847370000000  0.5428640000000  0.4756840000000 1.0
C      1  0.5396640000000  0.5642510000000  0.5110800000000 1.0
C      1  0.4841470000000  0.5454090000000  0.5257530000000 1.0
C      1  0.4436940000000  0.5456260000000  0.4918520000000 1.0
C      1  0.5340340000000  0.5460310000000  0.4606170000000 1.0
C      1  0.5182000000000  0.5474440000000  0.5542050000000 1.0
C      1  0.5049220000000  0.5001560000000  0.4700510000000 1.0
C      1  0.5208520000000  0.5119990000000  0.5151440000000 1.0
C      1  0.4732360000000  0.5022980000000  0.5082700000000 1.0
C      1  0.4564790000000  0.4692250000000  0.4955940000000 1.0
C      1  0.5263750000000  0.4676550000000  0.4662880000000 1.0
C      1  0.5186940000000  0.4654190000000  0.5385330000000 1.0
C      1  0.5304660000000  0.5053920000000  0.4320270000000 1.0
C      1  0.5427940000000  0.5055330000000  0.5565590000000 1.0
C      1  0.4248790000000  0.5038160000000  0.5084210000000 1.0
C      1  0.4959570000000  0.4742260000000  0.5540010000000 1.0
C      1  0.4528790000000  0.4742740000000  0.4664430000000 1.0
C      1  0.5533660000000  0.4738370000000  0.4771310000000 1.0
C      1  0.4741990000000  0.4585300000000  0.4531720000000 1.0
C      1  0.5612280000000  0.4602000000000  0.5004960000000 1.0
C      1  0.4729690000000  0.4580730000000  0.5455850000000 1.0
C      1  0.5655610000000  0.4780840000000  0.5222310000000 1.0
C      1  0.4471640000000  0.4743230000000  0.5430000000000 1.0
C      1  0.4898440000000  0.4748170000000  0.4330980000000 1.0
C      1  0.5489080000000  0.5207910000000  0.4511920000000 1.0
C      1  0.5158420000000  0.5188170000000  0.5656030000000 1.0
C      1  0.4325700000000  0.5189950000000  0.4831250000000 1.0
C      1  0.5258290000000  0.5114250000000  0.4874640000000 1.0
C      1  0.4938480000000  0.5163230000000  0.5262340000000 1.0
C      1  0.4783840000000  0.5129820000000  0.4799150000000 1.0
C      1  0.4489670000000  0.5149470000000  0.5245800000000 1.0
C      1  0.5035060000000  0.5163430000000  0.4420520000000 1.0
C      1  0.5453830000000  0.5196440000000  0.5297110000000 1.0
C      1  0.4558480000000  0.5025090000000  0.5520710000000 1.0
C      1  0.4765250000000  0.5025990000000  0.4342440000000 1.0
C      1  0.5666870000000  0.5065080000000  0.5115260000000 1.0
C      1  0.4866830000000  0.4397170000000  0.4730830000000 1.0
C      1  0.5244480000000  0.4324090000000  0.5009210000000 1.0
C      1  0.4832230000000  0.4382230000000  0.5251900000000 1.0
C      1  0.5160090000000  0.4411520000000  0.4755550000000 1.0
C      1  0.5131880000000  0.4396120000000  0.5256400000000 1.0
C      1  0.4706940000000  0.4431060000000  0.4984410000000 1.0
C      1  0.4543890000000  0.5445150000000  0.5205490000000 1.0
C      1  0.5046050000000  0.5444880000000  0.4535620000000 1.0
C      1  0.5418330000000  0.5493110000000  0.5346870000000 1.0
C      1  0.4943290000000  0.5607540000000  0.5466570000000 1.0
C      1  0.4618090000000  0.5588540000000  0.4745890000000 1.0
C      1  0.5402670000000  0.5600180000000  0.4845020000000 1.0
END
