TITL C-3578202-4305-445 -6.7250388271569e-07 125000 -1135.38344663056 0 0 181 (C1) n - 1
REM
REM in /home/bkarasulu/work/CARBON/AIRSS/Generating-Clusters/EDIP-Nigel-Params/with-SteepDescent/Higher-Symm/SD-CG/HFTN-CG
REM
REM
REM
REM
REM
REM ./C.cell (12c818d87b63d06a65506943cc24bca4)
REM
REM compiler GCC version 9.2.1 20190827 (Red Hat 9.2.1-1)
REM options -cpp -mtune=generic -march=x86-64 -g -O0 -fpre-include=/usr/include/finclude/math-vector-fortran.h
REM seed -1259652751 -569510660 648573622 -939823813 -53656417 -1855926985 -1235982822 -1021196832 337084994 -2071446437 19848939 -75677604 637692532 1465272007 431830932 561732559 1743425833 1466172660 1676756476 -444661539 -1876910027 -223981045 1505689471 -1266243351 -923432894 -984768892 384133538 1744702579 215005684 1684093621 260083351 938694855 -1009265895
REM
CELL 1.54180   50.00000   50.00000   50.00000   90.00000   90.00000   90.00000
LATT -1
SFAC C  
C      1  0.5152380000000  0.5726240000000  0.4271410000000 1.0
C      1  0.5182190000000  0.5116780000000  0.3977690000000 1.0
C      1  0.5119710000000  0.4470600000000  0.4143810000000 1.0
C      1  0.5070710000000  0.4119920000000  0.4716240000000 1.0
C      1  0.5169480000000  0.4064760000000  0.5442190000000 1.0
C      1  0.5154750000000  0.4552270000000  0.5927350000000 1.0
C      1  0.5121630000000  0.5224990000000  0.5952600000000 1.0
C      1  0.5140200000000  0.5840420000000  0.5521860000000 1.0
C      1  0.5143660000000  0.6007790000000  0.4866360000000 1.0
C      1  0.3769030000000  0.4827400000000  0.4698200000000 1.0
C      1  0.3896980000000  0.4559890000000  0.4787960000000 1.0
C      1  0.3914700000000  0.4484400000000  0.5082280000000 1.0
C      1  0.3933820000000  0.4785460000000  0.5284600000000 1.0
C      1  0.3918320000000  0.4993300000000  0.5514230000000 1.0
C      1  0.3942840000000  0.5289870000000  0.5446840000000 1.0
C      1  0.3804060000000  0.5397170000000  0.5198200000000 1.0
C      1  0.3833710000000  0.5336730000000  0.4903460000000 1.0
C      1  0.3771580000000  0.5065490000000  0.4849080000000 1.0
C      1  0.4234480000000  0.4489360000000  0.5524730000000 1.0
C      1  0.4190530000000  0.4971600000000  0.5691870000000 1.0
C      1  0.4259240000000  0.5427740000000  0.5559840000000 1.0
C      1  0.4131570000000  0.5572110000000  0.5106640000000 1.0
C      1  0.4081880000000  0.5507860000000  0.4676160000000 1.0
C      1  0.4162530000000  0.5316140000000  0.4454070000000 1.0
C      1  0.3878620000000  0.4881670000000  0.4442720000000 1.0
C      1  0.4143160000000  0.4364150000000  0.4549930000000 1.0
C      1  0.4156530000000  0.4281460000000  0.5144740000000 1.0
C      1  0.5587730000000  0.5231930000000  0.5320860000000 1.0
C      1  0.5480780000000  0.5438280000000  0.5110750000000 1.0
C      1  0.5617290000000  0.5387460000000  0.4832410000000 1.0
C      1  0.5485330000000  0.5215020000000  0.4598160000000 1.0
C      1  0.5591260000000  0.4916100000000  0.4581140000000 1.0
C      1  0.5417750000000  0.4662380000000  0.4713570000000 1.0
C      1  0.5452730000000  0.4555290000000  0.5021880000000 1.0
C      1  0.5610640000000  0.4727670000000  0.5286070000000 1.0
C      1  0.5474100000000  0.4963020000000  0.5446890000000 1.0
C      1  0.4759770000000  0.5143240000000  0.5531170000000 1.0
C      1  0.4813140000000  0.5267990000000  0.5269750000000 1.0
C      1  0.4586210000000  0.5482070000000  0.4853800000000 1.0
C      1  0.4772730000000  0.5350790000000  0.4675670000000 1.0
C      1  0.4760880000000  0.4915580000000  0.4590560000000 1.0
C      1  0.4617290000000  0.4689740000000  0.4681600000000 1.0
C      1  0.4632840000000  0.4575100000000  0.4964180000000 1.0
C      1  0.4768650000000  0.4691730000000  0.5302610000000 1.0
C      1  0.4631910000000  0.4890510000000  0.5491320000000 1.0
C      1  0.4363860000000  0.4933440000000  0.4227730000000 1.0
C      1  0.4293970000000  0.4446300000000  0.4306270000000 1.0
C      1  0.4363610000000  0.4168590000000  0.4942410000000 1.0
C      1  0.4439610000000  0.4301010000000  0.5476020000000 1.0
C      1  0.4359050000000  0.4740720000000  0.5863340000000 1.0
C      1  0.4394400000000  0.5335380000000  0.5816990000000 1.0
C      1  0.4374180000000  0.5720320000000  0.5200190000000 1.0
C      1  0.4267210000000  0.5743140000000  0.4576110000000 1.0
C      1  0.4392600000000  0.5405360000000  0.4283450000000 1.0
C      1  0.5712010000000  0.4643560000000  0.5789700000000 1.0
C      1  0.5653670000000  0.5111400000000  0.5894220000000 1.0
C      1  0.5710180000000  0.5718280000000  0.5467840000000 1.0
C      1  0.5697740000000  0.5859030000000  0.4988970000000 1.0
C      1  0.5708740000000  0.5642550000000  0.4481710000000 1.0
C      1  0.5732910000000  0.5177560000000  0.4206660000000 1.0
C      1  0.5667110000000  0.4604170000000  0.4271090000000 1.0
C      1  0.5641290000000  0.4241500000000  0.4666330000000 1.0
C      1  0.5676540000000  0.4183780000000  0.5199760000000 1.0
C      1  0.4704980000000  0.6054690000000  0.5024200000000 1.0
C      1  0.4669590000000  0.5849740000000  0.4307190000000 1.0
C      1  0.4706800000000  0.5287490000000  0.3928510000000 1.0
C      1  0.4684240000000  0.4623650000000  0.4006370000000 1.0
C      1  0.4603310000000  0.4095490000000  0.4521890000000 1.0
C      1  0.4678580000000  0.3948050000000  0.5349360000000 1.0
C      1  0.4678780000000  0.4363480000000  0.5917880000000 1.0
C      1  0.4666680000000  0.5045990000000  0.6112730000000 1.0
C      1  0.4646900000000  0.5789360000000  0.5617210000000 1.0
C      1  0.5568170000000  0.5758380000000  0.4729100000000 1.0
C      1  0.5575280000000  0.5397060000000  0.4355830000000 1.0
C      1  0.5586350000000  0.4902160000000  0.4258240000000 1.0
C      1  0.5506820000000  0.4451080000000  0.4491920000000 1.0
C      1  0.5518320000000  0.4252030000000  0.4951680000000 1.0
C      1  0.5583200000000  0.4364840000000  0.5425620000000 1.0
C      1  0.5537690000000  0.4870610000000  0.5769390000000 1.0
C      1  0.5558510000000  0.5349640000000  0.5747350000000 1.0
C      1  0.5557380000000  0.5729130000000  0.5223450000000 1.0
C      1  0.4830860000000  0.5829950000000  0.5180980000000 1.0
C      1  0.4774970000000  0.5854190000000  0.4595650000000 1.0
C      1  0.4853020000000  0.5403630000000  0.4171750000000 1.0
C      1  0.4831180000000  0.4866270000000  0.4106960000000 1.0
C      1  0.4764130000000  0.4335680000000  0.4399620000000 1.0
C      1  0.4790620000000  0.4200910000000  0.5198030000000 1.0
C      1  0.4849440000000  0.4306850000000  0.5653010000000 1.0
C      1  0.4816010000000  0.4844160000000  0.5932230000000 1.0
C      1  0.4811870000000  0.5559950000000  0.5681390000000 1.0
C      1  0.5183910000000  0.5190500000000  0.4532670000000 1.0
C      1  0.5049510000000  0.4873950000000  0.4532640000000 1.0
C      1  0.5127300000000  0.4649310000000  0.4696450000000 1.0
C      1  0.5185430000000  0.4518810000000  0.5162640000000 1.0
C      1  0.5067840000000  0.4685200000000  0.5383240000000 1.0
C      1  0.5163730000000  0.4982190000000  0.5460260000000 1.0
C      1  0.5094720000000  0.5342250000000  0.5320890000000 1.0
C      1  0.5176830000000  0.5476160000000  0.5049490000000 1.0
C      1  0.5054190000000  0.5412400000000  0.4703850000000 1.0
C      1  0.4572880000000  0.4553690000000  0.4417360000000 1.0
C      1  0.4652530000000  0.4257300000000  0.4947210000000 1.0
C      1  0.4702390000000  0.4401800000000  0.5406170000000 1.0
C      1  0.4625180000000  0.4765260000000  0.5739170000000 1.0
C      1  0.4690040000000  0.5320390000000  0.5763250000000 1.0
C      1  0.4652760000000  0.5539270000000  0.5152540000000 1.0
C      1  0.4513670000000  0.5756720000000  0.4748120000000 1.0
C      1  0.4670880000000  0.5306000000000  0.4391160000000 1.0
C      1  0.4654600000000  0.5003250000000  0.4331270000000 1.0
C      1  0.6055470000000  0.5092000000000  0.4735500000000 1.0
C      1  0.5898430000000  0.4853130000000  0.4664970000000 1.0
C      1  0.5937070000000  0.4621310000000  0.4876220000000 1.0
C      1  0.6077520000000  0.4642730000000  0.5125900000000 1.0
C      1  0.5920410000000  0.4752250000000  0.5356920000000 1.0
C      1  0.6028780000000  0.5029160000000  0.5435180000000 1.0
C      1  0.5888690000000  0.5283110000000  0.5348590000000 1.0
C      1  0.6030360000000  0.5413510000000  0.5120210000000 1.0
C      1  0.5929570000000  0.5354090000000  0.4851540000000 1.0
C      1  0.4834860000000  0.5279660000000  0.6024500000000 1.0
C      1  0.4856460000000  0.5938010000000  0.5457500000000 1.0
C      1  0.4867280000000  0.6084140000000  0.4775360000000 1.0
C      1  0.4878990000000  0.5703570000000  0.4151440000000 1.0
C      1  0.4897240000000  0.5058530000000  0.3888800000000 1.0
C      1  0.4836930000000  0.4380510000000  0.4107360000000 1.0
C      1  0.4784480000000  0.4058510000000  0.4756600000000 1.0
C      1  0.4900260000000  0.4006150000000  0.5580710000000 1.0
C      1  0.4876680000000  0.4569520000000  0.6047440000000 1.0
C      1  0.5273490000000  0.5429960000000  0.5796560000000 1.0
C      1  0.5302970000000  0.5878990000000  0.5281160000000 1.0
C      1  0.5288490000000  0.5859100000000  0.4671490000000 1.0
C      1  0.5331880000000  0.5499000000000  0.4194750000000 1.0
C      1  0.5317050000000  0.4895090000000  0.4109610000000 1.0
C      1  0.5252870000000  0.4333620000000  0.4370300000000 1.0
C      1  0.5244990000000  0.4105890000000  0.4956390000000 1.0
C      1  0.5329410000000  0.4271790000000  0.5569770000000 1.0
C      1  0.5283250000000  0.4813610000000  0.5914150000000 1.0
C      1  0.4371380000000  0.5248580000000  0.5340470000000 1.0
C      1  0.4221230000000  0.5293600000000  0.5104760000000 1.0
C      1  0.4351500000000  0.5298110000000  0.4849610000000 1.0
C      1  0.4262410000000  0.5108150000000  0.4622580000000 1.0
C      1  0.4165310000000  0.4860280000000  0.4500660000000 1.0
C      1  0.4180810000000  0.4621740000000  0.4716020000000 1.0
C      1  0.4332470000000  0.4603440000000  0.5012310000000 1.0
C      1  0.4223230000000  0.4705540000000  0.5310060000000 1.0
C      1  0.4357010000000  0.4960580000000  0.5429550000000 1.0
C      1  0.4395870000000  0.5712380000000  0.4304530000000 1.0
C      1  0.4419520000000  0.5237100000000  0.4017270000000 1.0
C      1  0.4390730000000  0.4660180000000  0.4093130000000 1.0
C      1  0.4318810000000  0.4141710000000  0.4653980000000 1.0
C      1  0.4382510000000  0.4044640000000  0.5364390000000 1.0
C      1  0.4372150000000  0.4439610000000  0.5884220000000 1.0
C      1  0.4377290000000  0.5102010000000  0.6009700000000 1.0
C      1  0.4367790000000  0.5722220000000  0.5501280000000 1.0
C      1  0.4444250000000  0.5933360000000  0.4984750000000 1.0
C      1  0.5134710000000  0.5285790000000  0.4218740000000 1.0
C      1  0.5086680000000  0.4763760000000  0.4233850000000 1.0
C      1  0.5041220000000  0.4377120000000  0.4570050000000 1.0
C      1  0.5100920000000  0.4222650000000  0.5188090000000 1.0
C      1  0.5111660000000  0.4466820000000  0.5642510000000 1.0
C      1  0.5076950000000  0.4976690000000  0.5795080000000 1.0
C      1  0.5093270000000  0.5544630000000  0.5577300000000 1.0
C      1  0.5113170000000  0.5793680000000  0.5077410000000 1.0
C      1  0.5068450000000  0.5694420000000  0.4560160000000 1.0
C      1  0.5936140000000  0.4551520000000  0.4227860000000 1.0
C      1  0.5916610000000  0.4213530000000  0.4628870000000 1.0
C      1  0.5953200000000  0.4181410000000  0.5173700000000 1.0
C      1  0.5794330000000  0.4433370000000  0.5628760000000 1.0
C      1  0.5929250000000  0.5075250000000  0.5919120000000 1.0
C      1  0.5769700000000  0.5544010000000  0.5677790000000 1.0
C      1  0.5972430000000  0.5842230000000  0.5017960000000 1.0
C      1  0.5979510000000  0.5688540000000  0.4441410000000 1.0
C      1  0.6003100000000  0.5184480000000  0.4266790000000 1.0
C      1  0.6133460000000  0.5670790000000  0.5149100000000 1.0
C      1  0.6110540000000  0.5512130000000  0.4612000000000 1.0
C      1  0.6160310000000  0.5236360000000  0.4492700000000 1.0
C      1  0.6065710000000  0.4649590000000  0.4454980000000 1.0
C      1  0.6067760000000  0.4444060000000  0.4677820000000 1.0
C      1  0.6131260000000  0.4380870000000  0.5262750000000 1.0
C      1  0.6068050000000  0.4451820000000  0.5540530000000 1.0
C      1  0.6096140000000  0.5152160000000  0.5707770000000 1.0
C      1  0.6039580000000  0.5439120000000  0.5664690000000 1.0
C      1  0.4812490000000  0.5072020000000  0.5081950000000 1.0
END
