TITL C-3577079-311-88 1.66715421230112e-06 125000 -812.592504002446 0 0 131 (C1) n - 1
REM
REM in /home/bkarasulu/work/CARBON/AIRSS/Generating-Clusters/EDIP-Nigel-Params/with-SteepDescent/Higher-Symm/SD-CG/HFTN-CG
REM
REM
REM
REM
REM
REM ./C.cell (12c818d87b63d06a65506943cc24bca4)
REM
REM compiler GCC version 9.2.1 20190827 (Red Hat 9.2.1-1)
REM options -cpp -mtune=generic -march=x86-64 -g -O0 -fpre-include=/usr/include/finclude/math-vector-fortran.h
REM seed 1764202643 -356104338 985948150 356413660 -1642530357 -1161082340 1610536435 2107859721 329761847 -129081213 -111004061 42189877 -510546581 528605467 -84181992 -1547960966 -169083430 321184845 -130366860 -336415143 -2071116136 1054918476 761141599 1117677254 1407014330 50320247 818406829 -1887691052 -1253901819 584578214 1562751775 -1050259070 1192947838
REM
CELL 1.54180   50.00000   50.00000   50.00000   90.00000   90.00000   90.00000
LATT -1
SFAC C  
C      1  0.5385450000000  0.4085130000000  0.4885430000000 1.0
C      1  0.4876150000000  0.4104460000000  0.5399240000000 1.0
C      1  0.4696420000000  0.4085470000000  0.4706720000000 1.0
C      1  0.5217690000000  0.4221830000000  0.5094690000000 1.0
C      1  0.4810970000000  0.4241560000000  0.5141780000000 1.0
C      1  0.4969920000000  0.4195420000000  0.4764560000000 1.0
C      1  0.4871030000000  0.5177970000000  0.4547750000000 1.0
C      1  0.5459700000000  0.5186710000000  0.5114470000000 1.0
C      1  0.4657790000000  0.5205810000000  0.5329620000000 1.0
C      1  0.4619810000000  0.4599380000000  0.5862220000000 1.0
C      1  0.4466860000000  0.4617080000000  0.4263090000000 1.0
C      1  0.5882080000000  0.4616210000000  0.4923120000000 1.0
C      1  0.4593630000000  0.4097440000000  0.4979870000000 1.0
C      1  0.5219460000000  0.4057980000000  0.4646080000000 1.0
C      1  0.5163590000000  0.4083960000000  0.5362790000000 1.0
C      1  0.5388010000000  0.5776260000000  0.4843150000000 1.0
C      1  0.4930750000000  0.5779480000000  0.5422390000000 1.0
C      1  0.4656870000000  0.5771820000000  0.4743020000000 1.0
C      1  0.5290480000000  0.5491960000000  0.5690550000000 1.0
C      1  0.4259440000000  0.5487710000000  0.4926410000000 1.0
C      1  0.5440900000000  0.5481870000000  0.4398830000000 1.0
C      1  0.5096600000000  0.4297560000000  0.5794020000000 1.0
C      1  0.4255370000000  0.4312980000000  0.4709350000000 1.0
C      1  0.5620910000000  0.4304600000000  0.4507290000000 1.0
C      1  0.5871470000000  0.5128570000000  0.4852400000000 1.0
C      1  0.4675950000000  0.5105330000000  0.5809070000000 1.0
C      1  0.4427590000000  0.5129070000000  0.4326570000000 1.0
C      1  0.4574080000000  0.5585190000000  0.5727950000000 1.0
C      1  0.4570460000000  0.5598840000000  0.4276330000000 1.0
C      1  0.5836650000000  0.5602780000000  0.5003300000000 1.0
C      1  0.5445870000000  0.4563840000000  0.4863280000000 1.0
C      1  0.4856940000000  0.4584530000000  0.5491720000000 1.0
C      1  0.4666010000000  0.4569700000000  0.4654940000000 1.0
C      1  0.4958680000000  0.4487780000000  0.4257430000000 1.0
C      1  0.5621280000000  0.4491150000000  0.5356760000000 1.0
C      1  0.4358190000000  0.4477730000000  0.5443670000000 1.0
C      1  0.4633350000000  0.5321320000000  0.4285280000000 1.0
C      1  0.5811530000000  0.5323490000000  0.5051540000000 1.0
C      1  0.4529180000000  0.5297920000000  0.5627900000000 1.0
C      1  0.5583240000000  0.4298590000000  0.4815210000000 1.0
C      1  0.4841310000000  0.4301030000000  0.5619530000000 1.0
C      1  0.4535210000000  0.4297900000000  0.4573600000000 1.0
C      1  0.5368970000000  0.4651370000000  0.5308700000000 1.0
C      1  0.4545670000000  0.4680620000000  0.5311170000000 1.0
C      1  0.5013630000000  0.4653820000000  0.4499270000000 1.0
C      1  0.5196370000000  0.5839540000000  0.4632730000000 1.0
C      1  0.5210040000000  0.5845160000000  0.5362160000000 1.0
C      1  0.4569700000000  0.5858920000000  0.5007390000000 1.0
C      1  0.4914150000000  0.5049040000000  0.5281670000000 1.0
C      1  0.4803850000000  0.5031680000000  0.4801190000000 1.0
C      1  0.5274780000000  0.5032850000000  0.4935180000000 1.0
C      1  0.4133130000000  0.5005060000000  0.5469260000000 1.0
C      1  0.5037890000000  0.5070890000000  0.4036720000000 1.0
C      1  0.5804280000000  0.5075980000000  0.5517440000000 1.0
C      1  0.5259170000000  0.4907720000000  0.4119370000000 1.0
C      1  0.5625100000000  0.4909890000000  0.5665610000000 1.0
C      1  0.4101910000000  0.4883620000000  0.5211870000000 1.0
C      1  0.4317760000000  0.4876710000000  0.5631760000000 1.0
C      1  0.4777690000000  0.4964640000000  0.4068850000000 1.0
C      1  0.5922740000000  0.4966350000000  0.5286050000000 1.0
C      1  0.5300700000000  0.4189010000000  0.5600720000000 1.0
C      1  0.4324610000000  0.4211520000000  0.4989140000000 1.0
C      1  0.5352620000000  0.4186870000000  0.4415390000000 1.0
C      1  0.5464570000000  0.5058510000000  0.5854540000000 1.0
C      1  0.4025810000000  0.5056890000000  0.4995030000000 1.0
C      1  0.5505480000000  0.5057230000000  0.4155080000000 1.0
C      1  0.5701730000000  0.5483560000000  0.4540530000000 1.0
C      1  0.5034260000000  0.5474760000000  0.5843160000000 1.0
C      1  0.4229950000000  0.5487490000000  0.4626580000000 1.0
C      1  0.5145620000000  0.4680180000000  0.5864310000000 1.0
C      1  0.4199570000000  0.4697720000000  0.4698200000000 1.0
C      1  0.5661350000000  0.4688460000000  0.4455890000000 1.0
C      1  0.4412780000000  0.5765070000000  0.5577220000000 1.0
C      1  0.4795310000000  0.5745700000000  0.4189610000000 1.0
C      1  0.5798370000000  0.5752590000000  0.5239140000000 1.0
C      1  0.4469390000000  0.4740940000000  0.4799120000000 1.0
C      1  0.5425170000000  0.4726240000000  0.4624040000000 1.0
C      1  0.5126590000000  0.4703320000000  0.5559380000000 1.0
C      1  0.5337400000000  0.5022290000000  0.4644100000000 1.0
C      1  0.5134940000000  0.5060490000000  0.5474880000000 1.0
C      1  0.4519870000000  0.5028690000000  0.4887750000000 1.0
C      1  0.4394470000000  0.5613530000000  0.5332380000000 1.0
C      1  0.5010250000000  0.5568390000000  0.4271200000000 1.0
C      1  0.5615740000000  0.5581330000000  0.5384470000000 1.0
C      1  0.4225650000000  0.4579780000000  0.4425160000000 1.0
C      1  0.5875430000000  0.4574680000000  0.4631160000000 1.0
C      1  0.4888330000000  0.4570120000000  0.5976480000000 1.0
C      1  0.5778490000000  0.4415370000000  0.5117550000000 1.0
C      1  0.4492730000000  0.4379050000000  0.5696440000000 1.0
C      1  0.4675570000000  0.4408680000000  0.4242020000000 1.0
C      1  0.4266740000000  0.5193600000000  0.4562290000000 1.0
C      1  0.5746530000000  0.5188510000000  0.4595460000000 1.0
C      1  0.4958960000000  0.5180740000000  0.5858900000000 1.0
C      1  0.4454940000000  0.5680490000000  0.4536380000000 1.0
C      1  0.5663600000000  0.5674540000000  0.4776280000000 1.0
C      1  0.4853250000000  0.5659730000000  0.5690870000000 1.0
C      1  0.5730270000000  0.5361980000000  0.5573840000000 1.0
C      1  0.4219260000000  0.5276640000000  0.5389250000000 1.0
C      1  0.5122590000000  0.5357010000000  0.4072280000000 1.0
C      1  0.5179530000000  0.4980160000000  0.5905220000000 1.0
C      1  0.4111300000000  0.4990140000000  0.4714500000000 1.0
C      1  0.5693710000000  0.4984850000000  0.4381080000000 1.0
C      1  0.4561740000000  0.4889450000000  0.4231960000000 1.0
C      1  0.5892220000000  0.4890980000000  0.5017630000000 1.0
C      1  0.4581040000000  0.4845770000000  0.5718320000000 1.0
C      1  0.4473130000000  0.4977840000000  0.5194840000000 1.0
C      1  0.5088880000000  0.4958440000000  0.4457050000000 1.0
C      1  0.5411890000000  0.4970660000000  0.5352590000000 1.0
C      1  0.4093420000000  0.5317340000000  0.5106630000000 1.0
C      1  0.5419980000000  0.5339760000000  0.4136860000000 1.0
C      1  0.5524930000000  0.5341380000000  0.5796260000000 1.0
C      1  0.4257620000000  0.4304850000000  0.5246370000000 1.0
C      1  0.5165430000000  0.4302400000000  0.4239580000000 1.0
C      1  0.5551850000000  0.4299840000000  0.5544950000000 1.0
C      1  0.5225670000000  0.4537050000000  0.5056700000000 1.0
C      1  0.4802820000000  0.4542140000000  0.5189570000000 1.0
C      1  0.4955870000000  0.4507240000000  0.4781970000000 1.0
C      1  0.4697650000000  0.5455460000000  0.5139490000000 1.0
C      1  0.5020640000000  0.5436370000000  0.4651620000000 1.0
C      1  0.5293630000000  0.5448290000000  0.5185260000000 1.0
C      1  0.5196140000000  0.5349800000000  0.5449440000000 1.0
C      1  0.4519300000000  0.5345750000000  0.4929430000000 1.0
C      1  0.5291420000000  0.5326300000000  0.4599210000000 1.0
C      1  0.5318970000000  0.5861450000000  0.5101430000000 1.0
C      1  0.4741480000000  0.5871010000000  0.5234260000000 1.0
C      1  0.4917150000000  0.5847250000000  0.4671250000000 1.0
C      1  0.5252140000000  0.5713260000000  0.4380090000000 1.0
C      1  0.5403900000000  0.5731250000000  0.5544100000000 1.0
C      1  0.4312130000000  0.5746390000000  0.5078290000000 1.0
C      1  0.4999230000000  0.5116430000000  0.5004700000000 1.0
C      1  0.5004700000000  0.5422020000000  0.4993390000000 1.0
END
