TITL C-3577079-311-438 -2.23997501553996e-06 125000 -811.907677181276 0 0 129 (C1) n - 1
REM
REM in /home/bkarasulu/work/CARBON/AIRSS/Generating-Clusters/EDIP-Nigel-Params/with-SteepDescent/Higher-Symm/SD-CG/HFTN-CG
REM
REM
REM
REM
REM
REM ./C.cell (12c818d87b63d06a65506943cc24bca4)
REM
REM compiler GCC version 9.2.1 20190827 (Red Hat 9.2.1-1)
REM options -cpp -mtune=generic -march=x86-64 -g -O0 -fpre-include=/usr/include/finclude/math-vector-fortran.h
REM seed 611421082 1485155643 -859154993 1573886481 38450727 764904976 -1647324626 1684057841 -1357838241 852725038 -1123483519 2109575888 1260261263 -1312230724 1590561052 461420634 90741425 1498247030 -1874173292 1880738004 1972060920 -1776619195 1114049183 -1482621650 1833436289 -470631932 -484828526 -2044202157 -1799956726 1026253070 1852713712 389192453 869510531
REM
CELL 1.54180   50.00000   50.00000   50.00000   90.00000   90.00000   90.00000
LATT -1
SFAC C  
C      1  0.5551060000000  0.4253040000000  0.5093830000000 1.0
C      1  0.4555040000000  0.5090700000000  0.4624840000000 1.0
C      1  0.4607610000000  0.4418220000000  0.4657830000000 1.0
C      1  0.4948630000000  0.5351060000000  0.5296660000000 1.0
C      1  0.4722350000000  0.5320910000000  0.4547830000000 1.0
C      1  0.4807770000000  0.4137700000000  0.4343300000000 1.0
C      1  0.5147500000000  0.4133870000000  0.4786900000000 1.0
C      1  0.5290580000000  0.4115960000000  0.5055660000000 1.0
C      1  0.4174610000000  0.4621980000000  0.5238990000000 1.0
C      1  0.5311760000000  0.5435960000000  0.4914750000000 1.0
C      1  0.5086750000000  0.4546430000000  0.4629890000000 1.0
C      1  0.5046670000000  0.5091460000000  0.4597400000000 1.0
C      1  0.5603000000000  0.5823210000000  0.5436300000000 1.0
C      1  0.5438730000000  0.5801010000000  0.4926870000000 1.0
C      1  0.5278790000000  0.5496940000000  0.5714500000000 1.0
C      1  0.4183050000000  0.4655450000000  0.4591410000000 1.0
C      1  0.4217720000000  0.4422350000000  0.5026560000000 1.0
C      1  0.4940400000000  0.5925960000000  0.5174300000000 1.0
C      1  0.5257260000000  0.5009900000000  0.5473220000000 1.0
C      1  0.5982030000000  0.5118290000000  0.4715520000000 1.0
C      1  0.4531150000000  0.5326670000000  0.4998980000000 1.0
C      1  0.4553620000000  0.4766820000000  0.4926490000000 1.0
C      1  0.4768860000000  0.5359740000000  0.4165430000000 1.0
C      1  0.5263310000000  0.4807170000000  0.4612190000000 1.0
C      1  0.4368320000000  0.4551780000000  0.4802210000000 1.0
C      1  0.4936370000000  0.4870050000000  0.4155070000000 1.0
C      1  0.5672190000000  0.5534500000000  0.4649680000000 1.0
C      1  0.5225500000000  0.5424830000000  0.4373250000000 1.0
C      1  0.5375200000000  0.4695140000000  0.4325620000000 1.0
C      1  0.4620310000000  0.5754570000000  0.5492360000000 1.0
C      1  0.4215680000000  0.5343570000000  0.5004110000000 1.0
C      1  0.5314180000000  0.4252260000000  0.5657560000000 1.0
C      1  0.4353320000000  0.5785070000000  0.5026110000000 1.0
C      1  0.4381830000000  0.5121110000000  0.5791650000000 1.0
C      1  0.4678830000000  0.4800190000000  0.5729750000000 1.0
C      1  0.4416430000000  0.4965780000000  0.5105430000000 1.0
C      1  0.4850650000000  0.5733190000000  0.4448860000000 1.0
C      1  0.4334900000000  0.5083120000000  0.4431630000000 1.0
C      1  0.5290180000000  0.5807460000000  0.4685010000000 1.0
C      1  0.5829050000000  0.5512470000000  0.5143130000000 1.0
C      1  0.4584640000000  0.5553850000000  0.5693300000000 1.0
C      1  0.4565070000000  0.5719470000000  0.4461270000000 1.0
C      1  0.5489650000000  0.5175370000000  0.4865690000000 1.0
C      1  0.5808010000000  0.4641920000000  0.5279030000000 1.0
C      1  0.4389370000000  0.5676750000000  0.5308060000000 1.0
C      1  0.6050190000000  0.4969080000000  0.4986190000000 1.0
C      1  0.4855710000000  0.4042540000000  0.4818210000000 1.0
C      1  0.4079010000000  0.5070160000000  0.4896690000000 1.0
C      1  0.5699010000000  0.5245580000000  0.4654760000000 1.0
C      1  0.5668730000000  0.4322380000000  0.4833800000000 1.0
C      1  0.5651770000000  0.4917320000000  0.5653410000000 1.0
C      1  0.4135730000000  0.4943250000000  0.4614840000000 1.0
C      1  0.5339620000000  0.5176070000000  0.4277190000000 1.0
C      1  0.4976250000000  0.5536270000000  0.4269130000000 1.0
C      1  0.5691870000000  0.5664240000000  0.4913760000000 1.0
C      1  0.4994270000000  0.5160820000000  0.5534380000000 1.0
C      1  0.5796960000000  0.4967790000000  0.4256570000000 1.0
C      1  0.4841410000000  0.5044420000000  0.6123110000000 1.0
C      1  0.5340010000000  0.5750490000000  0.5351790000000 1.0
C      1  0.5200350000000  0.4383240000000  0.4370550000000 1.0
C      1  0.4678780000000  0.4138060000000  0.4596040000000 1.0
C      1  0.4331100000000  0.4186840000000  0.5120150000000 1.0
C      1  0.5327730000000  0.4640100000000  0.5083140000000 1.0
C      1  0.5855490000000  0.4811330000000  0.5495820000000 1.0
C      1  0.5869170000000  0.4637040000000  0.4533300000000 1.0
C      1  0.5550990000000  0.5378770000000  0.5580390000000 1.0
C      1  0.5546180000000  0.4494980000000  0.5275440000000 1.0
C      1  0.4818520000000  0.4152610000000  0.5098340000000 1.0
C      1  0.4899080000000  0.5777210000000  0.5405370000000 1.0
C      1  0.4712490000000  0.5508910000000  0.4803950000000 1.0
C      1  0.5147790000000  0.5725890000000  0.5564600000000 1.0
C      1  0.4355760000000  0.5377820000000  0.5648020000000 1.0
C      1  0.4735000000000  0.5077590000000  0.4105740000000 1.0
C      1  0.4792460000000  0.4907630000000  0.4648790000000 1.0
C      1  0.5455270000000  0.4475420000000  0.5569990000000 1.0
C      1  0.4649570000000  0.5030230000000  0.5909950000000 1.0
C      1  0.4765470000000  0.4933780000000  0.5464420000000 1.0
C      1  0.5681230000000  0.4686050000000  0.4288270000000 1.0
C      1  0.4366560000000  0.4625680000000  0.5470120000000 1.0
C      1  0.5864550000000  0.5208660000000  0.5078510000000 1.0
C      1  0.5738970000000  0.5578880000000  0.5430090000000 1.0
C      1  0.4806080000000  0.5474640000000  0.5848650000000 1.0
C      1  0.4944410000000  0.4342530000000  0.4209640000000 1.0
C      1  0.4854140000000  0.5912000000000  0.4911520000000 1.0
C      1  0.5261690000000  0.5457190000000  0.5224730000000 1.0
C      1  0.5597100000000  0.5103000000000  0.5130220000000 1.0
C      1  0.4824290000000  0.4665930000000  0.5017280000000 1.0
C      1  0.5570910000000  0.4182490000000  0.4612660000000 1.0
C      1  0.5674620000000  0.5179550000000  0.5746850000000 1.0
C      1  0.5922710000000  0.4699850000000  0.5017190000000 1.0
C      1  0.5732790000000  0.4615110000000  0.4798910000000 1.0
C      1  0.6008000000000  0.4911680000000  0.4483580000000 1.0
C      1  0.4916880000000  0.4638880000000  0.5786840000000 1.0
C      1  0.4490570000000  0.4668430000000  0.4170200000000 1.0
C      1  0.5467330000000  0.4789210000000  0.4847980000000 1.0
C      1  0.5068670000000  0.4160010000000  0.5240020000000 1.0
C      1  0.4464020000000  0.4962780000000  0.4163300000000 1.0
C      1  0.4616690000000  0.5364810000000  0.5293460000000 1.0
C      1  0.4805360000000  0.4619390000000  0.4539370000000 1.0
C      1  0.5431260000000  0.5228800000000  0.5349430000000 1.0
C      1  0.5084810000000  0.5080490000000  0.5982160000000 1.0
C      1  0.5306780000000  0.4155920000000  0.4533920000000 1.0
C      1  0.4218410000000  0.5595360000000  0.4837080000000 1.0
C      1  0.5226510000000  0.4916600000000  0.4182610000000 1.0
C      1  0.4083090000000  0.5064990000000  0.5409020000000 1.0
C      1  0.5410560000000  0.5606660000000  0.4519000000000 1.0
C      1  0.4251100000000  0.5356450000000  0.4398740000000 1.0
C      1  0.4281970000000  0.4585310000000  0.4337880000000 1.0
C      1  0.4862080000000  0.4423750000000  0.5589880000000 1.0
C      1  0.5002970000000  0.5809740000000  0.4687190000000 1.0
C      1  0.5073650000000  0.4481790000000  0.4945020000000 1.0
C      1  0.4922880000000  0.4883360000000  0.5180480000000 1.0
C      1  0.4792140000000  0.4614580000000  0.4235090000000 1.0
C      1  0.5043030000000  0.5315890000000  0.5793550000000 1.0
C      1  0.4036530000000  0.4892120000000  0.5166900000000 1.0
C      1  0.5041070000000  0.5303950000000  0.4830240000000 1.0
C      1  0.5611500000000  0.5153560000000  0.4382030000000 1.0
C      1  0.5188720000000  0.4826480000000  0.5257020000000 1.0
C      1  0.4580090000000  0.5867380000000  0.4875650000000 1.0
C      1  0.5444230000000  0.4726100000000  0.5734830000000 1.0
C      1  0.4593680000000  0.4418350000000  0.5458520000000 1.0
C      1  0.4181400000000  0.5355250000000  0.5387440000000 1.0
C      1  0.4575430000000  0.4212500000000  0.5248930000000 1.0
C      1  0.4349120000000  0.5561800000000  0.4563830000000 1.0
C      1  0.4523410000000  0.5078060000000  0.5375570000000 1.0
C      1  0.4936440000000  0.5162830000000  0.5066220000000 1.0
C      1  0.5157020000000  0.4833950000000  0.5809310000000 1.0
C      1  0.5077480000000  0.4250150000000  0.5512950000000 1.0
C      1  0.4255410000000  0.4909990000000  0.5603800000000 1.0
END
