TITL C-3578198-8939-232 -2.46437117489694e-06 125000 -1023.72039412911 0 0 165 (C1) n - 1
REM
REM in /home/bkarasulu/work/CARBON/AIRSS/Generating-Clusters/EDIP-Nigel-Params/with-SteepDescent/Higher-Symm/SD-CG/HFTN-CG
REM
REM
REM
REM
REM
REM ./C.cell (12c818d87b63d06a65506943cc24bca4)
REM
REM compiler GCC version 9.2.1 20190827 (Red Hat 9.2.1-1)
REM options -cpp -mtune=generic -march=x86-64 -g -O0 -fpre-include=/usr/include/finclude/math-vector-fortran.h
REM seed 152914014 1781750105 650868460 534798233 -41679119 2018837720 -650730245 1498966042 1762363651 1036685074 1584277414 -747871337 594369773 649789181 1119515703 -1949148527 244659873 246877182 -64709550 -701272189 274876627 93114643 -236071668 728785843 338632096 -1373333327 826687177 285679928 778606587 179536854 374995628 -522946939 -1523804140
REM
CELL 1.54180   50.00000   50.00000   50.00000   90.00000   90.00000   90.00000
LATT -1
SFAC C  
C      1  0.4181630000000  0.4340950000000  0.4988990000000 1.0
C      1  0.4457520000000  0.4362380000000  0.5621380000000 1.0
C      1  0.5129540000000  0.4304040000000  0.5782430000000 1.0
C      1  0.5671300000000  0.4299880000000  0.5345180000000 1.0
C      1  0.5767180000000  0.4363530000000  0.4666550000000 1.0
C      1  0.5235340000000  0.4351640000000  0.4220670000000 1.0
C      1  0.4559340000000  0.4321050000000  0.4409290000000 1.0
C      1  0.5317610000000  0.4498980000000  0.4701560000000 1.0
C      1  0.5013570000000  0.4479610000000  0.4603410000000 1.0
C      1  0.4632730000000  0.4490080000000  0.4835920000000 1.0
C      1  0.4592770000000  0.4485700000000  0.5136180000000 1.0
C      1  0.4877040000000  0.4465690000000  0.5378850000000 1.0
C      1  0.5186000000000  0.4440330000000  0.5334070000000 1.0
C      1  0.5398850000000  0.4476560000000  0.5004950000000 1.0
C      1  0.4204790000000  0.4707850000000  0.4397480000000 1.0
C      1  0.4020270000000  0.4757210000000  0.5258460000000 1.0
C      1  0.4574580000000  0.4747170000000  0.5948180000000 1.0
C      1  0.5458880000000  0.4689420000000  0.5914320000000 1.0
C      1  0.5973900000000  0.4700560000000  0.5207120000000 1.0
C      1  0.5768780000000  0.4765610000000  0.4374540000000 1.0
C      1  0.4982470000000  0.4736370000000  0.4007960000000 1.0
C      1  0.4740740000000  0.5609760000000  0.5790690000000 1.0
C      1  0.5484510000000  0.5600880000000  0.5739130000000 1.0
C      1  0.5918030000000  0.5635730000000  0.5125420000000 1.0
C      1  0.5635820000000  0.5645310000000  0.4383050000000 1.0
C      1  0.4885360000000  0.5622320000000  0.4080330000000 1.0
C      1  0.4215920000000  0.5612400000000  0.4446830000000 1.0
C      1  0.4237140000000  0.5631730000000  0.5199190000000 1.0
C      1  0.4262170000000  0.4268460000000  0.5452400000000 1.0
C      1  0.4869660000000  0.4223660000000  0.5827620000000 1.0
C      1  0.5521610000000  0.4166400000000  0.5535730000000 1.0
C      1  0.5840250000000  0.4258660000000  0.4910090000000 1.0
C      1  0.5495610000000  0.4278010000000  0.4280310000000 1.0
C      1  0.4778070000000  0.4207840000000  0.4285030000000 1.0
C      1  0.4227080000000  0.4231200000000  0.4739670000000 1.0
C      1  0.5195850000000  0.5604710000000  0.4625450000000 1.0
C      1  0.4774280000000  0.5745370000000  0.4525110000000 1.0
C      1  0.4571860000000  0.5745020000000  0.4752680000000 1.0
C      1  0.4729780000000  0.5431090000000  0.5182960000000 1.0
C      1  0.5021450000000  0.5801780000000  0.5416510000000 1.0
C      1  0.5314100000000  0.5800120000000  0.5297610000000 1.0
C      1  0.5517400000000  0.5716750000000  0.4960210000000 1.0
C      1  0.4614160000000  0.5961890000000  0.5232500000000 1.0
C      1  0.4871490000000  0.6054320000000  0.5355390000000 1.0
C      1  0.5310110000000  0.6073740000000  0.5156440000000 1.0
C      1  0.5371500000000  0.5972210000000  0.4891700000000 1.0
C      1  0.5123820000000  0.5857810000000  0.4775130000000 1.0
C      1  0.4939980000000  0.5984020000000  0.4586050000000 1.0
C      1  0.4714240000000  0.5907080000000  0.4965450000000 1.0
C      1  0.5542820000000  0.5760120000000  0.5492230000000 1.0
C      1  0.5798600000000  0.5762710000000  0.4884660000000 1.0
C      1  0.5329470000000  0.5711200000000  0.4377430000000 1.0
C      1  0.4670240000000  0.5753250000000  0.4247870000000 1.0
C      1  0.4281960000000  0.5772330000000  0.4696190000000 1.0
C      1  0.4528230000000  0.5679440000000  0.5302680000000 1.0
C      1  0.4995310000000  0.5741310000000  0.5712050000000 1.0
C      1  0.5836870000000  0.5657160000000  0.4613200000000 1.0
C      1  0.5174990000000  0.5660680000000  0.4134820000000 1.0
C      1  0.4420540000000  0.5586830000000  0.4222030000000 1.0
C      1  0.4133400000000  0.5668390000000  0.4927670000000 1.0
C      1  0.4506130000000  0.5615880000000  0.5604270000000 1.0
C      1  0.5219370000000  0.5624840000000  0.5852610000000 1.0
C      1  0.5790330000000  0.5714270000000  0.5364180000000 1.0
C      1  0.5292090000000  0.4813470000000  0.4714140000000 1.0
C      1  0.4923320000000  0.4797120000000  0.4593320000000 1.0
C      1  0.4657080000000  0.4799950000000  0.4772240000000 1.0
C      1  0.4620450000000  0.4796890000000  0.5169060000000 1.0
C      1  0.4851760000000  0.4777480000000  0.5398660000000 1.0
C      1  0.5241940000000  0.4763790000000  0.5353100000000 1.0
C      1  0.5413360000000  0.4792130000000  0.5082410000000 1.0
C      1  0.5071460000000  0.3992070000000  0.5362210000000 1.0
C      1  0.5431450000000  0.3993130000000  0.4982140000000 1.0
C      1  0.5395550000000  0.4018760000000  0.4684700000000 1.0
C      1  0.5107630000000  0.4021780000000  0.4608200000000 1.0
C      1  0.4667990000000  0.4012010000000  0.4866330000000 1.0
C      1  0.4571580000000  0.4023640000000  0.5151450000000 1.0
C      1  0.4774780000000  0.4031100000000  0.5385030000000 1.0
C      1  0.5883020000000  0.4996940000000  0.5569330000000 1.0
C      1  0.5994710000000  0.5059220000000  0.4675320000000 1.0
C      1  0.5336820000000  0.5063990000000  0.4030370000000 1.0
C      1  0.4430440000000  0.5021530000000  0.4103650000000 1.0
C      1  0.3963310000000  0.5045260000000  0.4877020000000 1.0
C      1  0.4300110000000  0.5086700000000  0.5731990000000 1.0
C      1  0.5129760000000  0.5014090000000  0.6049620000000 1.0
C      1  0.5196150000000  0.4638450000000  0.4190620000000 1.0
C      1  0.4479410000000  0.4598390000000  0.4338460000000 1.0
C      1  0.4138850000000  0.4629870000000  0.5008200000000 1.0
C      1  0.4432900000000  0.4638330000000  0.5704380000000 1.0
C      1  0.5182560000000  0.4584350000000  0.5851990000000 1.0
C      1  0.5752670000000  0.4582980000000  0.5374650000000 1.0
C      1  0.5765120000000  0.4650640000000  0.4646430000000 1.0
C      1  0.4893590000000  0.4927850000000  0.4330780000000 1.0
C      1  0.4417640000000  0.4918060000000  0.4636650000000 1.0
C      1  0.4364380000000  0.4919730000000  0.5251660000000 1.0
C      1  0.4788400000000  0.4892940000000  0.5663930000000 1.0
C      1  0.5375550000000  0.4879080000000  0.5590450000000 1.0
C      1  0.5678190000000  0.4926140000000  0.5102600000000 1.0
C      1  0.5468730000000  0.4955610000000  0.4525290000000 1.0
C      1  0.4964640000000  0.4785690000000  0.5926670000000 1.0
C      1  0.5685390000000  0.4765910000000  0.5607030000000 1.0
C      1  0.5892010000000  0.4828810000000  0.4849190000000 1.0
C      1  0.5423630000000  0.4837490000000  0.4212420000000 1.0
C      1  0.4633690000000  0.4800280000000  0.4167010000000 1.0
C      1  0.4123250000000  0.4811710000000  0.4765580000000 1.0
C      1  0.4259720000000  0.4841600000000  0.5556930000000 1.0
C      1  0.5890870000000  0.5343050000000  0.5067200000000 1.0
C      1  0.5588400000000  0.5350540000000  0.4353460000000 1.0
C      1  0.4822900000000  0.5331810000000  0.4111190000000 1.0
C      1  0.4181890000000  0.5325690000000  0.4533160000000 1.0
C      1  0.4196160000000  0.5353780000000  0.5304860000000 1.0
C      1  0.4793290000000  0.5323940000000  0.5862080000000 1.0
C      1  0.5540750000000  0.5305030000000  0.5722080000000 1.0
C      1  0.5240040000000  0.4206340000000  0.5519260000000 1.0
C      1  0.5596300000000  0.4244050000000  0.5062770000000 1.0
C      1  0.5503060000000  0.4276610000000  0.4568410000000 1.0
C      1  0.5030750000000  0.4243710000000  0.4409580000000 1.0
C      1  0.4511490000000  0.4240900000000  0.4697630000000 1.0
C      1  0.4382370000000  0.4262940000000  0.5192490000000 1.0
C      1  0.4735940000000  0.4264070000000  0.5576140000000 1.0
C      1  0.6108920000000  0.5182370000000  0.5175300000000 1.0
C      1  0.5823080000000  0.5223280000000  0.4242590000000 1.0
C      1  0.4891770000000  0.5191860000000  0.3869750000000 1.0
C      1  0.4032620000000  0.5167830000000  0.4342660000000 1.0
C      1  0.3923180000000  0.5253740000000  0.5319210000000 1.0
C      1  0.4625610000000  0.5229380000000  0.6077690000000 1.0
C      1  0.5591400000000  0.5170950000000  0.5977860000000 1.0
C      1  0.5934060000000  0.5008890000000  0.4386770000000 1.0
C      1  0.5083820000000  0.4989130000000  0.3890740000000 1.0
C      1  0.4169280000000  0.4950650000000  0.4226180000000 1.0
C      1  0.3897020000000  0.5015280000000  0.5164860000000 1.0
C      1  0.4464180000000  0.5024210000000  0.5972480000000 1.0
C      1  0.5421480000000  0.4953220000000  0.6051710000000 1.0
C      1  0.6065090000000  0.4951910000000  0.5337270000000 1.0
C      1  0.4707440000000  0.5180600000000  0.5618590000000 1.0
C      1  0.5279210000000  0.5177360000000  0.5642030000000 1.0
C      1  0.5649350000000  0.5226590000000  0.5217220000000 1.0
C      1  0.5574440000000  0.5265990000000  0.4645880000000 1.0
C      1  0.5002730000000  0.5230700000000  0.4327830000000 1.0
C      1  0.4463760000000  0.5212750000000  0.4527890000000 1.0
C      1  0.4317570000000  0.5179040000000  0.5090940000000 1.0
C      1  0.4950100000000  0.5396520000000  0.4585180000000 1.0
C      1  0.4646620000000  0.5366300000000  0.4716650000000 1.0
C      1  0.4582800000000  0.5264850000000  0.4995720000000 1.0
C      1  0.4867150000000  0.5271430000000  0.5389140000000 1.0
C      1  0.5161850000000  0.5288030000000  0.5395680000000 1.0
C      1  0.5361000000000  0.5383300000000  0.5176570000000 1.0
C      1  0.5399800000000  0.5474520000000  0.4797530000000 1.0
C      1  0.5861380000000  0.5306730000000  0.4759570000000 1.0
C      1  0.5303000000000  0.5302370000000  0.4204880000000 1.0
C      1  0.4530250000000  0.5287750000000  0.4212300000000 1.0
C      1  0.4077950000000  0.5309900000000  0.4815260000000 1.0
C      1  0.4354170000000  0.5341220000000  0.5574080000000 1.0
C      1  0.5096060000000  0.5266010000000  0.5896390000000 1.0
C      1  0.5735580000000  0.5238010000000  0.5509600000000 1.0
C      1  0.5096630000000  0.5216390000000  0.4961580000000 1.0
C      1  0.4968670000000  0.4059370000000  0.4876230000000 1.0
C      1  0.4977560000000  0.4368470000000  0.4956210000000 1.0
C      1  0.5116050000000  0.3642170000000  0.5051130000000 1.0
C      1  0.5149850000000  0.3910380000000  0.5081640000000 1.0
C      1  0.5001430000000  0.4664870000000  0.5003520000000 1.0
C      1  0.4962410000000  0.5488060000000  0.5015690000000 1.0
C      1  0.5043690000000  0.6472640000000  0.5191670000000 1.0
C      1  0.5046520000000  0.6207280000000  0.5171810000000 1.0
C      1  0.4982300000000  0.5783720000000  0.5025710000000 1.0
C      1  0.5004790000000  0.4944680000000  0.5003390000000 1.0
END
