TITL C-3578208-4450-223 -1.09453117976138e-06 125000 -936.497946698756 0 0 151 (C1) n - 1
REM
REM in /home/bkarasulu/work/CARBON/AIRSS/Generating-Clusters/EDIP-Nigel-Params/with-SteepDescent/Higher-Symm/SD-CG/HFTN-CG
REM
REM
REM
REM
REM
REM ./C.cell (12c818d87b63d06a65506943cc24bca4)
REM
REM compiler GCC version 9.2.1 20190827 (Red Hat 9.2.1-1)
REM options -cpp -mtune=generic -march=x86-64 -g -O0 -fpre-include=/usr/include/finclude/math-vector-fortran.h
REM seed -288257100 -533489779 1569908538 844966544 -15304240 1607606385 1907864614 2036002530 -521281591 -1912928569 -691878253 -293162160 1355638332 -100750041 -1887644816 757542174 1085939836 -1567171987 2144785826 1397378525 800116609 762556362 1508966029 -1324555612 1612841270 -362065656 120324079 -449876161 226536287 -1440271255 1945641291 840786567 -299583222
REM
CELL 1.54180   50.00000   50.00000   50.00000   90.00000   90.00000   90.00000
LATT -1
SFAC C  
C      1  0.4819350000000  0.4293910000000  0.4264840000000 1.0
C      1  0.5205850000000  0.4506680000000  0.4935960000000 1.0
C      1  0.5372030000000  0.4802460000000  0.4118470000000 1.0
C      1  0.4922480000000  0.5436170000000  0.5909770000000 1.0
C      1  0.4363910000000  0.4925530000000  0.5038610000000 1.0
C      1  0.5746890000000  0.5148990000000  0.5616420000000 1.0
C      1  0.4493130000000  0.4706110000000  0.5777150000000 1.0
C      1  0.5369620000000  0.4341020000000  0.4269720000000 1.0
C      1  0.4244600000000  0.4677820000000  0.4390660000000 1.0
C      1  0.5680310000000  0.4371190000000  0.4841460000000 1.0
C      1  0.4698700000000  0.5136290000000  0.5621330000000 1.0
C      1  0.4190630000000  0.5556740000000  0.4905270000000 1.0
C      1  0.5219810000000  0.5166480000000  0.5456610000000 1.0
C      1  0.5925220000000  0.4958750000000  0.5472700000000 1.0
C      1  0.4297840000000  0.5712960000000  0.5144630000000 1.0
C      1  0.4988850000000  0.5962440000000  0.4792790000000 1.0
C      1  0.4790530000000  0.5443170000000  0.4003970000000 1.0
C      1  0.5725660000000  0.4298630000000  0.5126840000000 1.0
C      1  0.5253410000000  0.5970440000000  0.4653140000000 1.0
C      1  0.6001320000000  0.5325430000000  0.5124940000000 1.0
C      1  0.4688560000000  0.4719600000000  0.4095360000000 1.0
C      1  0.4560560000000  0.4078370000000  0.5001720000000 1.0
C      1  0.5459520000000  0.4836190000000  0.5753290000000 1.0
C      1  0.4725110000000  0.5003110000000  0.4184410000000 1.0
C      1  0.4362070000000  0.4879780000000  0.4579870000000 1.0
C      1  0.4338360000000  0.5140910000000  0.5230040000000 1.0
C      1  0.5558940000000  0.4359080000000  0.5734900000000 1.0
C      1  0.5257440000000  0.5047330000000  0.4631300000000 1.0
C      1  0.5735120000000  0.5499840000000  0.4750510000000 1.0
C      1  0.4910780000000  0.5172700000000  0.4008320000000 1.0
C      1  0.4467050000000  0.5169860000000  0.4218120000000 1.0
C      1  0.5152270000000  0.4148540000000  0.5672380000000 1.0
C      1  0.5376870000000  0.5068630000000  0.4205230000000 1.0
C      1  0.4809320000000  0.4113260000000  0.5358290000000 1.0
C      1  0.4163100000000  0.5144750000000  0.5723080000000 1.0
C      1  0.5209930000000  0.4155500000000  0.4427890000000 1.0
C      1  0.4665710000000  0.5392040000000  0.5768860000000 1.0
C      1  0.6014540000000  0.5042250000000  0.5209240000000 1.0
C      1  0.5045620000000  0.4724680000000  0.4850320000000 1.0
C      1  0.5370050000000  0.4766350000000  0.4528920000000 1.0
C      1  0.4510520000000  0.6085880000000  0.5062560000000 1.0
C      1  0.5152740000000  0.5004980000000  0.4909890000000 1.0
C      1  0.4311020000000  0.5571670000000  0.5440270000000 1.0
C      1  0.5370590000000  0.5425540000000  0.5477680000000 1.0
C      1  0.5096030000000  0.5216750000000  0.6006870000000 1.0
C      1  0.4516660000000  0.5956350000000  0.4806990000000 1.0
C      1  0.5351230000000  0.4039710000000  0.4657380000000 1.0
C      1  0.5691410000000  0.5766700000000  0.4891550000000 1.0
C      1  0.5421910000000  0.5877530000000  0.4885360000000 1.0
C      1  0.5225770000000  0.5922640000000  0.4378950000000 1.0
C      1  0.4672900000000  0.4461750000000  0.5724780000000 1.0
C      1  0.4098350000000  0.5359340000000  0.5533530000000 1.0
C      1  0.5572640000000  0.4796920000000  0.5062290000000 1.0
C      1  0.4367470000000  0.5166310000000  0.4494650000000 1.0
C      1  0.4930710000000  0.5663630000000  0.4837150000000 1.0
C      1  0.4984170000000  0.4805300000000  0.5555170000000 1.0
C      1  0.5789460000000  0.5486420000000  0.5242900000000 1.0
C      1  0.4012830000000  0.5325370000000  0.4986180000000 1.0
C      1  0.4496790000000  0.4073750000000  0.4727050000000 1.0
C      1  0.4610970000000  0.5318480000000  0.4669650000000 1.0
C      1  0.4541380000000  0.4718500000000  0.5396900000000 1.0
C      1  0.5380290000000  0.5273970000000  0.5940380000000 1.0
C      1  0.4757360000000  0.4747130000000  0.5181300000000 1.0
C      1  0.4873440000000  0.5257060000000  0.4559320000000 1.0
C      1  0.4504710000000  0.5384430000000  0.5156190000000 1.0
C      1  0.4670280000000  0.4522110000000  0.4742530000000 1.0
C      1  0.4146470000000  0.4856300000000  0.5684410000000 1.0
C      1  0.5029860000000  0.5542970000000  0.5099830000000 1.0
C      1  0.4439530000000  0.4568050000000  0.4186060000000 1.0
C      1  0.4465120000000  0.4341040000000  0.4605840000000 1.0
C      1  0.5330850000000  0.5339630000000  0.4672350000000 1.0
C      1  0.5083600000000  0.4613090000000  0.5971320000000 1.0
C      1  0.4922840000000  0.4540950000000  0.4143230000000 1.0
C      1  0.4613310000000  0.5659110000000  0.4844320000000 1.0
C      1  0.5033520000000  0.6082880000000  0.5065850000000 1.0
C      1  0.5221510000000  0.4570470000000  0.4163240000000 1.0
C      1  0.5620760000000  0.4165370000000  0.4633710000000 1.0
C      1  0.5616360000000  0.5162020000000  0.4355120000000 1.0
C      1  0.4459110000000  0.5019480000000  0.5469210000000 1.0
C      1  0.5092670000000  0.5763070000000  0.5547740000000 1.0
C      1  0.5966870000000  0.5324230000000  0.4826220000000 1.0
C      1  0.5928320000000  0.4501560000000  0.4737250000000 1.0
C      1  0.5924360000000  0.5042190000000  0.4749890000000 1.0
C      1  0.4731100000000  0.5860150000000  0.4402380000000 1.0
C      1  0.4541910000000  0.5453030000000  0.4175980000000 1.0
C      1  0.4953890000000  0.5243520000000  0.5067780000000 1.0
C      1  0.4057860000000  0.4614830000000  0.4841400000000 1.0
C      1  0.4725850000000  0.4479120000000  0.5042620000000 1.0
C      1  0.4966230000000  0.4914260000000  0.5981560000000 1.0
C      1  0.5765420000000  0.4960390000000  0.4520520000000 1.0
C      1  0.5634300000000  0.4358360000000  0.4394900000000 1.0
C      1  0.5893010000000  0.4878650000000  0.4998220000000 1.0
C      1  0.5228400000000  0.5566700000000  0.5731670000000 1.0
C      1  0.4972990000000  0.4300510000000  0.4518340000000 1.0
C      1  0.5289690000000  0.4326550000000  0.5846210000000 1.0
C      1  0.5112910000000  0.4771550000000  0.5283180000000 1.0
C      1  0.5180770000000  0.5252280000000  0.4095030000000 1.0
C      1  0.5043050000000  0.4662610000000  0.4553260000000 1.0
C      1  0.4649490000000  0.4246680000000  0.5545210000000 1.0
C      1  0.4041400000000  0.5182270000000  0.5287370000000 1.0
C      1  0.4340770000000  0.4541770000000  0.5258680000000 1.0
C      1  0.5059910000000  0.5468950000000  0.4637640000000 1.0
C      1  0.4603620000000  0.5569930000000  0.5545400000000 1.0
C      1  0.4010840000000  0.4872080000000  0.5406720000000 1.0
C      1  0.4688240000000  0.4934310000000  0.5854980000000 1.0
C      1  0.5474110000000  0.4607550000000  0.4833720000000 1.0
C      1  0.5873460000000  0.4664140000000  0.5484860000000 1.0
C      1  0.4601520000000  0.5918180000000  0.5272980000000 1.0
C      1  0.4681360000000  0.5228580000000  0.4958810000000 1.0
C      1  0.4086160000000  0.5251790000000  0.4524560000000 1.0
C      1  0.5567700000000  0.5425720000000  0.4491060000000 1.0
C      1  0.5756870000000  0.4651720000000  0.4497110000000 1.0
C      1  0.5020190000000  0.5599450000000  0.4083820000000 1.0
C      1  0.4002510000000  0.5130870000000  0.4768150000000 1.0
C      1  0.4938820000000  0.5220680000000  0.5388210000000 1.0
C      1  0.4856140000000  0.4962970000000  0.4467870000000 1.0
C      1  0.5002300000000  0.4356610000000  0.5124380000000 1.0
C      1  0.4073740000000  0.4648830000000  0.5220400000000 1.0
C      1  0.4174630000000  0.4470110000000  0.4606820000000 1.0
C      1  0.5281400000000  0.4026610000000  0.5199750000000 1.0
C      1  0.5455670000000  0.4590060000000  0.5313310000000 1.0
C      1  0.6040890000000  0.4627560000000  0.4984770000000 1.0
C      1  0.4530680000000  0.4315570000000  0.4311060000000 1.0
C      1  0.5318210000000  0.5864800000000  0.5393340000000 1.0
C      1  0.5077150000000  0.4034440000000  0.5422250000000 1.0
C      1  0.4740410000000  0.6040890000000  0.4634810000000 1.0
C      1  0.5199570000000  0.4968850000000  0.5673570000000 1.0
C      1  0.4867930000000  0.4130570000000  0.4781020000000 1.0
C      1  0.5466800000000  0.5337470000000  0.4978650000000 1.0
C      1  0.5671390000000  0.5405970000000  0.5499520000000 1.0
C      1  0.5536010000000  0.4155090000000  0.5291560000000 1.0
C      1  0.5170400000000  0.4022020000000  0.4904250000000 1.0
C      1  0.5329030000000  0.5552230000000  0.5168040000000 1.0
C      1  0.4880540000000  0.5608360000000  0.5386850000000 1.0
C      1  0.4176680000000  0.4887310000000  0.4818370000000 1.0
C      1  0.4835250000000  0.6081050000000  0.5274460000000 1.0
C      1  0.4514100000000  0.5653900000000  0.4404540000000 1.0
C      1  0.5936610000000  0.4484290000000  0.5233420000000 1.0
C      1  0.4956660000000  0.4545650000000  0.5704730000000 1.0
C      1  0.4421270000000  0.4274430000000  0.5166150000000 1.0
C      1  0.5588650000000  0.5078420000000  0.5855770000000 1.0
C      1  0.5603820000000  0.4144240000000  0.5562170000000 1.0
C      1  0.4638170000000  0.4930760000000  0.4958900000000 1.0
C      1  0.5302190000000  0.5989180000000  0.5133590000000 1.0
C      1  0.5783780000000  0.5754140000000  0.5155730000000 1.0
C      1  0.4991020000000  0.5819850000000  0.4264260000000 1.0
C      1  0.5594520000000  0.4617400000000  0.5586550000000 1.0
C      1  0.5398080000000  0.5039070000000  0.5075650000000 1.0
C      1  0.4641760000000  0.4814060000000  0.4676420000000 1.0
C      1  0.4298220000000  0.5622730000000  0.4621110000000 1.0
C      1  0.5164240000000  0.4462720000000  0.5373300000000 1.0
END
