TITL C-3577084-3642-128 4.98712757520002e-05 125000 -100.665286068554 0 0 18 (C1) n - 1
REM
REM in /home/bkarasulu/work/CARBON/AIRSS/Generating-Clusters/EDIP-Nigel-Params/with-SteepDescent/Higher-Symm/SD-CG/HFTN-CG
REM
REM
REM
REM
REM
REM ./C.cell (12c818d87b63d06a65506943cc24bca4)
REM
REM compiler GCC version 9.2.1 20190827 (Red Hat 9.2.1-1)
REM options -cpp -mtune=generic -march=x86-64 -g -O0 -fpre-include=/usr/include/finclude/math-vector-fortran.h
REM seed -80287028 2066059444 461146772 796217879 -1619050454 518548576 -629619049 -1149493145 648495631 1987265975 -894942428 -1822131106 -1751016518 1542516617 -1533883840 -409275397 967349204 927220671 -1484261015 1653888883 1130912154 1466815149 1865868404 1596468951 339861868 -1400955937 25403394 -142287262 1626753735 -2015190019 -1515859528 1487456684 -2004984954
REM
CELL 1.54180   50.00000   50.00000   50.00000   90.00000   90.00000   90.00000
LATT -1
SFAC C  
C      1  0.5036730000000  0.4767920000000  0.4690530000000 1.0
C      1  0.5067490000000  0.4550030000000  0.4872950000000 1.0
C      1  0.4951340000000  0.4850360000000  0.5305530000000 1.0
C      1  0.5093640000000  0.5104150000000  0.5340490000000 1.0
C      1  0.5121450000000  0.5443670000000  0.5170540000000 1.0
C      1  0.4992940000000  0.5509490000000  0.4931380000000 1.0
C      1  0.5039860000000  0.5430960000000  0.4673350000000 1.0
C      1  0.5185710000000  0.4985040000000  0.4800960000000 1.0
C      1  0.5258320000000  0.4615450000000  0.5089470000000 1.0
C      1  0.5135510000000  0.4636000000000  0.5347820000000 1.0
C      1  0.5372340000000  0.5084420000000  0.5243080000000 1.0
C      1  0.5401400000000  0.5359510000000  0.5132280000000 1.0
C      1  0.5463590000000  0.5349910000000  0.4853030000000 1.0
C      1  0.5254590000000  0.5246700000000  0.4690420000000 1.0
C      1  0.4843910000000  0.4816720000000  0.5024820000000 1.0
C      1  0.5371840000000  0.4887130000000  0.5008600000000 1.0
C      1  0.4569080000000  0.4764960000000  0.5007570000000 1.0
C      1  0.4318880000000  0.4732100000000  0.4964640000000 1.0
END
