TITL C-3578203-1966-541 -1.67862339930592e-06 125000 -1092.63243275264 0 0 177 (C1) n - 1
REM
REM in /home/bkarasulu/work/CARBON/AIRSS/Generating-Clusters/EDIP-Nigel-Params/with-SteepDescent/Higher-Symm/SD-CG/HFTN-CG
REM
REM
REM
REM
REM
REM ./C.cell (12c818d87b63d06a65506943cc24bca4)
REM
REM compiler GCC version 9.2.1 20190827 (Red Hat 9.2.1-1)
REM options -cpp -mtune=generic -march=x86-64 -g -O0 -fpre-include=/usr/include/finclude/math-vector-fortran.h
REM seed 2021516932 -369131859 -951925097 2048759022 304656082 -1057939024 -1637394186 677484631 1823293617 -1663289585 -1098288253 -176680909 -1888727394 -984790753 -1975840973 2114957807 212457216 589373811 -1722496769 1303587184 1355386573 965746527 -324124961 -601236176 -664758034 630988157 -1137477825 1818177179 -1851028880 -1022920350 -1643275406 -856747931 -1373821614
REM
CELL 1.54180   50.00000   50.00000   50.00000   90.00000   90.00000   90.00000
LATT -1
SFAC C  
C      1  0.5703290000000  0.5058550000000  0.5338310000000 1.0
C      1  0.4392240000000  0.5092900000000  0.5399380000000 1.0
C      1  0.4973960000000  0.5051360000000  0.4176080000000 1.0
C      1  0.4740640000000  0.4003310000000  0.5107410000000 1.0
C      1  0.5043030000000  0.4000260000000  0.4709140000000 1.0
C      1  0.5248290000000  0.4025880000000  0.5168940000000 1.0
C      1  0.5205710000000  0.5966890000000  0.5301880000000 1.0
C      1  0.4622140000000  0.5960580000000  0.5048290000000 1.0
C      1  0.5145150000000  0.5958840000000  0.4671480000000 1.0
C      1  0.5609460000000  0.4673390000000  0.4337140000000 1.0
C      1  0.5384120000000  0.4518220000000  0.5915810000000 1.0
C      1  0.4061060000000  0.4656000000000  0.4848350000000 1.0
C      1  0.4063640000000  0.4950550000000  0.5109940000000 1.0
C      1  0.5387380000000  0.4902620000000  0.4113360000000 1.0
C      1  0.5621430000000  0.4906270000000  0.5748820000000 1.0
C      1  0.4555180000000  0.5498030000000  0.5162410000000 1.0
C      1  0.5067010000000  0.5503100000000  0.4528370000000 1.0
C      1  0.5381110000000  0.5509550000000  0.5299440000000 1.0
C      1  0.5533270000000  0.5129480000000  0.4304470000000 1.0
C      1  0.5382940000000  0.5091160000000  0.5800310000000 1.0
C      1  0.4064260000000  0.5152750000000  0.4878980000000 1.0
C      1  0.5926030000000  0.5453560000000  0.4584890000000 1.0
C      1  0.4906520000000  0.5433530000000  0.6015750000000 1.0
C      1  0.4212920000000  0.5447700000000  0.4401900000000 1.0
C      1  0.4593630000000  0.4782530000000  0.4063370000000 1.0
C      1  0.6019960000000  0.4799180000000  0.5157140000000 1.0
C      1  0.4370240000000  0.4789430000000  0.5791030000000 1.0
C      1  0.6135250000000  0.4810510000000  0.4732110000000 1.0
C      1  0.4679040000000  0.4785950000000  0.6106300000000 1.0
C      1  0.4152270000000  0.4741450000000  0.4134680000000 1.0
C      1  0.5200970000000  0.4826440000000  0.5432110000000 1.0
C      1  0.4558220000000  0.4823670000000  0.4928380000000 1.0
C      1  0.5250690000000  0.4815520000000  0.4626750000000 1.0
C      1  0.5190250000000  0.4431760000000  0.4023120000000 1.0
C      1  0.5649920000000  0.4421820000000  0.5884680000000 1.0
C      1  0.4085130000000  0.4474920000000  0.5335560000000 1.0
C      1  0.5558410000000  0.4801640000000  0.4609410000000 1.0
C      1  0.5087890000000  0.4860280000000  0.5710490000000 1.0
C      1  0.4368600000000  0.4810290000000  0.4680530000000 1.0
C      1  0.4318140000000  0.4116600000000  0.4895520000000 1.0
C      1  0.5412320000000  0.4151960000000  0.4440240000000 1.0
C      1  0.5238550000000  0.4100390000000  0.5650380000000 1.0
C      1  0.5726760000000  0.5581240000000  0.4409490000000 1.0
C      1  0.5161390000000  0.5567420000000  0.5921880000000 1.0
C      1  0.4155580000000  0.5590880000000  0.4654050000000 1.0
C      1  0.4655410000000  0.4357870000000  0.5809680000000 1.0
C      1  0.4443470000000  0.4376310000000  0.4315130000000 1.0
C      1  0.5879810000000  0.4402850000000  0.4921750000000 1.0
C      1  0.5502220000000  0.4066740000000  0.4709170000000 1.0
C      1  0.4973590000000  0.4030320000000  0.5550650000000 1.0
C      1  0.4526660000000  0.4038010000000  0.4698390000000 1.0
C      1  0.5894140000000  0.5518510000000  0.5462460000000 1.0
C      1  0.4187340000000  0.5544430000000  0.5647770000000 1.0
C      1  0.4961020000000  0.5477690000000  0.4001260000000 1.0
C      1  0.4437910000000  0.4799940000000  0.5487600000000 1.0
C      1  0.4852020000000  0.4770630000000  0.4220240000000 1.0
C      1  0.5740720000000  0.4760180000000  0.5266920000000 1.0
C      1  0.4733820000000  0.4781060000000  0.5391830000000 1.0
C      1  0.4781080000000  0.4767060000000  0.4519870000000 1.0
C      1  0.5544640000000  0.4718520000000  0.5049360000000 1.0
C      1  0.5881440000000  0.4775720000000  0.4264050000000 1.0
C      1  0.5253840000000  0.4727620000000  0.6098020000000 1.0
C      1  0.3937060000000  0.4778570000000  0.4604970000000 1.0
C      1  0.4980220000000  0.3991160000000  0.5271230000000 1.0
C      1  0.4777330000000  0.3983640000000  0.4826040000000 1.0
C      1  0.5278010000000  0.3986350000000  0.4877560000000 1.0
C      1  0.4398220000000  0.4490010000000  0.4602160000000 1.0
C      1  0.5646060000000  0.4581580000000  0.4811150000000 1.0
C      1  0.4932430000000  0.4459140000000  0.5734590000000 1.0
C      1  0.5409760000000  0.4121610000000  0.5403750000000 1.0
C      1  0.4472370000000  0.4114670000000  0.5156250000000 1.0
C      1  0.5117150000000  0.4103740000000  0.4447260000000 1.0
C      1  0.4389560000000  0.4565800000000  0.4091690000000 1.0
C      1  0.6113440000000  0.4584460000000  0.4952490000000 1.0
C      1  0.4498610000000  0.4564880000000  0.5961320000000 1.0
C      1  0.4172540000000  0.4361420000000  0.4767760000000 1.0
C      1  0.5536670000000  0.4387390000000  0.4335570000000 1.0
C      1  0.5179820000000  0.4321690000000  0.5844870000000 1.0
C      1  0.4162520000000  0.5342800000000  0.5848090000000 1.0
C      1  0.4759340000000  0.5264590000000  0.3953950000000 1.0
C      1  0.6042800000000  0.5344510000000  0.5299290000000 1.0
C      1  0.5571840000000  0.5764850000000  0.4563140000000 1.0
C      1  0.5099470000000  0.5772820000000  0.5731530000000 1.0
C      1  0.4333370000000  0.5804650000000  0.4727590000000 1.0
C      1  0.4862700000000  0.6045290000000  0.4604860000000 1.0
C      1  0.5411110000000  0.6038770000000  0.5093520000000 1.0
C      1  0.4709790000000  0.6044770000000  0.5322380000000 1.0
C      1  0.3989210000000  0.4674720000000  0.4351000000000 1.0
C      1  0.6064250000000  0.4734460000000  0.4471130000000 1.0
C      1  0.4960100000000  0.4693820000000  0.6037410000000 1.0
C      1  0.4351890000000  0.4129450000000  0.5419850000000 1.0
C      1  0.4929210000000  0.4134270000000  0.4224920000000 1.0
C      1  0.5678150000000  0.4236470000000  0.5406760000000 1.0
C      1  0.4899960000000  0.5092460000000  0.5733550000000 1.0
C      1  0.4412920000000  0.5061140000000  0.4465180000000 1.0
C      1  0.5678000000000  0.5094730000000  0.4666050000000 1.0
C      1  0.5363990000000  0.4407070000000  0.4795910000000 1.0
C      1  0.4991260000000  0.4394150000000  0.5431700000000 1.0
C      1  0.4639060000000  0.4393750000000  0.4773730000000 1.0
C      1  0.4090760000000  0.4224700000000  0.5430400000000 1.0
C      1  0.5041230000000  0.4212060000000  0.3982070000000 1.0
C      1  0.5787900000000  0.4334570000000  0.5654950000000 1.0
C      1  0.4001980000000  0.5055560000000  0.4618810000000 1.0
C      1  0.5839920000000  0.5072490000000  0.4261790000000 1.0
C      1  0.5242690000000  0.5033930000000  0.6074230000000 1.0
C      1  0.5576320000000  0.5799850000000  0.5027740000000 1.0
C      1  0.4679170000000  0.5822920000000  0.5517430000000 1.0
C      1  0.4703450000000  0.5824740000000  0.4483930000000 1.0
C      1  0.4255740000000  0.4678040000000  0.5237050000000 1.0
C      1  0.5186350000000  0.4644540000000  0.4212370000000 1.0
C      1  0.5593350000000  0.4650790000000  0.5549130000000 1.0
C      1  0.5003210000000  0.5230690000000  0.5321810000000 1.0
C      1  0.4737890000000  0.5228020000000  0.4786460000000 1.0
C      1  0.5241740000000  0.5194260000000  0.4862870000000 1.0
C      1  0.4406390000000  0.5279570000000  0.5982820000000 1.0
C      1  0.4478690000000  0.5271620000000  0.4025630000000 1.0
C      1  0.6071820000000  0.5284090000000  0.5027740000000 1.0
C      1  0.5278430000000  0.6129190000000  0.4862660000000 1.0
C      1  0.4974900000000  0.6141360000000  0.5318570000000 1.0
C      1  0.4724680000000  0.6132030000000  0.4836620000000 1.0
C      1  0.4932820000000  0.5660310000000  0.5510320000000 1.0
C      1  0.4593080000000  0.5655370000000  0.4698720000000 1.0
C      1  0.5454250000000  0.5638460000000  0.4810220000000 1.0
C      1  0.5842840000000  0.5683820000000  0.5115550000000 1.0
C      1  0.4485370000000  0.5595420000000  0.5646980000000 1.0
C      1  0.4693530000000  0.5661150000000  0.4217730000000 1.0
C      1  0.5173530000000  0.4527730000000  0.4557350000000 1.0
C      1  0.5265900000000  0.4536790000000  0.5370440000000 1.0
C      1  0.4564160000000  0.4535750000000  0.5053960000000 1.0
C      1  0.5945940000000  0.5500430000000  0.4886390000000 1.0
C      1  0.4604120000000  0.5499630000000  0.5928470000000 1.0
C      1  0.4416560000000  0.5514670000000  0.4184960000000 1.0
C      1  0.4979090000000  0.4937060000000  0.5256610000000 1.0
C      1  0.4808180000000  0.4936030000000  0.4785170000000 1.0
C      1  0.5086570000000  0.4920860000000  0.4933650000000 1.0
C      1  0.4258750000000  0.5586330000000  0.5131690000000 1.0
C      1  0.5230680000000  0.5624760000000  0.4318990000000 1.0
C      1  0.5479990000000  0.5643730000000  0.5541810000000 1.0
C      1  0.5404260000000  0.5035880000000  0.5363540000000 1.0
C      1  0.4495010000000  0.5040030000000  0.5118540000000 1.0
C      1  0.5129600000000  0.5030160000000  0.4447970000000 1.0
C      1  0.4063940000000  0.5203100000000  0.4380930000000 1.0
C      1  0.5958910000000  0.5161950000000  0.4526510000000 1.0
C      1  0.4940820000000  0.5134430000000  0.6031080000000 1.0
C      1  0.5468560000000  0.5415200000000  0.5780960000000 1.0
C      1  0.4138900000000  0.5435660000000  0.4897450000000 1.0
C      1  0.5450820000000  0.5426800000000  0.4198780000000 1.0
C      1  0.4824410000000  0.5412940000000  0.4363110000000 1.0
C      1  0.5631390000000  0.5357730000000  0.5160930000000 1.0
C      1  0.4567180000000  0.5369690000000  0.5452350000000 1.0
C      1  0.4512680000000  0.4184220000000  0.5640770000000 1.0
C      1  0.4658720000000  0.4196170000000  0.4271070000000 1.0
C      1  0.5815560000000  0.4268550000000  0.5163750000000 1.0
C      1  0.5097010000000  0.5688850000000  0.5214050000000 1.0
C      1  0.4752370000000  0.5688000000000  0.4990470000000 1.0
C      1  0.5123100000000  0.5682000000000  0.4805970000000 1.0
C      1  0.4777510000000  0.4529130000000  0.5265410000000 1.0
C      1  0.4877740000000  0.4519480000000  0.4633500000000 1.0
C      1  0.5295540000000  0.4560950000000  0.5079620000000 1.0
C      1  0.4851720000000  0.5334670000000  0.5540400000000 1.0
C      1  0.4606920000000  0.5318120000000  0.4550540000000 1.0
C      1  0.5529450000000  0.5311330000000  0.4874210000000 1.0
C      1  0.4320210000000  0.5878260000000  0.5019310000000 1.0
C      1  0.5330780000000  0.5878770000000  0.4436550000000 1.0
C      1  0.5320360000000  0.5890120000000  0.5578110000000 1.0
C      1  0.4523630000000  0.5006030000000  0.5940850000000 1.0
C      1  0.4395520000000  0.5004130000000  0.4157340000000 1.0
C      1  0.6013160000000  0.5012530000000  0.4939240000000 1.0
C      1  0.5190840000000  0.5069210000000  0.3962000000000 1.0
C      1  0.5812600000000  0.5090870000000  0.5619730000000 1.0
C      1  0.4098760000000  0.5149730000000  0.5370730000000 1.0
C      1  0.5785750000000  0.5373200000000  0.5698560000000 1.0
C      1  0.4095530000000  0.5457960000000  0.5377350000000 1.0
C      1  0.5242130000000  0.5360720000000  0.3967190000000 1.0
C      1  0.5207910000000  0.5261510000000  0.4576200000000 1.0
C      1  0.5271910000000  0.5275320000000  0.5411040000000 1.0
C      1  0.4543470000000  0.5275790000000  0.4987370000000 1.0
END
