TITL C-3578207-9274-664 -2.17540484277579e-06 125000 -1079.54603369357 0 0 171 (C1) n - 1
REM
REM in /home/bkarasulu/work/CARBON/AIRSS/Generating-Clusters/EDIP-Nigel-Params/with-SteepDescent/Higher-Symm/SD-CG/HFTN-CG
REM
REM
REM
REM
REM
REM ./C.cell (12c818d87b63d06a65506943cc24bca4)
REM
REM compiler GCC version 9.2.1 20190827 (Red Hat 9.2.1-1)
REM options -cpp -mtune=generic -march=x86-64 -g -O0 -fpre-include=/usr/include/finclude/math-vector-fortran.h
REM seed 1469887454 -1843102985 900289580 1120992429 -813244092 1822452733 491497341 989347361 1501793323 1290357214 -489833491 -1879291011 -1924778436 -677416179 1004670129 -1208552765 -1474263086 2081975180 -176415536 -496357421 -689853763 -151841478 -873491988 -582891271 -1017006020 -1807905393 -923712846 636896398 -673928172 1703514482 -2059635613 -1086082755 669338296
REM
CELL 1.54180   50.00000   50.00000   50.00000   90.00000   90.00000   90.00000
LATT -1
SFAC C  
C      1  0.4720510000000  0.5078410000000  0.4516320000000 1.0
C      1  0.4653030000000  0.5395010000000  0.5269670000000 1.0
C      1  0.4719380000000  0.4715300000000  0.5116940000000 1.0
C      1  0.3676010000000  0.5046190000000  0.4773710000000 1.0
C      1  0.3702140000000  0.5193570000000  0.5134490000000 1.0
C      1  0.3726250000000  0.4804990000000  0.5077210000000 1.0
C      1  0.5334560000000  0.5674850000000  0.5046200000000 1.0
C      1  0.5388140000000  0.4624350000000  0.5601240000000 1.0
C      1  0.5364040000000  0.4675870000000  0.4263210000000 1.0
C      1  0.4144690000000  0.4301480000000  0.5067070000000 1.0
C      1  0.4137650000000  0.5320360000000  0.4338980000000 1.0
C      1  0.4172620000000  0.5415550000000  0.5614730000000 1.0
C      1  0.5219010000000  0.4884200000000  0.5681760000000 1.0
C      1  0.5263640000000  0.4460200000000  0.4449280000000 1.0
C      1  0.5190650000000  0.5624680000000  0.4785960000000 1.0
C      1  0.4343600000000  0.4668360000000  0.5778140000000 1.0
C      1  0.4465060000000  0.4377170000000  0.4436850000000 1.0
C      1  0.4454610000000  0.5871090000000  0.4758080000000 1.0
C      1  0.4961390000000  0.4712140000000  0.5270720000000 1.0
C      1  0.4992640000000  0.4954440000000  0.4508150000000 1.0
C      1  0.4938500000000  0.5314000000000  0.5184350000000 1.0
C      1  0.5733010000000  0.4740950000000  0.4716040000000 1.0
C      1  0.5694440000000  0.5347500000000  0.4951330000000 1.0
C      1  0.5670100000000  0.4814480000000  0.5334670000000 1.0
C      1  0.3847300000000  0.4639800000000  0.4862200000000 1.0
C      1  0.3817800000000  0.5309690000000  0.4728290000000 1.0
C      1  0.3901130000000  0.5115700000000  0.5338860000000 1.0
C      1  0.5588790000000  0.5259150000000  0.4677480000000 1.0
C      1  0.5600850000000  0.5100180000000  0.5389930000000 1.0
C      1  0.5519020000000  0.4578210000000  0.4873250000000 1.0
C      1  0.4600660000000  0.5561360000000  0.5040720000000 1.0
C      1  0.4483580000000  0.4700680000000  0.5305250000000 1.0
C      1  0.4574230000000  0.4827180000000  0.4632980000000 1.0
C      1  0.4315420000000  0.4885960000000  0.4788170000000 1.0
C      1  0.4361060000000  0.5146140000000  0.4941670000000 1.0
C      1  0.4405430000000  0.5183510000000  0.5241370000000 1.0
C      1  0.3943140000000  0.4835590000000  0.5280090000000 1.0
C      1  0.3835680000000  0.4828510000000  0.4646790000000 1.0
C      1  0.3822100000000  0.5447570000000  0.5001820000000 1.0
C      1  0.4506630000000  0.4665790000000  0.4358120000000 1.0
C      1  0.4517640000000  0.5842300000000  0.5064830000000 1.0
C      1  0.4516860000000  0.4518440000000  0.5595420000000 1.0
C      1  0.4979740000000  0.5309770000000  0.3933080000000 1.0
C      1  0.4993340000000  0.5768900000000  0.5802680000000 1.0
C      1  0.5028110000000  0.3953550000000  0.5239420000000 1.0
C      1  0.5417270000000  0.4007400000000  0.4997570000000 1.0
C      1  0.5377310000000  0.5497750000000  0.4083440000000 1.0
C      1  0.5363060000000  0.5537610000000  0.5902590000000 1.0
C      1  0.4732840000000  0.4925320000000  0.6083490000000 1.0
C      1  0.4699690000000  0.4205000000000  0.4470110000000 1.0
C      1  0.4696010000000  0.5918950000000  0.4578710000000 1.0
C      1  0.5886710000000  0.4299890000000  0.4508510000000 1.0
C      1  0.5854210000000  0.5666390000000  0.4655280000000 1.0
C      1  0.5862310000000  0.4980970000000  0.5793840000000 1.0
C      1  0.5350110000000  0.5151690000000  0.5572730000000 1.0
C      1  0.5231580000000  0.4545220000000  0.4748920000000 1.0
C      1  0.5292770000000  0.5341880000000  0.4632670000000 1.0
C      1  0.5529150000000  0.4477270000000  0.5822120000000 1.0
C      1  0.5358080000000  0.4616460000000  0.3989750000000 1.0
C      1  0.5478170000000  0.5920820000000  0.5057200000000 1.0
C      1  0.5152520000000  0.5361250000000  0.5390010000000 1.0
C      1  0.5108170000000  0.4463280000000  0.5227580000000 1.0
C      1  0.5207720000000  0.5127540000000  0.4423100000000 1.0
C      1  0.5830510000000  0.4242620000000  0.5055990000000 1.0
C      1  0.5776230000000  0.5323210000000  0.4288230000000 1.0
C      1  0.5741640000000  0.5430860000000  0.5648050000000 1.0
C      1  0.4613840000000  0.5265760000000  0.5756380000000 1.0
C      1  0.4518540000000  0.4061320000000  0.4917140000000 1.0
C      1  0.4573390000000  0.5502180000000  0.4349500000000 1.0
C      1  0.6100120000000  0.4828840000000  0.5270260000000 1.0
C      1  0.6125830000000  0.4900830000000  0.4779130000000 1.0
C      1  0.6100750000000  0.5300190000000  0.5087080000000 1.0
C      1  0.5393860000000  0.5494580000000  0.5271270000000 1.0
C      1  0.5390950000000  0.4471440000000  0.5329400000000 1.0
C      1  0.5445120000000  0.4953940000000  0.4350410000000 1.0
C      1  0.5429070000000  0.5880880000000  0.4623050000000 1.0
C      1  0.5443300000000  0.4871660000000  0.5995320000000 1.0
C      1  0.5432520000000  0.4207560000000  0.4387830000000 1.0
C      1  0.4778250000000  0.5993010000000  0.5158990000000 1.0
C      1  0.4780640000000  0.4388440000000  0.5728550000000 1.0
C      1  0.4733310000000  0.4674410000000  0.4134600000000 1.0
C      1  0.4773020000000  0.5782220000000  0.5617540000000 1.0
C      1  0.4791270000000  0.4074380000000  0.5344600000000 1.0
C      1  0.4744780000000  0.5153380000000  0.4001240000000 1.0
C      1  0.5192720000000  0.5914600000000  0.5643730000000 1.0
C      1  0.5217270000000  0.4025520000000  0.5450500000000 1.0
C      1  0.5169260000000  0.5092170000000  0.3893910000000 1.0
C      1  0.4251530000000  0.4311810000000  0.4600890000000 1.0
C      1  0.4299110000000  0.5618600000000  0.4679120000000 1.0
C      1  0.4274080000000  0.4930750000000  0.5661080000000 1.0
C      1  0.5426010000000  0.5230390000000  0.3953740000000 1.0
C      1  0.5430210000000  0.5760950000000  0.5711130000000 1.0
C      1  0.5463230000000  0.4037650000000  0.5288950000000 1.0
C      1  0.4981790000000  0.5376340000000  0.4868630000000 1.0
C      1  0.4953920000000  0.4855190000000  0.5528470000000 1.0
C      1  0.5040310000000  0.4780050000000  0.4741380000000 1.0
C      1  0.4990820000000  0.6064860000000  0.4969970000000 1.0
C      1  0.4997450000000  0.4524320000000  0.5879680000000 1.0
C      1  0.4896660000000  0.4438080000000  0.4086800000000 1.0
C      1  0.5860930000000  0.4578150000000  0.4485710000000 1.0
C      1  0.5760440000000  0.5674870000000  0.4942400000000 1.0
C      1  0.5805740000000  0.4710690000000  0.5683100000000 1.0
C      1  0.4730910000000  0.5044090000000  0.5566220000000 1.0
C      1  0.5087260000000  0.4350740000000  0.4950250000000 1.0
C      1  0.4729330000000  0.5343050000000  0.4674430000000 1.0
C      1  0.4260200000000  0.4165780000000  0.4837320000000 1.0
C      1  0.4289610000000  0.5565110000000  0.4388830000000 1.0
C      1  0.4315130000000  0.5206440000000  0.5779110000000 1.0
C      1  0.5555780000000  0.5511390000000  0.4317840000000 1.0
C      1  0.5515000000000  0.5300990000000  0.5795370000000 1.0
C      1  0.5602710000000  0.4201220000000  0.4863280000000 1.0
C      1  0.5184250000000  0.5980810000000  0.4524900000000 1.0
C      1  0.5195790000000  0.4919100000000  0.6117700000000 1.0
C      1  0.5176170000000  0.4052990000000  0.4336850000000 1.0
C      1  0.4955040000000  0.5979890000000  0.4698660000000 1.0
C      1  0.4965760000000  0.4776430000000  0.6027800000000 1.0
C      1  0.4947770000000  0.4265800000000  0.4320650000000 1.0
C      1  0.4717550000000  0.4027080000000  0.4702060000000 1.0
C      1  0.4717100000000  0.5760520000000  0.4326600000000 1.0
C      1  0.4720670000000  0.5205520000000  0.6033050000000 1.0
C      1  0.5257830000000  0.4393770000000  0.5892560000000 1.0
C      1  0.5125290000000  0.4490490000000  0.3937360000000 1.0
C      1  0.5263610000000  0.6109430000000  0.5046060000000 1.0
C      1  0.4979800000000  0.3902060000000  0.4754130000000 1.0
C      1  0.4965230000000  0.5766730000000  0.4172640000000 1.0
C      1  0.4964100000000  0.5347830000000  0.6106480000000 1.0
C      1  0.4769860000000  0.4708100000000  0.4826250000000 1.0
C      1  0.4477790000000  0.5404820000000  0.4824010000000 1.0
C      1  0.4477250000000  0.4964810000000  0.5438000000000 1.0
C      1  0.4245680000000  0.4839990000000  0.4311780000000 1.0
C      1  0.4260130000000  0.5752410000000  0.5252780000000 1.0
C      1  0.4293910000000  0.4336480000000  0.5578900000000 1.0
C      1  0.6014560000000  0.4448530000000  0.4998830000000 1.0
C      1  0.5944510000000  0.5380600000000  0.4576250000000 1.0
C      1  0.5926840000000  0.5195020000000  0.5581960000000 1.0
C      1  0.4848430000000  0.4889480000000  0.3976220000000 1.0
C      1  0.4877670000000  0.5967270000000  0.5424540000000 1.0
C      1  0.4882420000000  0.4147330000000  0.5607940000000 1.0
C      1  0.5580640000000  0.4968520000000  0.4610850000000 1.0
C      1  0.5519300000000  0.5259890000000  0.5159830000000 1.0
C      1  0.5491020000000  0.4674020000000  0.5151650000000 1.0
C      1  0.5139430000000  0.5968490000000  0.4250770000000 1.0
C      1  0.5146770000000  0.5171660000000  0.6226920000000 1.0
C      1  0.5129050000000  0.3852430000000  0.4524250000000 1.0
C      1  0.4334150000000  0.5652460000000  0.5534890000000 1.0
C      1  0.4323910000000  0.4246240000000  0.5301360000000 1.0
C      1  0.4308440000000  0.5111240000000  0.4209260000000 1.0
C      1  0.5636350000000  0.5078130000000  0.5959680000000 1.0
C      1  0.5663330000000  0.4142210000000  0.4574750000000 1.0
C      1  0.5632560000000  0.5744080000000  0.4476850000000 1.0
C      1  0.4089370000000  0.5519120000000  0.5138750000000 1.0
C      1  0.4199870000000  0.4728870000000  0.5175860000000 1.0
C      1  0.4108550000000  0.4939640000000  0.4576310000000 1.0
C      1  0.4592650000000  0.5201330000000  0.4251390000000 1.0
C      1  0.4610540000000  0.5539580000000  0.5552410000000 1.0
C      1  0.4540220000000  0.4077870000000  0.5207500000000 1.0
C      1  0.6077550000000  0.4765170000000  0.4528040000000 1.0
C      1  0.5978430000000  0.5563900000000  0.5115760000000 1.0
C      1  0.5992160000000  0.4644170000000  0.5466100000000 1.0
C      1  0.4136550000000  0.5301610000000  0.5340370000000 1.0
C      1  0.4132790000000  0.4577200000000  0.4932870000000 1.0
C      1  0.4081740000000  0.5237880000000  0.4608960000000 1.0
C      1  0.6079040000000  0.5196100000000  0.4806190000000 1.0
C      1  0.6036470000000  0.5110920000000  0.5307480000000 1.0
C      1  0.6066870000000  0.4724630000000  0.5005430000000 1.0
C      1  0.5087360000000  0.5514040000000  0.4107850000000 1.0
C      1  0.5078940000000  0.5511670000000  0.5898770000000 1.0
C      1  0.5124230000000  0.4048520000000  0.4972880000000 1.0
C      1  0.5679220000000  0.4230270000000  0.5310340000000 1.0
C      1  0.5622990000000  0.5097580000000  0.4144140000000 1.0
C      1  0.5588300000000  0.5633980000000  0.5485020000000 1.0
END
