TITL C-3578195-8548-692 1.65405866817814e-06 125000 -893.725227245641 0 0 146 (C1) n - 1
REM
REM in /home/bkarasulu/work/CARBON/AIRSS/Generating-Clusters/EDIP-Nigel-Params/with-SteepDescent/Higher-Symm/SD-CG/HFTN-CG
REM
REM
REM
REM
REM
REM ./C.cell (12c818d87b63d06a65506943cc24bca4)
REM
REM compiler GCC version 9.2.1 20190827 (Red Hat 9.2.1-1)
REM options -cpp -mtune=generic -march=x86-64 -g -O0 -fpre-include=/usr/include/finclude/math-vector-fortran.h
REM seed 1826396127 -1869990223 -1583683824 -395663802 -259345093 10259742 -2089160327 -1078405089 -1408094148 2101482897 1335546309 2053522705 -76779154 202674252 871372378 -1075769649 1325401142 2052192738 287357773 1301508527 -1792986765 1155282087 -1395689834 -2120724648 -136198347 -1027496304 -5851781 -1959525486 1314545748 1231649251 618476316 887308834 2136443018
REM
CELL 1.54180   50.00000   50.00000   50.00000   90.00000   90.00000   90.00000
LATT -1
SFAC C  
C      1  0.5115270000000  0.5227370000000  0.4809380000000 1.0
C      1  0.5526040000000  0.5378960000000  0.5018160000000 1.0
C      1  0.5285000000000  0.5534380000000  0.5424380000000 1.0
C      1  0.4784620000000  0.5514910000000  0.5325840000000 1.0
C      1  0.4698540000000  0.5110550000000  0.5063800000000 1.0
C      1  0.5012290000000  0.5480430000000  0.5526790000000 1.0
C      1  0.5313430000000  0.5495660000000  0.5157580000000 1.0
C      1  0.5392220000000  0.5277590000000  0.4775310000000 1.0
C      1  0.4824610000000  0.5240370000000  0.4801750000000 1.0
C      1  0.4584720000000  0.5327080000000  0.5247080000000 1.0
C      1  0.4751470000000  0.4836710000000  0.6059310000000 1.0
C      1  0.3937460000000  0.4723060000000  0.4795260000000 1.0
C      1  0.4904560000000  0.4840530000000  0.3938910000000 1.0
C      1  0.5901400000000  0.4831710000000  0.4379060000000 1.0
C      1  0.5656840000000  0.4859710000000  0.5685080000000 1.0
C      1  0.4568550000000  0.4921970000000  0.4087490000000 1.0
C      1  0.3821750000000  0.4596650000000  0.5026840000000 1.0
C      1  0.5035610000000  0.4795150000000  0.6011960000000 1.0
C      1  0.5834300000000  0.4865150000000  0.5440400000000 1.0
C      1  0.5713780000000  0.4785540000000  0.4117900000000 1.0
C      1  0.5918990000000  0.5459700000000  0.5419430000000 1.0
C      1  0.4681380000000  0.5387590000000  0.6022280000000 1.0
C      1  0.3929880000000  0.5546900000000  0.4924300000000 1.0
C      1  0.4704320000000  0.5540700000000  0.4063020000000 1.0
C      1  0.5642160000000  0.5433940000000  0.4100800000000 1.0
C      1  0.5877440000000  0.5463990000000  0.4257590000000 1.0
C      1  0.5004320000000  0.5521030000000  0.3973220000000 1.0
C      1  0.3980300000000  0.5435540000000  0.4670090000000 1.0
C      1  0.4452900000000  0.5530920000000  0.5945070000000 1.0
C      1  0.5880300000000  0.5523520000000  0.5695370000000 1.0
C      1  0.4448830000000  0.5181560000000  0.4123330000000 1.0
C      1  0.5501080000000  0.4998720000000  0.4023720000000 1.0
C      1  0.5931580000000  0.5100630000000  0.5155480000000 1.0
C      1  0.5263170000000  0.4993060000000  0.6023060000000 1.0
C      1  0.3989390000000  0.5154610000000  0.5524200000000 1.0
C      1  0.4186060000000  0.5173130000000  0.5747300000000 1.0
C      1  0.5453170000000  0.5070770000000  0.5785090000000 1.0
C      1  0.5996820000000  0.5161280000000  0.4851730000000 1.0
C      1  0.5112480000000  0.5054360000000  0.3986670000000 1.0
C      1  0.3972510000000  0.5013780000000  0.4802220000000 1.0
C      1  0.6097960000000  0.5267930000000  0.5326940000000 1.0
C      1  0.5133010000000  0.5220590000000  0.6129890000000 1.0
C      1  0.3956340000000  0.5395740000000  0.5387860000000 1.0
C      1  0.4524350000000  0.5368280000000  0.3925330000000 1.0
C      1  0.5638020000000  0.5226980000000  0.3908430000000 1.0
C      1  0.5951810000000  0.5455110000000  0.4782970000000 1.0
C      1  0.5064580000000  0.5287250000000  0.3812740000000 1.0
C      1  0.3828190000000  0.5196420000000  0.4637800000000 1.0
C      1  0.4189150000000  0.5398620000000  0.5931310000000 1.0
C      1  0.5586720000000  0.5332470000000  0.5858000000000 1.0
C      1  0.4839580000000  0.4916060000000  0.5504430000000 1.0
C      1  0.4307330000000  0.4812640000000  0.5267810000000 1.0
C      1  0.4705070000000  0.5081690000000  0.4558880000000 1.0
C      1  0.5361970000000  0.4880020000000  0.4500460000000 1.0
C      1  0.5456410000000  0.4940440000000  0.5095590000000 1.0
C      1  0.4988170000000  0.4997170000000  0.4467150000000 1.0
C      1  0.4431600000000  0.4929210000000  0.4994290000000 1.0
C      1  0.4526300000000  0.4882960000000  0.5513850000000 1.0
C      1  0.5243780000000  0.4925090000000  0.5319130000000 1.0
C      1  0.5575020000000  0.4877620000000  0.4726430000000 1.0
C      1  0.5433960000000  0.5082000000000  0.4291810000000 1.0
C      1  0.5635560000000  0.5155220000000  0.5174030000000 1.0
C      1  0.4984170000000  0.5200040000000  0.5654490000000 1.0
C      1  0.4067360000000  0.4948790000000  0.5350020000000 1.0
C      1  0.4489160000000  0.5281270000000  0.4407980000000 1.0
C      1  0.5264230000000  0.5115300000000  0.5561140000000 1.0
C      1  0.5819380000000  0.5031730000000  0.4612120000000 1.0
C      1  0.5003620000000  0.5168940000000  0.4239580000000 1.0
C      1  0.4245330000000  0.5095210000000  0.4825550000000 1.0
C      1  0.4444330000000  0.5146980000000  0.5626850000000 1.0
C      1  0.5658090000000  0.5861200000000  0.5331990000000 1.0
C      1  0.4893330000000  0.5768750000000  0.5672350000000 1.0
C      1  0.4369370000000  0.5531810000000  0.5137180000000 1.0
C      1  0.4805280000000  0.5577100000000  0.4601900000000 1.0
C      1  0.5500440000000  0.5463030000000  0.4566240000000 1.0
C      1  0.5746730000000  0.5587460000000  0.4966590000000 1.0
C      1  0.5051180000000  0.5626190000000  0.4467900000000 1.0
C      1  0.4435390000000  0.5536230000000  0.4844720000000 1.0
C      1  0.4638610000000  0.5715630000000  0.5501010000000 1.0
C      1  0.5443140000000  0.5764080000000  0.5532210000000 1.0
C      1  0.5219520000000  0.4039440000000  0.5293120000000 1.0
C      1  0.4724620000000  0.3928260000000  0.5356550000000 1.0
C      1  0.4602990000000  0.3933900000000  0.4925350000000 1.0
C      1  0.5022320000000  0.3902140000000  0.4675060000000 1.0
C      1  0.5463250000000  0.4030040000000  0.4844810000000 1.0
C      1  0.5291650000000  0.3896190000000  0.4670190000000 1.0
C      1  0.4828030000000  0.4049160000000  0.4807440000000 1.0
C      1  0.4534290000000  0.4033170000000  0.5178150000000 1.0
C      1  0.4993020000000  0.3893570000000  0.5361600000000 1.0
C      1  0.5407800000000  0.3952990000000  0.5107860000000 1.0
C      1  0.4518310000000  0.4616130000000  0.5663620000000 1.0
C      1  0.4464140000000  0.4690910000000  0.4802060000000 1.0
C      1  0.4990270000000  0.4687600000000  0.4390440000000 1.0
C      1  0.5701140000000  0.4579650000000  0.4740380000000 1.0
C      1  0.5288430000000  0.4645780000000  0.5450240000000 1.0
C      1  0.4597730000000  0.4799480000000  0.4557890000000 1.0
C      1  0.4246340000000  0.4498510000000  0.5251370000000 1.0
C      1  0.5024090000000  0.4632880000000  0.5597820000000 1.0
C      1  0.5579490000000  0.4657890000000  0.5096990000000 1.0
C      1  0.5356070000000  0.4593090000000  0.4371410000000 1.0
C      1  0.5165570000000  0.5833930000000  0.4629410000000 1.0
C      1  0.5594420000000  0.5832730000000  0.4879600000000 1.0
C      1  0.5256020000000  0.6000850000000  0.5432430000000 1.0
C      1  0.4641300000000  0.5970080000000  0.5335110000000 1.0
C      1  0.4526600000000  0.5820060000000  0.4842530000000 1.0
C      1  0.4980080000000  0.6000920000000  0.5512280000000 1.0
C      1  0.5480530000000  0.5968290000000  0.5121600000000 1.0
C      1  0.5440610000000  0.5755820000000  0.4641840000000 1.0
C      1  0.4798830000000  0.5842380000000  0.4756850000000 1.0
C      1  0.4457000000000  0.5876630000000  0.5129490000000 1.0
C      1  0.5269320000000  0.4380040000000  0.4569710000000 1.0
C      1  0.5356100000000  0.4456890000000  0.5059450000000 1.0
C      1  0.4919090000000  0.4408410000000  0.5449760000000 1.0
C      1  0.4501230000000  0.4341330000000  0.5192880000000 1.0
C      1  0.4799090000000  0.4329610000000  0.4758720000000 1.0
C      1  0.5165310000000  0.4326900000000  0.5265730000000 1.0
C      1  0.5454750000000  0.4332510000000  0.4798900000000 1.0
C      1  0.5005660000000  0.4483990000000  0.4624380000000 1.0
C      1  0.4622830000000  0.4474800000000  0.4938110000000 1.0
C      1  0.4631890000000  0.4414990000000  0.5457160000000 1.0
C      1  0.5587300000000  0.4525050000000  0.4181680000000 1.0
C      1  0.5796670000000  0.4612190000000  0.5302790000000 1.0
C      1  0.5075750000000  0.4540480000000  0.5881880000000 1.0
C      1  0.4019860000000  0.4399300000000  0.5086290000000 1.0
C      1  0.4508220000000  0.4718940000000  0.4287720000000 1.0
C      1  0.5518270000000  0.4603250000000  0.5642680000000 1.0
C      1  0.5887820000000  0.4556890000000  0.4502560000000 1.0
C      1  0.4897950000000  0.4606220000000  0.4115640000000 1.0
C      1  0.4190500000000  0.4574280000000  0.4720450000000 1.0
C      1  0.4643360000000  0.4598890000000  0.5939060000000 1.0
C      1  0.4922390000000  0.5263810000000  0.5946770000000 1.0
C      1  0.4069510000000  0.5515540000000  0.5165210000000 1.0
C      1  0.4627850000000  0.5537810000000  0.4363570000000 1.0
C      1  0.5416170000000  0.5375840000000  0.4289730000000 1.0
C      1  0.5849410000000  0.5664020000000  0.5232420000000 1.0
C      1  0.5126640000000  0.5447260000000  0.4244650000000 1.0
C      1  0.4276580000000  0.5350380000000  0.4669640000000 1.0
C      1  0.4422450000000  0.5532740000000  0.5645560000000 1.0
C      1  0.5614440000000  0.5622170000000  0.5779820000000 1.0
C      1  0.5797090000000  0.5392050000000  0.4530230000000 1.0
C      1  0.5788190000000  0.4372300000000  0.4310990000000 1.0
C      1  0.5707640000000  0.4435960000000  0.5509000000000 1.0
C      1  0.4640710000000  0.4494310000000  0.4170790000000 1.0
C      1  0.4842040000000  0.4389180000000  0.5956130000000 1.0
C      1  0.4137740000000  0.4315230000000  0.4836640000000 1.0
C      1  0.4921820000000  0.4953860000000  0.5217400000000 1.0
END
