TITL C-3577082-504-719 -1.66070658436202e-06 125000 -317.603664292558 0 0 53 (C1) n - 1
REM
REM in /home/bkarasulu/work/CARBON/AIRSS/Generating-Clusters/EDIP-Nigel-Params/with-SteepDescent/Higher-Symm/SD-CG/HFTN-CG
REM
REM
REM
REM
REM
REM ./C.cell (12c818d87b63d06a65506943cc24bca4)
REM
REM compiler GCC version 9.2.1 20190827 (Red Hat 9.2.1-1)
REM options -cpp -mtune=generic -march=x86-64 -g -O0 -fpre-include=/usr/include/finclude/math-vector-fortran.h
REM seed 445469148 829020144 106476826 -2132223515 424082350 -1172859230 -779639400 -1582739646 -1220432419 -1812399491 -1271073164 824808427 -1194064179 -783577598 1697383378 28003343 -1989006770 1980262830 1546661603 1454667554 -1069663836 -865403405 -733063995 793451176 -1130993086 1369956687 582177003 157472545 -793837344 -176544896 -2146556526 -739822296 -1848348785
REM
CELL 1.54180   50.00000   50.00000   50.00000   90.00000   90.00000   90.00000
LATT -1
SFAC C  
C      1  0.4572630000000  0.4935500000000  0.5484680000000 1.0
C      1  0.5573870000000  0.4964380000000  0.4695310000000 1.0
C      1  0.5419400000000  0.5415840000000  0.4716810000000 1.0
C      1  0.5365300000000  0.5059630000000  0.5490920000000 1.0
C      1  0.4492460000000  0.5048430000000  0.4670050000000 1.0
C      1  0.4403780000000  0.5231090000000  0.4890040000000 1.0
C      1  0.5111540000000  0.4814740000000  0.4550930000000 1.0
C      1  0.4840740000000  0.5610710000000  0.5204820000000 1.0
C      1  0.5433050000000  0.4572390000000  0.5209760000000 1.0
C      1  0.5124050000000  0.4974180000000  0.5313000000000 1.0
C      1  0.5042210000000  0.4962040000000  0.4820910000000 1.0
C      1  0.4626880000000  0.5430240000000  0.4856810000000 1.0
C      1  0.4742110000000  0.5142370000000  0.4504870000000 1.0
C      1  0.5364240000000  0.4983490000000  0.4492370000000 1.0
C      1  0.5276110000000  0.5069010000000  0.5763150000000 1.0
C      1  0.5254000000000  0.4990930000000  0.5035280000000 1.0
C      1  0.4807170000000  0.4340810000000  0.4972640000000 1.0
C      1  0.4852480000000  0.4423120000000  0.4691950000000 1.0
C      1  0.4812520000000  0.4845630000000  0.4980070000000 1.0
C      1  0.4428660000000  0.5087760000000  0.5156560000000 1.0
C      1  0.4841580000000  0.4527330000000  0.5506960000000 1.0
C      1  0.5323760000000  0.4617180000000  0.5474240000000 1.0
C      1  0.5479230000000  0.4804300000000  0.5031100000000 1.0
C      1  0.4886710000000  0.5641500000000  0.4565930000000 1.0
C      1  0.5317470000000  0.4409410000000  0.4771030000000 1.0
C      1  0.5248580000000  0.5263460000000  0.4529080000000 1.0
C      1  0.4583290000000  0.5710720000000  0.4930000000000 1.0
C      1  0.4813380000000  0.5355450000000  0.5069910000000 1.0
C      1  0.4725090000000  0.5081260000000  0.5154830000000 1.0
C      1  0.5633090000000  0.5212010000000  0.5112590000000 1.0
C      1  0.5034450000000  0.4284370000000  0.5138030000000 1.0
C      1  0.4698200000000  0.4697290000000  0.4318140000000 1.0
C      1  0.5029750000000  0.4920100000000  0.5741150000000 1.0
C      1  0.4553220000000  0.4358210000000  0.5090660000000 1.0
C      1  0.4570820000000  0.4787580000000  0.4788720000000 1.0
C      1  0.5295040000000  0.4367780000000  0.5047910000000 1.0
C      1  0.4879860000000  0.4902390000000  0.4368300000000 1.0
C      1  0.5380800000000  0.5667310000000  0.5142840000000 1.0
C      1  0.5534080000000  0.5277320000000  0.5369820000000 1.0
C      1  0.5037190000000  0.5746820000000  0.4786840000000 1.0
C      1  0.5080280000000  0.4650230000000  0.5625230000000 1.0
C      1  0.5004340000000  0.4664070000000  0.5194090000000 1.0
C      1  0.4982180000000  0.5237210000000  0.4687360000000 1.0
C      1  0.5615480000000  0.5220940000000  0.4829410000000 1.0
C      1  0.4578180000000  0.4640560000000  0.5483670000000 1.0
C      1  0.5432360000000  0.5539220000000  0.5375340000000 1.0
C      1  0.5271450000000  0.5598790000000  0.4895110000000 1.0
C      1  0.4837720000000  0.5047890000000  0.5563960000000 1.0
C      1  0.4434700000000  0.4499650000000  0.5289260000000 1.0
C      1  0.4749060000000  0.5435490000000  0.4434510000000 1.0
C      1  0.4639980000000  0.4590660000000  0.4575240000000 1.0
C      1  0.5120590000000  0.4513810000000  0.4604300000000 1.0
C      1  0.4844910000000  0.5827390000000  0.5003530000000 1.0
END
