TITL C-3577083-591-506 -7.26500182068926e-09 125000 -186.239234618151 0 0 30 (C2h) n - 1
REM
REM in /home/bkarasulu/work/CARBON/AIRSS/Generating-Clusters/EDIP-Nigel-Params/with-SteepDescent/Higher-Symm/SD-CG/HFTN-CG
REM
REM
REM
REM
REM
REM ./C.cell (12c818d87b63d06a65506943cc24bca4)
REM
REM compiler GCC version 9.2.1 20190827 (Red Hat 9.2.1-1)
REM options -cpp -mtune=generic -march=x86-64 -g -O0 -fpre-include=/usr/include/finclude/math-vector-fortran.h
REM seed -1533114217 -588230202 -1520233489 -872982513 80323498 1843826352 -2063927624 -854800125 -381181622 416884580 1178490882 1818484424 1825905450 -1663184737 87623329 -1486097550 -2000437942 -1824444639 -1475038554 73122574 111400865 2006611041 -2053749531 -430745888 -472341090 492535374 1955972428 1775563936 992334780 -953041866 -553013151 348332816 -836076166
REM
CELL 1.54180   50.00000   50.00000   50.00000   90.00000   90.00000   90.00000
LATT -1
SFAC C  
C      1  0.4728720000000  0.4804110000000  0.5464680000000 1.0
C      1  0.4600660000000  0.5014480000000  0.4519010000000 1.0
C      1  0.4647900000000  0.5287040000000  0.5461730000000 1.0
C      1  0.4836920000000  0.5421940000000  0.4536390000000 1.0
C      1  0.5108370000000  0.5385950000000  0.5479930000000 1.0
C      1  0.5271280000000  0.5195890000000  0.4535320000000 1.0
C      1  0.5399340000000  0.4985520000000  0.5480990000000 1.0
C      1  0.5352100000000  0.4712960000000  0.4538270000000 1.0
C      1  0.5163080000000  0.4578060000000  0.5463610000000 1.0
C      1  0.4891630000000  0.4614050000000  0.4520070000000 1.0
C      1  0.4902650000000  0.4614890000000  0.5058940000000 1.0
C      1  0.4734120000000  0.4806600000000  0.4922030000000 1.0
C      1  0.4603510000000  0.5026570000000  0.5057850000000 1.0
C      1  0.4584460000000  0.5281180000000  0.4916670000000 1.0
C      1  0.4860720000000  0.5482360000000  0.5081300000000 1.0
C      1  0.5097350000000  0.5385110000000  0.4941060000000 1.0
C      1  0.5265880000000  0.5193400000000  0.5077970000000 1.0
C      1  0.5396490000000  0.4973430000000  0.4942150000000 1.0
C      1  0.5415540000000  0.4718820000000  0.5083330000000 1.0
C      1  0.5139280000000  0.4517640000000  0.4918700000000 1.0
C      1  0.4613580000000  0.5274780000000  0.4625360000000 1.0
C      1  0.4857070000000  0.5453700000000  0.5372710000000 1.0
C      1  0.5087400000000  0.5370370000000  0.4652020000000 1.0
C      1  0.5286400000000  0.5209070000000  0.5360540000000 1.0
C      1  0.5380130000000  0.4967520000000  0.4653090000000 1.0
C      1  0.5386420000000  0.4725220000000  0.5374640000000 1.0
C      1  0.5142930000000  0.4546300000000  0.4627290000000 1.0
C      1  0.4912600000000  0.4629630000000  0.5347980000000 1.0
C      1  0.4713600000000  0.4790930000000  0.4639460000000 1.0
C      1  0.4619870000000  0.5032480000000  0.5346910000000 1.0
END
