TITL C-3578209-2550-420 3.85735014422836e-07 125000 -858.200435146969 0 0 134 (C1) n - 1
REM
REM in /home/bkarasulu/work/CARBON/AIRSS/Generating-Clusters/EDIP-Nigel-Params/with-SteepDescent/Higher-Symm/SD-CG/HFTN-CG
REM
REM
REM
REM
REM
REM ./C.cell (12c818d87b63d06a65506943cc24bca4)
REM
REM compiler GCC version 9.2.1 20190827 (Red Hat 9.2.1-1)
REM options -cpp -mtune=generic -march=x86-64 -g -O0 -fpre-include=/usr/include/finclude/math-vector-fortran.h
REM seed 1305258836 1150654802 -1651007527 -759093464 -2054214719 -1583942710 974074134 1447037140 1243929662 2119881711 -798533232 -1035390759 913543348 706883926 463184087 -1776999478 -589011783 -703352632 -1232944022 -1995270257 674939963 -1220579310 -1821070427 -1375235305 -208532065 250578947 -1146725455 274976698 -1181159123 1243731353 -1455908640 2055626734 1112613884
REM
CELL 1.54180   50.00000   50.00000   50.00000   90.00000   90.00000   90.00000
LATT -1
SFAC C  
C      1  0.5334020000000  0.4978630000000  0.5078740000000 1.0
C      1  0.5126460000000  0.5032000000000  0.5282610000000 1.0
C      1  0.4847640000000  0.4935860000000  0.5327070000000 1.0
C      1  0.4666010000000  0.4990690000000  0.5072520000000 1.0
C      1  0.4779600000000  0.5082370000000  0.4813770000000 1.0
C      1  0.5008050000000  0.4991250000000  0.4665190000000 1.0
C      1  0.5249280000000  0.5084870000000  0.4816450000000 1.0
C      1  0.5251810000000  0.5306870000000  0.5965870000000 1.0
C      1  0.4394820000000  0.5292500000000  0.5859300000000 1.0
C      1  0.3998160000000  0.5313530000000  0.5061090000000 1.0
C      1  0.4337730000000  0.5282080000000  0.4228890000000 1.0
C      1  0.5185480000000  0.5312080000000  0.3999670000000 1.0
C      1  0.5896510000000  0.5326400000000  0.4539280000000 1.0
C      1  0.5938730000000  0.5318210000000  0.5424570000000 1.0
C      1  0.5332340000000  0.4424250000000  0.5494860000000 1.0
C      1  0.4761780000000  0.4411460000000  0.5551240000000 1.0
C      1  0.4417050000000  0.4450350000000  0.5212150000000 1.0
C      1  0.4554420000000  0.4401020000000  0.4660920000000 1.0
C      1  0.4972250000000  0.4457760000000  0.4417390000000 1.0
C      1  0.5425430000000  0.4443270000000  0.4615370000000 1.0
C      1  0.5592180000000  0.4461680000000  0.5082580000000 1.0
C      1  0.4945510000000  0.4649570000000  0.4196270000000 1.0
C      1  0.5563470000000  0.4677880000000  0.4485500000000 1.0
C      1  0.5813730000000  0.4659100000000  0.5108180000000 1.0
C      1  0.5415150000000  0.4656200000000  0.5659840000000 1.0
C      1  0.4715450000000  0.4603170000000  0.5785560000000 1.0
C      1  0.4235040000000  0.4662010000000  0.5286830000000 1.0
C      1  0.4381600000000  0.4642970000000  0.4587980000000 1.0
C      1  0.5299100000000  0.5783680000000  0.4824060000000 1.0
C      1  0.5267200000000  0.5985160000000  0.5017780000000 1.0
C      1  0.5094700000000  0.5873320000000  0.5207450000000 1.0
C      1  0.4830310000000  0.5966430000000  0.5188070000000 1.0
C      1  0.4759570000000  0.5952060000000  0.4926980000000 1.0
C      1  0.4838230000000  0.5808640000000  0.4701440000000 1.0
C      1  0.5069180000000  0.5647570000000  0.4723060000000 1.0
C      1  0.4527910000000  0.5227180000000  0.4031950000000 1.0
C      1  0.5456060000000  0.5263540000000  0.4055850000000 1.0
C      1  0.6037140000000  0.5271510000000  0.4774520000000 1.0
C      1  0.5817770000000  0.5269750000000  0.5673650000000 1.0
C      1  0.4999490000000  0.5235110000000  0.6065270000000 1.0
C      1  0.4158260000000  0.5242750000000  0.5717800000000 1.0
C      1  0.3989730000000  0.5235030000000  0.4789810000000 1.0
C      1  0.4722940000000  0.5125420000000  0.5536340000000 1.0
C      1  0.4485450000000  0.5227850000000  0.5146230000000 1.0
C      1  0.4608900000000  0.5274260000000  0.4658250000000 1.0
C      1  0.4983670000000  0.5212640000000  0.4443390000000 1.0
C      1  0.5403940000000  0.5306840000000  0.4686170000000 1.0
C      1  0.5528710000000  0.5192330000000  0.5177570000000 1.0
C      1  0.5208920000000  0.5225230000000  0.5481690000000 1.0
C      1  0.4962930000000  0.4175620000000  0.5557570000000 1.0
C      1  0.4522790000000  0.4029770000000  0.5372220000000 1.0
C      1  0.4431940000000  0.4171910000000  0.4819260000000 1.0
C      1  0.4729960000000  0.4014400000000  0.4422960000000 1.0
C      1  0.5239710000000  0.4018890000000  0.4425640000000 1.0
C      1  0.5569180000000  0.4021090000000  0.4839640000000 1.0
C      1  0.5482350000000  0.4027650000000  0.5316740000000 1.0
C      1  0.5005320000000  0.5454150000000  0.5457330000000 1.0
C      1  0.4660130000000  0.5371900000000  0.5375250000000 1.0
C      1  0.4478370000000  0.5395270000000  0.4898980000000 1.0
C      1  0.4647390000000  0.5644900000000  0.4578270000000 1.0
C      1  0.5171740000000  0.5443010000000  0.4525980000000 1.0
C      1  0.5485590000000  0.5564760000000  0.4882120000000 1.0
C      1  0.5433950000000  0.5489630000000  0.5179000000000 1.0
C      1  0.4941720000000  0.4776370000000  0.5901530000000 1.0
C      1  0.4259770000000  0.4804170000000  0.5543620000000 1.0
C      1  0.4209830000000  0.4807440000000  0.4779450000000 1.0
C      1  0.4681180000000  0.4794560000000  0.4170700000000 1.0
C      1  0.5438270000000  0.4829750000000  0.4260810000000 1.0
C      1  0.5883910000000  0.4828960000000  0.4870430000000 1.0
C      1  0.5652420000000  0.4818390000000  0.5594420000000 1.0
C      1  0.5213700000000  0.4831780000000  0.5784270000000 1.0
C      1  0.4477720000000  0.4793200000000  0.5757760000000 1.0
C      1  0.4172100000000  0.4850610000000  0.5075800000000 1.0
C      1  0.4502100000000  0.4842830000000  0.4407220000000 1.0
C      1  0.5152540000000  0.4852320000000  0.4181050000000 1.0
C      1  0.5695210000000  0.4881230000000  0.4648630000000 1.0
C      1  0.5807350000000  0.4843070000000  0.5340650000000 1.0
C      1  0.4320980000000  0.5570120000000  0.4297050000000 1.0
C      1  0.5106380000000  0.5586410000000  0.4069340000000 1.0
C      1  0.5800530000000  0.5602720000000  0.4527270000000 1.0
C      1  0.5883420000000  0.5590200000000  0.5318000000000 1.0
C      1  0.5275150000000  0.5578930000000  0.5837630000000 1.0
C      1  0.4503780000000  0.5561210000000  0.5783940000000 1.0
C      1  0.4107000000000  0.5589760000000  0.5090860000000 1.0
C      1  0.5010070000000  0.5624770000000  0.5705860000000 1.0
C      1  0.4479560000000  0.5583500000000  0.5486260000000 1.0
C      1  0.4294770000000  0.5613750000000  0.4847230000000 1.0
C      1  0.4607940000000  0.5680620000000  0.4293480000000 1.0
C      1  0.5292820000000  0.5610640000000  0.4311410000000 1.0
C      1  0.5754300000000  0.5670190000000  0.4821970000000 1.0
C      1  0.5596040000000  0.5642220000000  0.5385320000000 1.0
C      1  0.5933180000000  0.5617000000000  0.5036670000000 1.0
C      1  0.5497600000000  0.5609530000000  0.5654660000000 1.0
C      1  0.4774610000000  0.5599550000000  0.5861490000000 1.0
C      1  0.4234170000000  0.5617840000000  0.5345810000000 1.0
C      1  0.4217970000000  0.5617350000000  0.4566160000000 1.0
C      1  0.4824300000000  0.5605640000000  0.4121670000000 1.0
C      1  0.5579850000000  0.5631600000000  0.4342620000000 1.0
C      1  0.4392490000000  0.5119820000000  0.4476350000000 1.0
C      1  0.5016000000000  0.5117890000000  0.4156040000000 1.0
C      1  0.5651580000000  0.5157190000000  0.4522860000000 1.0
C      1  0.5823080000000  0.5121340000000  0.5228650000000 1.0
C      1  0.5324980000000  0.5114480000000  0.5750810000000 1.0
C      1  0.4596490000000  0.5069130000000  0.5802250000000 1.0
C      1  0.4185150000000  0.5124900000000  0.5204480000000 1.0
C      1  0.5989420000000  0.5082180000000  0.4975320000000 1.0
C      1  0.5625910000000  0.5073590000000  0.5735020000000 1.0
C      1  0.4818640000000  0.5028250000000  0.6004860000000 1.0
C      1  0.4135150000000  0.5067190000000  0.5501960000000 1.0
C      1  0.4143320000000  0.5054200000000  0.4637840000000 1.0
C      1  0.4744410000000  0.5050060000000  0.4033280000000 1.0
C      1  0.5572990000000  0.5088180000000  0.4240020000000 1.0
C      1  0.4838530000000  0.3943650000000  0.4672640000000 1.0
C      1  0.5125930000000  0.3958730000000  0.4674500000000 1.0
C      1  0.5306220000000  0.3942900000000  0.4899480000000 1.0
C      1  0.5245930000000  0.3951680000000  0.5184010000000 1.0
C      1  0.4984470000000  0.4033670000000  0.5296880000000 1.0
C      1  0.4724110000000  0.3959500000000  0.5187980000000 1.0
C      1  0.4667360000000  0.4009880000000  0.4900950000000 1.0
C      1  0.5331160000000  0.4637030000000  0.5061630000000 1.0
C      1  0.5153790000000  0.4526110000000  0.5273630000000 1.0
C      1  0.4871240000000  0.4606540000000  0.5332190000000 1.0
C      1  0.4668310000000  0.4596880000000  0.5101090000000 1.0
C      1  0.4761700000000  0.4517750000000  0.4836080000000 1.0
C      1  0.4982560000000  0.4638780000000  0.4676660000000 1.0
C      1  0.5230550000000  0.4557090000000  0.4799930000000 1.0
C      1  0.5608070000000  0.4299080000000  0.4817910000000 1.0
C      1  0.5557690000000  0.4297150000000  0.5341210000000 1.0
C      1  0.5207630000000  0.4232710000000  0.5673380000000 1.0
C      1  0.4504180000000  0.4297990000000  0.5448940000000 1.0
C      1  0.4283370000000  0.4271970000000  0.5029490000000 1.0
C      1  0.4714610000000  0.4294720000000  0.4430190000000 1.0
C      1  0.5241690000000  0.4300210000000  0.4415330000000 1.0
C      1  0.5141270000000  0.5586730000000  0.5233960000000 1.0
END
