TITL C-3577087-600-668 -1.29308740163493e-06 125000 -533.845496769588 0 0 88 (C4) n - 1
REM
REM in /home/bkarasulu/work/CARBON/AIRSS/Generating-Clusters/EDIP-Nigel-Params/with-SteepDescent/Higher-Symm/SD-CG/HFTN-CG
REM
REM
REM
REM
REM
REM ./C.cell (12c818d87b63d06a65506943cc24bca4)
REM
REM compiler GCC version 9.2.1 20190827 (Red Hat 9.2.1-1)
REM options -cpp -mtune=generic -march=x86-64 -g -O0 -fpre-include=/usr/include/finclude/math-vector-fortran.h
REM seed -1179861266 2113340435 -126760268 -1003128206 -259948900 -1678635493 -1988832215 -811502631 1955188897 1518582463 -1842601583 1847320762 -121423317 -580029596 1004718211 -1543728210 -768341495 1270187106 -464946370 69266589 -1368091260 1373680408 -1864541575 399557152 -1431108658 -399116292 -318641553 799333516 -459243199 241980818 1801192317 793157880 -1877819718
REM
CELL 1.54180   50.00000   50.00000   50.00000   90.00000   90.00000   90.00000
LATT -1
SFAC C  
C      1  0.5076270000000  0.4284060000000  0.4627470000000 1.0
C      1  0.5077420000000  0.4627380000000  0.5715770000000 1.0
C      1  0.5079110000000  0.5715680000000  0.5372450000000 1.0
C      1  0.5077960000000  0.5372360000000  0.4284150000000 1.0
C      1  0.5401150000000  0.4798120000000  0.4399460000000 1.0
C      1  0.5400880000000  0.4398980000000  0.5200990000000 1.0
C      1  0.5402460000000  0.5200500000000  0.5600120000000 1.0
C      1  0.5402730000000  0.5599640000000  0.4798600000000 1.0
C      1  0.4332820000000  0.5417760000000  0.4685950000000 1.0
C      1  0.4331510000000  0.4686750000000  0.4583730000000 1.0
C      1  0.4331720000000  0.4584530000000  0.5314740000000 1.0
C      1  0.4333020000000  0.5315540000000  0.5416960000000 1.0
C      1  0.4675200000000  0.5239940000000  0.4946490000000 1.0
C      1  0.4674600000000  0.4946880000000  0.4760780000000 1.0
C      1  0.4674440000000  0.4761170000000  0.5053850000000 1.0
C      1  0.4675030000000  0.5054230000000  0.5239550000000 1.0
C      1  0.4766600000000  0.5496590000000  0.4720660000000 1.0
C      1  0.4765150000000  0.4720940000000  0.4503930000000 1.0
C      1  0.4765180000000  0.4504210000000  0.5279580000000 1.0
C      1  0.4766620000000  0.5279860000000  0.5496310000000 1.0
C      1  0.5099390000000  0.4935480000000  0.4790800000000 1.0
C      1  0.5099280000000  0.4790690000000  0.5064300000000 1.0
C      1  0.5099820000000  0.5064180000000  0.5209090000000 1.0
C      1  0.5099930000000  0.5208970000000  0.4935590000000 1.0
C      1  0.4639350000000  0.4382510000000  0.4827240000000 1.0
C      1  0.4640530000000  0.4827670000000  0.5618300000000 1.0
C      1  0.4641650000000  0.5618730000000  0.5173130000000 1.0
C      1  0.4640480000000  0.5173560000000  0.4382080000000 1.0
C      1  0.5459140000000  0.5491040000000  0.5572870000000 1.0
C      1  0.5458730000000  0.5572320000000  0.4507940000000 1.0
C      1  0.5456860000000  0.4507390000000  0.4426660000000 1.0
C      1  0.5457280000000  0.4426110000000  0.5491590000000 1.0
C      1  0.4300010000000  0.4674200000000  0.5047970000000 1.0
C      1  0.4300790000000  0.5048800000000  0.5327360000000 1.0
C      1  0.4301080000000  0.5328200000000  0.4952760000000 1.0
C      1  0.4300290000000  0.4953590000000  0.4673360000000 1.0
C      1  0.4381370000000  0.5481740000000  0.5179450000000 1.0
C      1  0.4380520000000  0.5180190000000  0.4519640000000 1.0
C      1  0.4379540000000  0.4520390000000  0.4821200000000 1.0
C      1  0.4380400000000  0.4821940000000  0.5481000000000 1.0
C      1  0.4838150000000  0.5356720000000  0.4468070000000 1.0
C      1  0.4836720000000  0.4468270000000  0.4643640000000 1.0
C      1  0.4837480000000  0.4643830000000  0.5532100000000 1.0
C      1  0.4838910000000  0.5532290000000  0.5356530000000 1.0
C      1  0.4512910000000  0.4653810000000  0.4369110000000 1.0
C      1  0.4512930000000  0.4369690000000  0.5347280000000 1.0
C      1  0.4514750000000  0.5347860000000  0.5631390000000 1.0
C      1  0.4514730000000  0.5631970000000  0.4653230000000 1.0
C      1  0.5528600000000  0.5557650000000  0.5291780000000 1.0
C      1  0.5527700000000  0.5291150000000  0.4441180000000 1.0
C      1  0.5526380000000  0.4440550000000  0.4707680000000 1.0
C      1  0.5527280000000  0.4707050000000  0.5558280000000 1.0
C      1  0.5217210000000  0.5639820000000  0.4355950000000 1.0
C      1  0.5215010000000  0.4355690000000  0.4359690000000 1.0
C      1  0.5215680000000  0.4359440000000  0.5643830000000 1.0
C      1  0.5217880000000  0.5643570000000  0.5640080000000 1.0
C      1  0.5309010000000  0.4841820000000  0.5711400000000 1.0
C      1  0.5310210000000  0.5711030000000  0.5157490000000 1.0
C      1  0.5308810000000  0.5157120000000  0.4288280000000 1.0
C      1  0.5307610000000  0.4287910000000  0.4842190000000 1.0
C      1  0.5817910000000  0.4804310000000  0.4899050000000 1.0
C      1  0.5818220000000  0.4898080000000  0.5193870000000 1.0
C      1  0.5818680000000  0.5192890000000  0.5100100000000 1.0
C      1  0.5818370000000  0.5099120000000  0.4805290000000 1.0
C      1  0.4974340000000  0.4771980000000  0.4290830000000 1.0
C      1  0.4974000000000  0.4290860000000  0.5228080000000 1.0
C      1  0.4975850000000  0.5228110000000  0.5709190000000 1.0
C      1  0.4976190000000  0.5709220000000  0.4771950000000 1.0
C      1  0.5541060000000  0.5154060000000  0.4700610000000 1.0
C      1  0.5540350000000  0.4699960000000  0.4844740000000 1.0
C      1  0.5540840000000  0.4844090000000  0.5298830000000 1.0
C      1  0.5541540000000  0.5298190000000  0.5154700000000 1.0
C      1  0.4971990000000  0.5026290000000  0.4133210000000 1.0
C      1  0.4970900000000  0.4133240000000  0.4973770000000 1.0
C      1  0.4972800000000  0.4973810000000  0.5866820000000 1.0
C      1  0.4973890000000  0.5866850000000  0.5026250000000 1.0
C      1  0.5081310000000  0.5812360000000  0.4531860000000 1.0
C      1  0.5078940000000  0.4531760000000  0.4187460000000 1.0
C      1  0.5079010000000  0.4187370000000  0.5468060000000 1.0
C      1  0.5081390000000  0.5467960000000  0.5812450000000 1.0
C      1  0.4691440000000  0.5883710000000  0.5087560000000 1.0
C      1  0.4689570000000  0.5087930000000  0.4116980000000 1.0
C      1  0.4688320000000  0.4117350000000  0.4912760000000 1.0
C      1  0.4690190000000  0.4913130000000  0.5883340000000 1.0
C      1  0.5386640000000  0.4675850000000  0.5101610000000 1.0
C      1  0.5387480000000  0.5101150000000  0.5323290000000 1.0
C      1  0.5387640000000  0.5322820000000  0.4897990000000 1.0
C      1  0.5386800000000  0.4897530000000  0.4676310000000 1.0
END
