TITL C-3578203-1966-55 1.9805382306218e-06 125000 -1123.80989296342 0 0 181 (C1) n - 1
REM
REM in /home/bkarasulu/work/CARBON/AIRSS/Generating-Clusters/EDIP-Nigel-Params/with-SteepDescent/Higher-Symm/SD-CG/HFTN-CG
REM
REM
REM
REM
REM
REM ./C.cell (12c818d87b63d06a65506943cc24bca4)
REM
REM compiler GCC version 9.2.1 20190827 (Red Hat 9.2.1-1)
REM options -cpp -mtune=generic -march=x86-64 -g -O0 -fpre-include=/usr/include/finclude/math-vector-fortran.h
REM seed 248414648 -1292008658 386172420 594572258 -170957361 -248379886 -1774327563 445764842 -2108753646 -429947376 1801589666 1390380688 -788898545 1737033011 19446143 -1044633687 1790334007 1187521001 -1563321938 -1564592299 -1221672263 847535728 655141870 -1930054429 -60605973 -1321893384 282260940 -453241020 376896213 122827519 -192506961 54768717 882348629
REM
CELL 1.54180   50.00000   50.00000   50.00000   90.00000   90.00000   90.00000
LATT -1
SFAC C  
C      1  0.5529190000000  0.4589010000000  0.5356560000000 1.0
C      1  0.4358780000000  0.4489270000000  0.5258150000000 1.0
C      1  0.5030430000000  0.4578790000000  0.4378940000000 1.0
C      1  0.5365980000000  0.5190860000000  0.4989500000000 1.0
C      1  0.4872690000000  0.5116690000000  0.5371450000000 1.0
C      1  0.4819630000000  0.5198390000000  0.4672300000000 1.0
C      1  0.5047770000000  0.5425710000000  0.4315020000000 1.0
C      1  0.5582400000000  0.5430320000000  0.5391470000000 1.0
C      1  0.4428210000000  0.5402630000000  0.5295610000000 1.0
C      1  0.5259790000000  0.4356000000000  0.4961150000000 1.0
C      1  0.4868170000000  0.4431100000000  0.5312970000000 1.0
C      1  0.4789630000000  0.4350820000000  0.4806920000000 1.0
C      1  0.4029800000000  0.5503840000000  0.5337120000000 1.0
C      1  0.5253090000000  0.5522290000000  0.3976040000000 1.0
C      1  0.5817160000000  0.5587640000000  0.5652360000000 1.0
C      1  0.5216660000000  0.5773860000000  0.4106200000000 1.0
C      1  0.5676350000000  0.5825690000000  0.5548130000000 1.0
C      1  0.4160290000000  0.5745720000000  0.5270510000000 1.0
C      1  0.5808140000000  0.5604730000000  0.4831960000000 1.0
C      1  0.4750900000000  0.5627840000000  0.5808810000000 1.0
C      1  0.4504260000000  0.5646510000000  0.4339250000000 1.0
C      1  0.5155530000000  0.4773650000000  0.5134700000000 1.0
C      1  0.4638770000000  0.4829980000000  0.5035940000000 1.0
C      1  0.5088110000000  0.4782630000000  0.4814760000000 1.0
C      1  0.4981030000000  0.5098220000000  0.3861250000000 1.0
C      1  0.6001050000000  0.5098360000000  0.5512840000000 1.0
C      1  0.4022790000000  0.5051880000000  0.5615710000000 1.0
C      1  0.4896100000000  0.4094080000000  0.4471570000000 1.0
C      1  0.5473640000000  0.4081110000000  0.5205380000000 1.0
C      1  0.4502310000000  0.3951820000000  0.5306410000000 1.0
C      1  0.4379550000000  0.5371970000000  0.4374870000000 1.0
C      1  0.5815420000000  0.5296600000000  0.4843210000000 1.0
C      1  0.4733610000000  0.5323140000000  0.5770680000000 1.0
C      1  0.5687380000000  0.4373040000000  0.4879780000000 1.0
C      1  0.4714460000000  0.4209710000000  0.5651820000000 1.0
C      1  0.4593640000000  0.4539970000000  0.4462250000000 1.0
C      1  0.5900780000000  0.4455320000000  0.4499620000000 1.0
C      1  0.4967470000000  0.4479340000000  0.5980020000000 1.0
C      1  0.4161740000000  0.4449250000000  0.4458250000000 1.0
C      1  0.5848300000000  0.4381680000000  0.5337140000000 1.0
C      1  0.4233980000000  0.4285430000000  0.5560640000000 1.0
C      1  0.4827310000000  0.4401870000000  0.4109740000000 1.0
C      1  0.5465560000000  0.4186530000000  0.4430560000000 1.0
C      1  0.5224220000000  0.4220720000000  0.5669110000000 1.0
C      1  0.4248320000000  0.4133900000000  0.4811320000000 1.0
C      1  0.4466120000000  0.5366940000000  0.4985260000000 1.0
C      1  0.5280300000000  0.5401790000000  0.4533540000000 1.0
C      1  0.5297300000000  0.5435280000000  0.5540340000000 1.0
C      1  0.4951320000000  0.5825790000000  0.4217970000000 1.0
C      1  0.5679730000000  0.5832680000000  0.5253550000000 1.0
C      1  0.4418870000000  0.5764770000000  0.5435020000000 1.0
C      1  0.4995730000000  0.3945590000000  0.5279350000000 1.0
C      1  0.4720080000000  0.3919490000000  0.4867660000000 1.0
C      1  0.5226530000000  0.3941570000000  0.4821160000000 1.0
C      1  0.5411560000000  0.5840180000000  0.4296710000000 1.0
C      1  0.5429370000000  0.5887770000000  0.5672880000000 1.0
C      1  0.4198880000000  0.5779560000000  0.4991700000000 1.0
C      1  0.4686070000000  0.4855110000000  0.5738080000000 1.0
C      1  0.4569150000000  0.4869780000000  0.4512870000000 1.0
C      1  0.5695100000000  0.4811650000000  0.4896410000000 1.0
C      1  0.5460200000000  0.5151120000000  0.4461810000000 1.0
C      1  0.5319060000000  0.5251720000000  0.5756910000000 1.0
C      1  0.4278550000000  0.5128470000000  0.4901590000000 1.0
C      1  0.4099990000000  0.4678450000000  0.4621650000000 1.0
C      1  0.5811340000000  0.4707490000000  0.4392950000000 1.0
C      1  0.5113400000000  0.4736050000000  0.6011050000000 1.0
C      1  0.4721700000000  0.4270610000000  0.4339010000000 1.0
C      1  0.5695750000000  0.4240410000000  0.5141170000000 1.0
C      1  0.4476510000000  0.4144780000000  0.5505340000000 1.0
C      1  0.5443600000000  0.4117520000000  0.4711830000000 1.0
C      1  0.4978850000000  0.4126670000000  0.5531060000000 1.0
C      1  0.4518460000000  0.4076910000000  0.4743120000000 1.0
C      1  0.6045150000000  0.5200410000000  0.5252530000000 1.0
C      1  0.4259490000000  0.5138080000000  0.5760720000000 1.0
C      1  0.4729670000000  0.5185940000000  0.3960920000000 1.0
C      1  0.4545650000000  0.5758980000000  0.4603470000000 1.0
C      1  0.5524030000000  0.5742620000000  0.4786330000000 1.0
C      1  0.4926610000000  0.5749990000000  0.5569640000000 1.0
C      1  0.5348710000000  0.4487440000000  0.5590490000000 1.0
C      1  0.4206380000000  0.4364790000000  0.5009760000000 1.0
C      1  0.5325280000000  0.4452050000000  0.4367590000000 1.0
C      1  0.5521300000000  0.6040550000000  0.5112970000000 1.0
C      1  0.4616040000000  0.5968530000000  0.5319630000000 1.0
C      1  0.4938240000000  0.6013540000000  0.4439440000000 1.0
C      1  0.4088160000000  0.4907270000000  0.4445480000000 1.0
C      1  0.5966850000000  0.4934280000000  0.4480620000000 1.0
C      1  0.4983270000000  0.4984650000000  0.6107620000000 1.0
C      1  0.4349960000000  0.4986870000000  0.4315470000000 1.0
C      1  0.5939210000000  0.4996370000000  0.4774970000000 1.0
C      1  0.4751790000000  0.5067210000000  0.5942630000000 1.0
C      1  0.5412410000000  0.4714230000000  0.6031060000000 1.0
C      1  0.3912260000000  0.4661140000000  0.4857550000000 1.0
C      1  0.5682590000000  0.4707060000000  0.4125450000000 1.0
C      1  0.4901170000000  0.5569820000000  0.5338730000000 1.0
C      1  0.4887200000000  0.5626140000000  0.5053090000000 1.0
C      1  0.5180350000000  0.5667090000000  0.4951970000000 1.0
C      1  0.5293430000000  0.5010530000000  0.5215330000000 1.0
C      1  0.4815990000000  0.5061210000000  0.5095490000000 1.0
C      1  0.5039810000000  0.5014750000000  0.4632860000000 1.0
C      1  0.4732560000000  0.3909570000000  0.5153610000000 1.0
C      1  0.4957040000000  0.3955010000000  0.4706980000000 1.0
C      1  0.5247520000000  0.3941790000000  0.5112940000000 1.0
C      1  0.5627550000000  0.5286750000000  0.5088040000000 1.0
C      1  0.4621080000000  0.5235750000000  0.5490550000000 1.0
C      1  0.4764850000000  0.5314100000000  0.4412880000000 1.0
C      1  0.4449490000000  0.4743310000000  0.4108670000000 1.0
C      1  0.6052690000000  0.4686710000000  0.4980500000000 1.0
C      1  0.4457510000000  0.4585040000000  0.5863680000000 1.0
C      1  0.5052670000000  0.4649280000000  0.5396890000000 1.0
C      1  0.4477260000000  0.4499960000000  0.4763670000000 1.0
C      1  0.5420760000000  0.4556300000000  0.4667810000000 1.0
C      1  0.4639230000000  0.4544890000000  0.5160740000000 1.0
C      1  0.4982440000000  0.4540980000000  0.4673480000000 1.0
C      1  0.5375700000000  0.4590610000000  0.5100870000000 1.0
C      1  0.5237840000000  0.6000350000000  0.5134470000000 1.0
C      1  0.4700040000000  0.5877940000000  0.5047080000000 1.0
C      1  0.5155720000000  0.6170010000000  0.4514330000000 1.0
C      1  0.4233370000000  0.4548860000000  0.5674730000000 1.0
C      1  0.4750960000000  0.4672250000000  0.4050190000000 1.0
C      1  0.5961300000000  0.4638090000000  0.5274480000000 1.0
C      1  0.4450570000000  0.5659800000000  0.5722500000000 1.0
C      1  0.4717420000000  0.5663260000000  0.4145760000000 1.0
C      1  0.5892450000000  0.5691530000000  0.5107280000000 1.0
C      1  0.3921410000000  0.4423640000000  0.5033520000000 1.0
C      1  0.5437910000000  0.4535630000000  0.4098510000000 1.0
C      1  0.5543890000000  0.4547370000000  0.5815480000000 1.0
C      1  0.5143590000000  0.4263390000000  0.5934390000000 1.0
C      1  0.4118510000000  0.4195290000000  0.4570670000000 1.0
C      1  0.5742280000000  0.4238540000000  0.4407270000000 1.0
C      1  0.4081170000000  0.5217140000000  0.5363560000000 1.0
C      1  0.5156780000000  0.5260500000000  0.4063480000000 1.0
C      1  0.5789240000000  0.5271550000000  0.5637670000000 1.0
C      1  0.5327910000000  0.5046390000000  0.4208610000000 1.0
C      1  0.5551690000000  0.5083530000000  0.5713390000000 1.0
C      1  0.4145020000000  0.5013160000000  0.5149960000000 1.0
C      1  0.4764120000000  0.5312360000000  0.4939420000000 1.0
C      1  0.5188680000000  0.5382780000000  0.4829780000000 1.0
C      1  0.5066000000000  0.5348730000000  0.5376130000000 1.0
C      1  0.4301640000000  0.5421480000000  0.5776480000000 1.0
C      1  0.4712510000000  0.5463590000000  0.3952180000000 1.0
C      1  0.6027470000000  0.5478640000000  0.5230590000000 1.0
C      1  0.4201190000000  0.5465060000000  0.4605060000000 1.0
C      1  0.5748420000000  0.5551500000000  0.4451520000000 1.0
C      1  0.5110900000000  0.5622290000000  0.5955250000000 1.0
C      1  0.5950150000000  0.4463680000000  0.4796580000000 1.0
C      1  0.4708310000000  0.4431040000000  0.5840180000000 1.0
C      1  0.4306080000000  0.4500350000000  0.4207990000000 1.0
C      1  0.5141750000000  0.5201220000000  0.6194050000000 1.0
C      1  0.3917690000000  0.5104380000000  0.4539740000000 1.0
C      1  0.5952750000000  0.5150440000000  0.4307940000000 1.0
C      1  0.4461260000000  0.4994390000000  0.5573500000000 1.0
C      1  0.4770310000000  0.5066810000000  0.4246520000000 1.0
C      1  0.5736220000000  0.5007180000000  0.5174350000000 1.0
C      1  0.4448610000000  0.4882310000000  0.4801390000000 1.0
C      1  0.5450070000000  0.4877360000000  0.4696210000000 1.0
C      1  0.4917900000000  0.4869870000000  0.5537830000000 1.0
C      1  0.5074520000000  0.6121590000000  0.5321970000000 1.0
C      1  0.4750620000000  0.6096390000000  0.4873600000000 1.0
C      1  0.5372730000000  0.6186070000000  0.4672130000000 1.0
C      1  0.5600310000000  0.4947810000000  0.5978940000000 1.0
C      1  0.3898900000000  0.4855350000000  0.5091030000000 1.0
C      1  0.5546600000000  0.4951750000000  0.4021910000000 1.0
C      1  0.5718520000000  0.5284490000000  0.4371380000000 1.0
C      1  0.5248970000000  0.5376530000000  0.6007200000000 1.0
C      1  0.4062930000000  0.5248850000000  0.4727010000000 1.0
C      1  0.5558820000000  0.6037100000000  0.4817420000000 1.0
C      1  0.4864020000000  0.6026070000000  0.5479790000000 1.0
C      1  0.4718040000000  0.5989130000000  0.4619990000000 1.0
C      1  0.5790760000000  0.4712680000000  0.5755180000000 1.0
C      1  0.3870400000000  0.4668310000000  0.5318280000000 1.0
C      1  0.5267930000000  0.4707880000000  0.3925790000000 1.0
C      1  0.5526770000000  0.4912440000000  0.5388100000000 1.0
C      1  0.4355780000000  0.4839350000000  0.5300590000000 1.0
C      1  0.5045750000000  0.4904350000000  0.4347850000000 1.0
C      1  0.5937340000000  0.4810320000000  0.5516390000000 1.0
C      1  0.4019450000000  0.4746440000000  0.5566180000000 1.0
C      1  0.4990730000000  0.4808920000000  0.3918160000000 1.0
C      1  0.5479950000000  0.5647860000000  0.4504470000000 1.0
C      1  0.5209880000000  0.5696320000000  0.5682220000000 1.0
C      1  0.4360210000000  0.5616710000000  0.4810340000000 1.0
C      1  0.4966540000000  0.4272830000000  0.5064310000000 1.0
END
