TITL C-3577076-40-421 -2.31640508427132e-06 125000 -1196.3547111768 0 0 191 (C1) n - 1
REM
REM in /home/bkarasulu/work/CARBON/AIRSS/Generating-Clusters/EDIP-Nigel-Params/with-SteepDescent/Higher-Symm/SD-CG/HFTN-CG
REM
REM
REM
REM
REM
REM ./C.cell (12c818d87b63d06a65506943cc24bca4)
REM
REM compiler GCC version 9.2.1 20190827 (Red Hat 9.2.1-1)
REM options -cpp -mtune=generic -march=x86-64 -g -O0 -fpre-include=/usr/include/finclude/math-vector-fortran.h
REM seed 1422242404 1900336828 -1971847711 339831055 500135858 759213897 781502429 2072626236 -1977627465 -2001821785 723948014 1627420760 -1877388414 522872066 -240626982 -361818515 -78069815 -81669090 -1109202303 -262740749 -1959743076 -436910262 -1143669856 2135256215 -28266837 1104898483 1569742750 -1805292417 -1489744560 1620389640 2047973009 691340487 -463927040
REM
CELL 1.54180   50.00000   50.00000   50.00000   90.00000   90.00000   90.00000
LATT -1
SFAC C  
C      1  0.4565850000000  0.5023260000000  0.5047020000000 1.0
C      1  0.4000610000000  0.4540340000000  0.5130980000000 1.0
C      1  0.5558370000000  0.4681780000000  0.5369950000000 1.0
C      1  0.4899400000000  0.4740110000000  0.5084270000000 1.0
C      1  0.5146510000000  0.5748060000000  0.5059490000000 1.0
C      1  0.4012520000000  0.4265360000000  0.5050630000000 1.0
C      1  0.5295900000000  0.4845260000000  0.4073990000000 1.0
C      1  0.4039590000000  0.5056980000000  0.4874670000000 1.0
C      1  0.4052870000000  0.4370820000000  0.4414540000000 1.0
C      1  0.4755760000000  0.5950780000000  0.5337970000000 1.0
C      1  0.4979540000000  0.6150460000000  0.5306280000000 1.0
C      1  0.5493960000000  0.5448890000000  0.5286920000000 1.0
C      1  0.5760710000000  0.4987890000000  0.5017680000000 1.0
C      1  0.5990180000000  0.5469940000000  0.5241670000000 1.0
C      1  0.4474790000000  0.4655410000000  0.4590670000000 1.0
C      1  0.4515080000000  0.5028260000000  0.6176230000000 1.0
C      1  0.3987080000000  0.5285680000000  0.4694210000000 1.0
C      1  0.6134460000000  0.4944060000000  0.5435730000000 1.0
C      1  0.4455100000000  0.5441560000000  0.5907750000000 1.0
C      1  0.4809760000000  0.5139110000000  0.5814950000000 1.0
C      1  0.4946130000000  0.4785580000000  0.6227570000000 1.0
C      1  0.5567970000000  0.5158080000000  0.4864390000000 1.0
C      1  0.6046800000000  0.5251710000000  0.5043200000000 1.0
C      1  0.5204120000000  0.4352740000000  0.5142770000000 1.0
C      1  0.5432990000000  0.4315080000000  0.4311270000000 1.0
C      1  0.5203290000000  0.4795490000000  0.5023850000000 1.0
C      1  0.4282840000000  0.4157320000000  0.5087220000000 1.0
C      1  0.5425200000000  0.5036440000000  0.6229360000000 1.0
C      1  0.4185250000000  0.5879170000000  0.5136080000000 1.0
C      1  0.4661320000000  0.4279140000000  0.4296290000000 1.0
C      1  0.4487540000000  0.4821760000000  0.4061000000000 1.0
C      1  0.5144760000000  0.3915470000000  0.4925570000000 1.0
C      1  0.5755860000000  0.4917290000000  0.4459080000000 1.0
C      1  0.4445240000000  0.5398390000000  0.4796560000000 1.0
C      1  0.6182560000000  0.5011220000000  0.5144540000000 1.0
C      1  0.4363260000000  0.4104570000000  0.4804820000000 1.0
C      1  0.3792930000000  0.4710230000000  0.5026100000000 1.0
C      1  0.5743930000000  0.4162470000000  0.5139000000000 1.0
C      1  0.4782960000000  0.4744210000000  0.4080570000000 1.0
C      1  0.4021480000000  0.4797290000000  0.4720750000000 1.0
C      1  0.5085030000000  0.5049610000000  0.5370160000000 1.0
C      1  0.5032870000000  0.4114960000000  0.5836470000000 1.0
C      1  0.6027550000000  0.4940380000000  0.4568490000000 1.0
C      1  0.4898510000000  0.4776870000000  0.5443060000000 1.0
C      1  0.4750520000000  0.4027110000000  0.5473420000000 1.0
C      1  0.3807800000000  0.4994800000000  0.5055190000000 1.0
C      1  0.4040040000000  0.4645350000000  0.4258180000000 1.0
C      1  0.5793670000000  0.4679340000000  0.4917360000000 1.0
C      1  0.5774720000000  0.4674560000000  0.5786960000000 1.0
C      1  0.4516270000000  0.6019820000000  0.5511590000000 1.0
C      1  0.4691090000000  0.5836400000000  0.5706000000000 1.0
C      1  0.4015070000000  0.5186720000000  0.4422310000000 1.0
C      1  0.4923980000000  0.4805400000000  0.3816550000000 1.0
C      1  0.4552720000000  0.4955350000000  0.4560550000000 1.0
C      1  0.4806600000000  0.5877600000000  0.4166600000000 1.0
C      1  0.4417180000000  0.4441900000000  0.4368260000000 1.0
C      1  0.5539390000000  0.5479420000000  0.5821720000000 1.0
C      1  0.5722060000000  0.4281410000000  0.5405020000000 1.0
C      1  0.5163530000000  0.6016070000000  0.5492230000000 1.0
C      1  0.4124260000000  0.4851090000000  0.5719890000000 1.0
C      1  0.5378100000000  0.4405030000000  0.5722020000000 1.0
C      1  0.5784770000000  0.4228800000000  0.4665330000000 1.0
C      1  0.5021030000000  0.4006700000000  0.5572930000000 1.0
C      1  0.5495220000000  0.4672140000000  0.5673870000000 1.0
C      1  0.5133240000000  0.4647780000000  0.3931260000000 1.0
C      1  0.5627440000000  0.4951350000000  0.5272990000000 1.0
C      1  0.4516930000000  0.5061040000000  0.4245990000000 1.0
C      1  0.5728880000000  0.5245780000000  0.4151840000000 1.0
C      1  0.4183660000000  0.4613090000000  0.5566140000000 1.0
C      1  0.5119130000000  0.6117310000000  0.4789710000000 1.0
C      1  0.5068590000000  0.4582040000000  0.6015620000000 1.0
C      1  0.4994230000000  0.5210520000000  0.4911400000000 1.0
C      1  0.5745300000000  0.5636040000000  0.4491930000000 1.0
C      1  0.5130950000000  0.5050980000000  0.6273170000000 1.0
C      1  0.4606860000000  0.5228190000000  0.6007630000000 1.0
C      1  0.4309740000000  0.4590750000000  0.4124660000000 1.0
C      1  0.4484740000000  0.5481480000000  0.4278240000000 1.0
C      1  0.5474640000000  0.5703110000000  0.4379580000000 1.0
C      1  0.4584370000000  0.5545040000000  0.5668310000000 1.0
C      1  0.4394150000000  0.4890650000000  0.5244140000000 1.0
C      1  0.5817450000000  0.4966940000000  0.5851310000000 1.0
C      1  0.5105520000000  0.5961760000000  0.4555760000000 1.0
C      1  0.4871470000000  0.5242710000000  0.5370260000000 1.0
C      1  0.5566950000000  0.5116260000000  0.4580950000000 1.0
C      1  0.4921130000000  0.4441570000000  0.5101210000000 1.0
C      1  0.4468460000000  0.4373330000000  0.5209350000000 1.0
C      1  0.4920620000000  0.4484240000000  0.5540150000000 1.0
C      1  0.3801360000000  0.5096430000000  0.5313150000000 1.0
C      1  0.5088110000000  0.5547250000000  0.5635600000000 1.0
C      1  0.5318970000000  0.3896970000000  0.5165450000000 1.0
C      1  0.4890810000000  0.5099080000000  0.4320410000000 1.0
C      1  0.4681720000000  0.4363190000000  0.4961610000000 1.0
C      1  0.5264800000000  0.5444670000000  0.5859140000000 1.0
C      1  0.5543570000000  0.4126930000000  0.4513620000000 1.0
C      1  0.5613000000000  0.4475860000000  0.4157830000000 1.0
C      1  0.4656890000000  0.5806830000000  0.5089770000000 1.0
C      1  0.5279580000000  0.4067380000000  0.4686970000000 1.0
C      1  0.4113690000000  0.5388820000000  0.4242040000000 1.0
C      1  0.4893810000000  0.4466130000000  0.4261510000000 1.0
C      1  0.5371640000000  0.5683400000000  0.4864550000000 1.0
C      1  0.4692450000000  0.4896610000000  0.5652420000000 1.0
C      1  0.4741860000000  0.5267190000000  0.5111480000000 1.0
C      1  0.5308340000000  0.4615060000000  0.5234160000000 1.0
C      1  0.4430660000000  0.4976900000000  0.5520300000000 1.0
C      1  0.6075550000000  0.5234930000000  0.4553730000000 1.0
C      1  0.5882790000000  0.4523280000000  0.5519260000000 1.0
C      1  0.4155610000000  0.5663890000000  0.4318220000000 1.0
C      1  0.5540250000000  0.5059530000000  0.5959880000000 1.0
C      1  0.4813350000000  0.5195230000000  0.4031300000000 1.0
C      1  0.4421900000000  0.5099240000000  0.4803920000000 1.0
C      1  0.5067510000000  0.4861780000000  0.5881350000000 1.0
C      1  0.4868790000000  0.5770480000000  0.4900950000000 1.0
C      1  0.5548570000000  0.5181200000000  0.5435700000000 1.0
C      1  0.5895360000000  0.5722790000000  0.5127190000000 1.0
C      1  0.5650180000000  0.4641760000000  0.4506310000000 1.0
C      1  0.4744480000000  0.3913220000000  0.5220750000000 1.0
C      1  0.4169620000000  0.5746240000000  0.4596920000000 1.0
C      1  0.6109190000000  0.4644190000000  0.5377450000000 1.0
C      1  0.4835950000000  0.5373440000000  0.5622950000000 1.0
C      1  0.5346100000000  0.4922670000000  0.5775880000000 1.0
C      1  0.3979470000000  0.5256450000000  0.5450830000000 1.0
C      1  0.4073990000000  0.5602430000000  0.5063430000000 1.0
C      1  0.5332050000000  0.5198260000000  0.4424590000000 1.0
C      1  0.6157920000000  0.5346780000000  0.4795760000000 1.0
C      1  0.4659690000000  0.4034170000000  0.4754360000000 1.0
C      1  0.4626480000000  0.5489640000000  0.4553080000000 1.0
C      1  0.5240660000000  0.4104550000000  0.5368190000000 1.0
C      1  0.5094170000000  0.5640370000000  0.4063780000000 1.0
C      1  0.4048460000000  0.4886900000000  0.4438560000000 1.0
C      1  0.4835630000000  0.5943230000000  0.4442760000000 1.0
C      1  0.5392140000000  0.5871860000000  0.5337610000000 1.0
C      1  0.6097360000000  0.4665350000000  0.4676050000000 1.0
C      1  0.4508800000000  0.4383700000000  0.5757910000000 1.0
C      1  0.5653750000000  0.5911640000000  0.5166110000000 1.0
C      1  0.4557460000000  0.5528820000000  0.5139250000000 1.0
C      1  0.5688460000000  0.5553830000000  0.5599840000000 1.0
C      1  0.4938490000000  0.4561910000000  0.4542030000000 1.0
C      1  0.5200040000000  0.5534990000000  0.5328310000000 1.0
C      1  0.5252890000000  0.5688770000000  0.4582740000000 1.0
C      1  0.5296430000000  0.5102730000000  0.3922560000000 1.0
C      1  0.5676480000000  0.4350170000000  0.4914770000000 1.0
C      1  0.4114150000000  0.5132210000000  0.5670820000000 1.0
C      1  0.4233900000000  0.4378690000000  0.5711220000000 1.0
C      1  0.4875490000000  0.5326490000000  0.4508680000000 1.0
C      1  0.5811890000000  0.5761060000000  0.4753920000000 1.0
C      1  0.5004100000000  0.5831370000000  0.5675680000000 1.0
C      1  0.6097150000000  0.4712920000000  0.5061920000000 1.0
C      1  0.4662210000000  0.4317410000000  0.5500030000000 1.0
C      1  0.5916900000000  0.5399120000000  0.5519230000000 1.0
C      1  0.4596550000000  0.4628880000000  0.5905740000000 1.0
C      1  0.4389380000000  0.5561440000000  0.5405960000000 1.0
C      1  0.5592190000000  0.3927420000000  0.5114250000000 1.0
C      1  0.4252130000000  0.4619400000000  0.4774640000000 1.0
C      1  0.4262240000000  0.4616070000000  0.5273630000000 1.0
C      1  0.5364260000000  0.4348240000000  0.4860720000000 1.0
C      1  0.5899610000000  0.4472600000000  0.4544850000000 1.0
C      1  0.4714730000000  0.4581080000000  0.4736120000000 1.0
C      1  0.4688690000000  0.5778170000000  0.4636390000000 1.0
C      1  0.4861150000000  0.5483540000000  0.3976160000000 1.0
C      1  0.5071250000000  0.4090560000000  0.4461330000000 1.0
C      1  0.5865640000000  0.5382480000000  0.4390470000000 1.0
C      1  0.4160410000000  0.4344230000000  0.4707200000000 1.0
C      1  0.5582650000000  0.5895450000000  0.4875850000000 1.0
C      1  0.5087020000000  0.6179840000000  0.5049980000000 1.0
C      1  0.4154240000000  0.5417800000000  0.5286420000000 1.0
C      1  0.5129130000000  0.4774230000000  0.4589280000000 1.0
C      1  0.5504300000000  0.5423240000000  0.4980980000000 1.0
C      1  0.4647460000000  0.4783020000000  0.6156970000000 1.0
C      1  0.5906570000000  0.5096520000000  0.5579930000000 1.0
C      1  0.5397010000000  0.4641560000000  0.4717380000000 1.0
C      1  0.5150520000000  0.4272180000000  0.4242210000000 1.0
C      1  0.5428990000000  0.5292180000000  0.4141760000000 1.0
C      1  0.5297820000000  0.5112840000000  0.5565720000000 1.0
C      1  0.4410710000000  0.5907680000000  0.4680880000000 1.0
C      1  0.5196770000000  0.5078140000000  0.5090530000000 1.0
C      1  0.5155450000000  0.5255500000000  0.6056900000000 1.0
C      1  0.5576300000000  0.4750870000000  0.4081570000000 1.0
C      1  0.5146890000000  0.5387840000000  0.4597070000000 1.0
C      1  0.5371860000000  0.5580850000000  0.4124500000000 1.0
C      1  0.4643580000000  0.5646960000000  0.4077130000000 1.0
C      1  0.5006420000000  0.5089340000000  0.3826840000000 1.0
C      1  0.5091860000000  0.4393910000000  0.5780300000000 1.0
C      1  0.4889650000000  0.4954250000000  0.4749740000000 1.0
C      1  0.5471670000000  0.4203430000000  0.5536160000000 1.0
C      1  0.4287330000000  0.5849060000000  0.5421210000000 1.0
C      1  0.5168290000000  0.4954750000000  0.4347580000000 1.0
C      1  0.5780980000000  0.4951180000000  0.4166160000000 1.0
C      1  0.4159360000000  0.5513980000000  0.4784360000000 1.0
C      1  0.4424400000000  0.5956380000000  0.4971760000000 1.0
C      1  0.4777630000000  0.4082300000000  0.4485970000000 1.0
C      1  0.4852950000000  0.3955710000000  0.4970240000000 1.0
END
