TITL C-3578206-1180-405 -2.28207229614553e-07 125000 -173.667954410284 0 0 31 (C1) n - 1
REM
REM in /home/bkarasulu/work/CARBON/AIRSS/Generating-Clusters/EDIP-Nigel-Params/with-SteepDescent/Higher-Symm/SD-CG/HFTN-CG
REM
REM
REM
REM
REM
REM ./C.cell (12c818d87b63d06a65506943cc24bca4)
REM
REM compiler GCC version 9.2.1 20190827 (Red Hat 9.2.1-1)
REM options -cpp -mtune=generic -march=x86-64 -g -O0 -fpre-include=/usr/include/finclude/math-vector-fortran.h
REM seed 89506253 -828497353 -861305812 451445549 -465076259 2095368422 118609280 -21549211 1751678281 -1109876531 297997152 1470353879 -1751994907 -415126971 1226425154 1354394827 -134404064 270955063 -1605978926 -1645830045 -2096661377 -1046512673 734725157 789641726 -1060053039 -1845519871 -335593171 1900108933 -783207713 -1239208986 1262336431 -518538503 -452006549
REM
CELL 1.54180   50.00000   50.00000   50.00000   90.00000   90.00000   90.00000
LATT -1
SFAC C  
C      1  0.4987050000000  0.4501820000000  0.4928740000000 1.0
C      1  0.4897120000000  0.4542660000000  0.5195240000000 1.0
C      1  0.5014230000000  0.4750050000000  0.5355320000000 1.0
C      1  0.4939900000000  0.5007870000000  0.5457770000000 1.0
C      1  0.5033830000000  0.5241570000000  0.5319560000000 1.0
C      1  0.4929170000000  0.5424430000000  0.5124240000000 1.0
C      1  0.5007830000000  0.5393010000000  0.4850770000000 1.0
C      1  0.4896490000000  0.5283380000000  0.4611890000000 1.0
C      1  0.4997470000000  0.5042410000000  0.4505710000000 1.0
C      1  0.4905950000000  0.4775030000000  0.4474210000000 1.0
C      1  0.4994360000000  0.4554180000000  0.4652310000000 1.0
C      1  0.4603170000000  0.5277430000000  0.4636400000000 1.0
C      1  0.4480030000000  0.5011260000000  0.4585490000000 1.0
C      1  0.4614100000000  0.4753710000000  0.4504010000000 1.0
C      1  0.4610080000000  0.4537460000000  0.4706890000000 1.0
C      1  0.4481370000000  0.4629330000000  0.4951470000000 1.0
C      1  0.4601450000000  0.4564340000000  0.5217130000000 1.0
C      1  0.4538810000000  0.4767190000000  0.5408480000000 1.0
C      1  0.4645680000000  0.5020780000000  0.5480690000000 1.0
C      1  0.4547330000000  0.5256750000000  0.5350240000000 1.0
C      1  0.4634470000000  0.5433960000000  0.5142040000000 1.0
C      1  0.4526300000000  0.5405770000000  0.4879610000000 1.0
C      1  0.5013060000000  0.4944550000000  0.4938400000000 1.0
C      1  0.5267400000000  0.5004050000000  0.5024290000000 1.0
C      1  0.4761200000000  0.5019870000000  0.5053070000000 1.0
C      1  0.5532880000000  0.5016460000000  0.5042570000000 1.0
C      1  0.5792910000000  0.5041810000000  0.5079590000000 1.0
C      1  0.4266180000000  0.5038790000000  0.5085100000000 1.0
C      1  0.4493240000000  0.4927260000000  0.4948700000000 1.0
C      1  0.4026090000000  0.5120240000000  0.5134760000000 1.0
C      1  0.6046750000000  0.5059200000000  0.5105060000000 1.0
END
