TITL C-3577084-3642-454 -7.34920115378027e-06 125000 -505.058159296443 0 0 81 (C1) n - 1
REM
REM in /home/bkarasulu/work/CARBON/AIRSS/Generating-Clusters/EDIP-Nigel-Params/with-SteepDescent/Higher-Symm/SD-CG/HFTN-CG
REM
REM
REM
REM
REM
REM ./C.cell (12c818d87b63d06a65506943cc24bca4)
REM
REM compiler GCC version 9.2.1 20190827 (Red Hat 9.2.1-1)
REM options -cpp -mtune=generic -march=x86-64 -g -O0 -fpre-include=/usr/include/finclude/math-vector-fortran.h
REM seed -437161848 -1325138482 744114742 109329568 -1848093122 665811550 -1909392807 -2121234533 918890571 -916157517 1902450769 1214936587 -202749485 555066566 -1817146238 1458700481 -1715717354 1589047728 994440862 -1917884227 157603339 -229988670 -256527028 -1289750125 -611440104 1220513847 -431561926 -393260864 -522463314 -990457256 -813689503 -57771576 -534338646
REM
CELL 1.54180   50.00000   50.00000   50.00000   90.00000   90.00000   90.00000
LATT -1
SFAC C  
C      1  0.5174430000000  0.4255370000000  0.4604050000000 1.0
C      1  0.4828920000000  0.5736460000000  0.4605210000000 1.0
C      1  0.4784260000000  0.5294430000000  0.4981040000000 1.0
C      1  0.5221610000000  0.4693330000000  0.4977780000000 1.0
C      1  0.4653110000000  0.5073870000000  0.4829830000000 1.0
C      1  0.5352560000000  0.4917010000000  0.4831250000000 1.0
C      1  0.4877800000000  0.4901270000000  0.4725080000000 1.0
C      1  0.5127650000000  0.5090690000000  0.4727350000000 1.0
C      1  0.4741540000000  0.5992430000000  0.5008060000000 1.0
C      1  0.5261780000000  0.4003610000000  0.5009120000000 1.0
C      1  0.4476350000000  0.4574110000000  0.4819930000000 1.0
C      1  0.5524890000000  0.5417300000000  0.4820760000000 1.0
C      1  0.5394150000000  0.5240690000000  0.4411110000000 1.0
C      1  0.4608860000000  0.4752010000000  0.4410430000000 1.0
C      1  0.5324810000000  0.5462240000000  0.4597740000000 1.0
C      1  0.4677510000000  0.4530380000000  0.4596910000000 1.0
C      1  0.5291190000000  0.4517320000000  0.5546310000000 1.0
C      1  0.4711690000000  0.5465850000000  0.5528360000000 1.0
C      1  0.5069140000000  0.4105440000000  0.4828670000000 1.0
C      1  0.4933940000000  0.5886860000000  0.4829500000000 1.0
C      1  0.4694650000000  0.4290720000000  0.5143610000000 1.0
C      1  0.5312110000000  0.5709510000000  0.5142330000000 1.0
C      1  0.4495930000000  0.5203190000000  0.4579340000000 1.0
C      1  0.5508360000000  0.4790060000000  0.4579470000000 1.0
C      1  0.4549630000000  0.5682260000000  0.4614580000000 1.0
C      1  0.5453590000000  0.4311580000000  0.4614680000000 1.0
C      1  0.5859110000000  0.5036860000000  0.4941620000000 1.0
C      1  0.4144800000000  0.4957970000000  0.4940870000000 1.0
C      1  0.4512450000000  0.4858340000000  0.5154090000000 1.0
C      1  0.5487420000000  0.5129950000000  0.5152260000000 1.0
C      1  0.4416100000000  0.5626260000000  0.5182770000000 1.0
C      1  0.5582620000000  0.4370130000000  0.5181010000000 1.0
C      1  0.4291260000000  0.5447210000000  0.4970020000000 1.0
C      1  0.5707160000000  0.4549100000000  0.4971710000000 1.0
C      1  0.4437380000000  0.4962560000000  0.5517070000000 1.0
C      1  0.5566930000000  0.5033860000000  0.5516210000000 1.0
C      1  0.5108280000000  0.5126600000000  0.4345310000000 1.0
C      1  0.4894850000000  0.4864990000000  0.4343230000000 1.0
C      1  0.5322460000000  0.4223600000000  0.5172640000000 1.0
C      1  0.4677200000000  0.5774590000000  0.5173100000000 1.0
C      1  0.4717540000000  0.5140210000000  0.5231850000000 1.0
C      1  0.5294910000000  0.4827970000000  0.5235780000000 1.0
C      1  0.5550520000000  0.4562180000000  0.5407680000000 1.0
C      1  0.4444660000000  0.5439750000000  0.5413040000000 1.0
C      1  0.4932150000000  0.4658610000000  0.4930720000000 1.0
C      1  0.5073310000000  0.5333360000000  0.4934520000000 1.0
C      1  0.4804840000000  0.4737550000000  0.5211730000000 1.0
C      1  0.5201180000000  0.5249180000000  0.5216690000000 1.0
C      1  0.5521420000000  0.5515640000000  0.5091390000000 1.0
C      1  0.4479240000000  0.4475170000000  0.5091400000000 1.0
C      1  0.4381370000000  0.4926610000000  0.4513630000000 1.0
C      1  0.5622140000000  0.5066710000000  0.4514160000000 1.0
C      1  0.5706550000000  0.4818420000000  0.5379360000000 1.0
C      1  0.4306540000000  0.5182010000000  0.5375500000000 1.0
C      1  0.5699320000000  0.5189990000000  0.4767210000000 1.0
C      1  0.4304010000000  0.4803600000000  0.4766750000000 1.0
C      1  0.4846130000000  0.5237770000000  0.5642900000000 1.0
C      1  0.5155610000000  0.4750840000000  0.5649260000000 1.0
C      1  0.4734470000000  0.4522440000000  0.5556600000000 1.0
C      1  0.5276550000000  0.5458070000000  0.5538970000000 1.0
C      1  0.4862240000000  0.4749810000000  0.5651620000000 1.0
C      1  0.5141180000000  0.5241230000000  0.5656500000000 1.0
C      1  0.4857760000000  0.4282410000000  0.4913730000000 1.0
C      1  0.5144880000000  0.5709270000000  0.4915310000000 1.0
C      1  0.4977750000000  0.4468730000000  0.4534000000000 1.0
C      1  0.5024440000000  0.5521910000000  0.4536540000000 1.0
C      1  0.4854830000000  0.5674370000000  0.5384830000000 1.0
C      1  0.5147330000000  0.4313820000000  0.5391880000000 1.0
C      1  0.5074900000000  0.4639000000000  0.4328040000000 1.0
C      1  0.4928530000000  0.5352700000000  0.4329440000000 1.0
C      1  0.4377260000000  0.5467310000000  0.4683940000000 1.0
C      1  0.5626590000000  0.4526260000000  0.4684430000000 1.0
C      1  0.4851100000000  0.4335940000000  0.5385990000000 1.0
C      1  0.5151850000000  0.5655120000000  0.5381320000000 1.0
C      1  0.4218570000000  0.5184010000000  0.5090310000000 1.0
C      1  0.5788000000000  0.4810590000000  0.5091900000000 1.0
C      1  0.5336470000000  0.4717220000000  0.4361730000000 1.0
C      1  0.4666560000000  0.5275570000000  0.4360670000000 1.0
C      1  0.4698770000000  0.4987620000000  0.5647680000000 1.0
C      1  0.5304580000000  0.5001370000000  0.5646140000000 1.0
C      1  0.5009670000000  0.4995320000000  0.5312750000000 1.0
END
