TITL C-3577078-809-518 -2.33981680568665e-06 125000 -667.587821660596 0 0 109 (C1) n - 1
REM
REM in /home/bkarasulu/work/CARBON/AIRSS/Generating-Clusters/EDIP-Nigel-Params/with-SteepDescent/Higher-Symm/SD-CG/HFTN-CG
REM
REM
REM
REM
REM
REM ./C.cell (12c818d87b63d06a65506943cc24bca4)
REM
REM compiler GCC version 9.2.1 20190827 (Red Hat 9.2.1-1)
REM options -cpp -mtune=generic -march=x86-64 -g -O0 -fpre-include=/usr/include/finclude/math-vector-fortran.h
REM seed 946359103 954441565 1560790034 -1783110537 -567591094 -1720109927 352050529 -630628751 -239337205 -271024773 -787408334 -1385553635 -527670382 -781093142 1516418468 -779048145 -2041798732 723230422 -1209433701 1027111145 -1616455925 -1738459699 515394944 -1571269039 544144450 -273604582 -17666730 339376373 -589885069 -1243668921 -1938094555 -697744016 -1145298164
REM
CELL 1.54180   50.00000   50.00000   50.00000   90.00000   90.00000   90.00000
LATT -1
SFAC C  
C      1  0.4872940000000  0.4439350000000  0.4644200000000 1.0
C      1  0.5345080000000  0.5550760000000  0.4882210000000 1.0
C      1  0.5115950000000  0.4434060000000  0.5339050000000 1.0
C      1  0.4655950000000  0.5560420000000  0.5126250000000 1.0
C      1  0.4621710000000  0.5123500000000  0.5343700000000 1.0
C      1  0.4653090000000  0.4873270000000  0.4620990000000 1.0
C      1  0.5366680000000  0.5115090000000  0.4654460000000 1.0
C      1  0.5341120000000  0.4863620000000  0.5367660000000 1.0
C      1  0.5337750000000  0.4610840000000  0.4578370000000 1.0
C      1  0.5410290000000  0.5380020000000  0.5327780000000 1.0
C      1  0.4660700000000  0.4609750000000  0.5410760000000 1.0
C      1  0.4591660000000  0.5391060000000  0.4676190000000 1.0
C      1  0.4370290000000  0.4549350000000  0.5379760000000 1.0
C      1  0.4632680000000  0.5456510000000  0.4387950000000 1.0
C      1  0.5627200000000  0.4542560000000  0.4606480000000 1.0
C      1  0.5372530000000  0.5441680000000  0.5616990000000 1.0
C      1  0.4155200000000  0.4964660000000  0.4404440000000 1.0
C      1  0.5591380000000  0.5061270000000  0.4152600000000 1.0
C      1  0.5841930000000  0.4941690000000  0.5588090000000 1.0
C      1  0.4408670000000  0.5053930000000  0.5844980000000 1.0
C      1  0.4870710000000  0.4636230000000  0.4208580000000 1.0
C      1  0.5780230000000  0.5357270000000  0.4864570000000 1.0
C      1  0.5125920000000  0.4622460000000  0.5778600000000 1.0
C      1  0.4214950000000  0.5369910000000  0.5133800000000 1.0
C      1  0.4505970000000  0.5312540000000  0.5140750000000 1.0
C      1  0.4859630000000  0.4690340000000  0.4500350000000 1.0
C      1  0.5488440000000  0.5298450000000  0.4862330000000 1.0
C      1  0.5133110000000  0.4682180000000  0.5487430000000 1.0
C      1  0.4679480000000  0.5161090000000  0.5889170000000 1.0
C      1  0.4107510000000  0.4846510000000  0.4669370000000 1.0
C      1  0.5321480000000  0.5172710000000  0.4110940000000 1.0
C      1  0.5887040000000  0.4827360000000  0.5320890000000 1.0
C      1  0.4402690000000  0.5333630000000  0.4235460000000 1.0
C      1  0.5771480000000  0.4683400000000  0.4382070000000 1.0
C      1  0.5601460000000  0.5311720000000  0.5764930000000 1.0
C      1  0.4225540000000  0.4683910000000  0.5607260000000 1.0
C      1  0.4810620000000  0.4355060000000  0.5344940000000 1.0
C      1  0.4654620000000  0.5648680000000  0.4824750000000 1.0
C      1  0.5179550000000  0.4358310000000  0.4638410000000 1.0
C      1  0.5349660000000  0.5639120000000  0.5182900000000 1.0
C      1  0.5133850000000  0.4515390000000  0.5051450000000 1.0
C      1  0.4939960000000  0.5473600000000  0.5145420000000 1.0
C      1  0.4853290000000  0.4516540000000  0.4932680000000 1.0
C      1  0.5059630000000  0.5473410000000  0.4862950000000 1.0
C      1  0.5598240000000  0.4487670000000  0.5515460000000 1.0
C      1  0.4501940000000  0.5502950000000  0.5601040000000 1.0
C      1  0.4390760000000  0.4504780000000  0.4468990000000 1.0
C      1  0.5502780000000  0.5504540000000  0.4408210000000 1.0
C      1  0.4289360000000  0.5315370000000  0.4700060000000 1.0
C      1  0.5305110000000  0.4695710000000  0.4278760000000 1.0
C      1  0.5710470000000  0.5299480000000  0.5298760000000 1.0
C      1  0.4691830000000  0.4686940000000  0.5712120000000 1.0
C      1  0.4914270000000  0.5705720000000  0.5531970000000 1.0
C      1  0.4452710000000  0.4336370000000  0.4904130000000 1.0
C      1  0.5093390000000  0.5713040000000  0.4480450000000 1.0
C      1  0.5530540000000  0.4326000000000  0.5079160000000 1.0
C      1  0.4780540000000  0.5130610000000  0.4111750000000 1.0
C      1  0.5887170000000  0.4869810000000  0.4770560000000 1.0
C      1  0.5220660000000  0.5113310000000  0.5887230000000 1.0
C      1  0.4113080000000  0.4880370000000  0.5223120000000 1.0
C      1  0.4946420000000  0.5223610000000  0.5439300000000 1.0
C      1  0.4543930000000  0.4756200000000  0.4938920000000 1.0
C      1  0.5053920000000  0.5227300000000  0.4564410000000 1.0
C      1  0.5449170000000  0.4746560000000  0.5046860000000 1.0
C      1  0.5102310000000  0.5335060000000  0.5706680000000 1.0
C      1  0.4276860000000  0.4641970000000  0.5106360000000 1.0
C      1  0.4901150000000  0.5346370000000  0.4297570000000 1.0
C      1  0.5720090000000  0.4632000000000  0.4881900000000 1.0
C      1  0.4238140000000  0.5048710000000  0.4830280000000 1.0
C      1  0.5170300000000  0.4959970000000  0.4237690000000 1.0
C      1  0.5757250000000  0.5033190000000  0.5164350000000 1.0
C      1  0.4828770000000  0.4949200000000  0.5758790000000 1.0
C      1  0.5056260000000  0.4878770000000  0.5914280000000 1.0
C      1  0.4084410000000  0.5113410000000  0.5058990000000 1.0
C      1  0.4942660000000  0.4894890000000  0.4079560000000 1.0
C      1  0.5912700000000  0.5100710000000  0.4937680000000 1.0
C      1  0.4714190000000  0.4286650000000  0.5066720000000 1.0
C      1  0.4939290000000  0.5711870000000  0.4732870000000 1.0
C      1  0.5270390000000  0.4283910000000  0.4916420000000 1.0
C      1  0.5066880000000  0.5707200000000  0.5278290000000 1.0
C      1  0.4416280000000  0.4748180000000  0.5826930000000 1.0
C      1  0.4178570000000  0.5268470000000  0.4421440000000 1.0
C      1  0.5580960000000  0.4755200000000  0.4164150000000 1.0
C      1  0.5823220000000  0.5246360000000  0.5576010000000 1.0
C      1  0.4500160000000  0.5067510000000  0.4144240000000 1.0
C      1  0.5850900000000  0.4946290000000  0.4494040000000 1.0
C      1  0.5499360000000  0.5045730000000  0.5850500000000 1.0
C      1  0.4145260000000  0.4949710000000  0.5502330000000 1.0
C      1  0.5835480000000  0.5502320000000  0.5112310000000 1.0
C      1  0.4876370000000  0.4480290000000  0.5833620000000 1.0
C      1  0.4163050000000  0.5516530000000  0.4886910000000 1.0
C      1  0.5119240000000  0.4493290000000  0.4152820000000 1.0
C      1  0.4221540000000  0.4575150000000  0.4699910000000 1.0
C      1  0.5263820000000  0.5441650000000  0.4238660000000 1.0
C      1  0.5768810000000  0.4557660000000  0.5283790000000 1.0
C      1  0.4739600000000  0.5432760000000  0.5768680000000 1.0
C      1  0.5361650000000  0.5679420000000  0.4596690000000 1.0
C      1  0.5410440000000  0.4318940000000  0.5360940000000 1.0
C      1  0.4644740000000  0.5680420000000  0.5416780000000 1.0
C      1  0.4575160000000  0.4330750000000  0.4621520000000 1.0
C      1  0.5558750000000  0.4835270000000  0.5623140000000 1.0
C      1  0.4370970000000  0.5160100000000  0.5564090000000 1.0
C      1  0.4435220000000  0.4854150000000  0.4365760000000 1.0
C      1  0.5623100000000  0.5159270000000  0.4438950000000 1.0
C      1  0.5280880000000  0.4842110000000  0.4794890000000 1.0
C      1  0.5180870000000  0.5119240000000  0.5254400000000 1.0
C      1  0.4724310000000  0.4860180000000  0.5181270000000 1.0
C      1  0.4816360000000  0.5124570000000  0.4743670000000 1.0
C      1  0.4983840000000  0.4984220000000  0.5010470000000 1.0
END
