TITL C-3577076-40-190 -8.79997802412943e-07 125000 -213.739564899995 0 0 38 (C2v) n - 1
REM
REM in /home/bkarasulu/work/CARBON/AIRSS/Generating-Clusters/EDIP-Nigel-Params/with-SteepDescent/Higher-Symm/SD-CG/HFTN-CG
REM
REM
REM
REM
REM
REM ./C.cell (12c818d87b63d06a65506943cc24bca4)
REM
REM compiler GCC version 9.2.1 20190827 (Red Hat 9.2.1-1)
REM options -cpp -mtune=generic -march=x86-64 -g -O0 -fpre-include=/usr/include/finclude/math-vector-fortran.h
REM seed -277672391 -1684525778 1953717299 -1141997121 -843207347 -1663510562 -716646127 191701533 8708056 -1118264814 1499100157 1001057659 326904845 -1998120003 1367735752 -222147504 -1598548993 -219291233 172737263 886906730 1183488630 -1487175830 1749688733 955040253 -19881308 736692359 -1460793575 -1266674743 -1905360146 1937246042 1686865270 371230284 314135671
REM
CELL 1.54180   50.00000   50.00000   50.00000   90.00000   90.00000   90.00000
LATT -1
SFAC C  
C      1  0.5470030000000  0.5144700000000  0.5284550000000 1.0
C      1  0.5470030000000  0.4855280000000  0.4715450000000 1.0
C      1  0.4519020000000  0.5144750000000  0.5283530000000 1.0
C      1  0.4519020000000  0.4855270000000  0.4716460000000 1.0
C      1  0.5470030000000  0.5144750000000  0.4715470000000 1.0
C      1  0.5470030000000  0.4855230000000  0.5284530000000 1.0
C      1  0.4519020000000  0.5144800000000  0.4716490000000 1.0
C      1  0.4519020000000  0.4855220000000  0.5283510000000 1.0
C      1  0.4838280000000  0.4442920000000  0.4743960000000 1.0
C      1  0.4838300000000  0.5557080000000  0.5256040000000 1.0
C      1  0.5137020000000  0.4437030000000  0.4754580000000 1.0
C      1  0.5137040000000  0.5562970000000  0.5245420000000 1.0
C      1  0.4838280000000  0.4442880000000  0.5255940000000 1.0
C      1  0.4838300000000  0.5557130000000  0.4744060000000 1.0
C      1  0.5137020000000  0.4436980000000  0.5245320000000 1.0
C      1  0.5137040000000  0.5563010000000  0.4754680000000 1.0
C      1  0.5235030000000  0.5285950000000  0.5158360000000 1.0
C      1  0.5235020000000  0.4714040000000  0.4841640000000 1.0
C      1  0.4753240000000  0.5286960000000  0.5158650000000 1.0
C      1  0.4753230000000  0.4713050000000  0.4841350000000 1.0
C      1  0.5235030000000  0.5285980000000  0.4841690000000 1.0
C      1  0.5235020000000  0.4714010000000  0.5158310000000 1.0
C      1  0.4753240000000  0.5286990000000  0.4841400000000 1.0
C      1  0.4753230000000  0.4713020000000  0.5158600000000 1.0
C      1  0.5674550000000  0.4719430000000  0.5382420000000 1.0
C      1  0.5674560000000  0.5280540000000  0.4617580000000 1.0
C      1  0.4314240000000  0.4719740000000  0.5381290000000 1.0
C      1  0.4314250000000  0.5280290000000  0.4618710000000 1.0
C      1  0.5674550000000  0.4719500000000  0.4617530000000 1.0
C      1  0.5674560000000  0.5280480000000  0.5382470000000 1.0
C      1  0.4314240000000  0.4719800000000  0.4618660000000 1.0
C      1  0.4314250000000  0.5280230000000  0.5381340000000 1.0
C      1  0.4994260000000  0.4858790000000  0.5237610000000 1.0
C      1  0.4994260000000  0.4858830000000  0.4762370000000 1.0
C      1  0.4994270000000  0.5141210000000  0.4762390000000 1.0
C      1  0.4994270000000  0.5141170000000  0.5237630000000 1.0
C      1  0.5072900000000  0.4269850000000  0.4999940000000 1.0
C      1  0.5072930000000  0.5730140000000  0.5000060000000 1.0
END
