TITL C-3577079-311-150 -2.74239956164876e-06 125000 -500.393457330573 0 0 80 (C1) n - 1
REM
REM in /home/bkarasulu/work/CARBON/AIRSS/Generating-Clusters/EDIP-Nigel-Params/with-SteepDescent/Higher-Symm/SD-CG/HFTN-CG
REM
REM
REM
REM
REM
REM ./C.cell (12c818d87b63d06a65506943cc24bca4)
REM
REM compiler GCC version 9.2.1 20190827 (Red Hat 9.2.1-1)
REM options -cpp -mtune=generic -march=x86-64 -g -O0 -fpre-include=/usr/include/finclude/math-vector-fortran.h
REM seed 1331132674 -84913338 -194365483 1435950054 1315523344 -2110617042 -1331877493 -43391234 797485530 -1976345322 -734499133 1557319624 1773373899 366507933 1517938997 -2082897312 -1882942942 -446927026 -1992353415 -1475477160 445135335 -392892442 1099499346 -1270078153 -962266799 -1752022313 1571097637 1288568217 1482911939 -1663117687 -954688957 253175443 -1971978402
REM
CELL 1.54180   50.00000   50.00000   50.00000   90.00000   90.00000   90.00000
LATT -1
SFAC C  
C      1  0.5147140000000  0.5035320000000  0.4231900000000 1.0
C      1  0.4864160000000  0.4941640000000  0.4234470000000 1.0
C      1  0.5157510000000  0.4945400000000  0.5754070000000 1.0
C      1  0.4881760000000  0.5052370000000  0.5758010000000 1.0
C      1  0.4233650000000  0.4693350000000  0.5047050000000 1.0
C      1  0.5742140000000  0.5371780000000  0.5084840000000 1.0
C      1  0.4265720000000  0.5342020000000  0.4904940000000 1.0
C      1  0.5707850000000  0.4656700000000  0.4906580000000 1.0
C      1  0.4919750000000  0.4245060000000  0.4643410000000 1.0
C      1  0.5041270000000  0.5750620000000  0.4644560000000 1.0
C      1  0.4924680000000  0.5682520000000  0.5379200000000 1.0
C      1  0.5032980000000  0.4266740000000  0.5383690000000 1.0
C      1  0.4895380000000  0.4831780000000  0.4716730000000 1.0
C      1  0.5208470000000  0.5139210000000  0.4760100000000 1.0
C      1  0.4827940000000  0.5142270000000  0.5240560000000 1.0
C      1  0.5138310000000  0.4820180000000  0.5288690000000 1.0
C      1  0.5108030000000  0.5743400000000  0.4926100000000 1.0
C      1  0.4840820000000  0.4231250000000  0.4922990000000 1.0
C      1  0.5080360000000  0.4214620000000  0.5100810000000 1.0
C      1  0.4870930000000  0.5731950000000  0.5099800000000 1.0
C      1  0.4365040000000  0.4524160000000  0.4828920000000 1.0
C      1  0.5624720000000  0.5513210000000  0.4833130000000 1.0
C      1  0.4343740000000  0.5446680000000  0.5176910000000 1.0
C      1  0.5637170000000  0.4537050000000  0.5169600000000 1.0
C      1  0.5279280000000  0.4302250000000  0.5519250000000 1.0
C      1  0.4687840000000  0.5687990000000  0.5535380000000 1.0
C      1  0.5270300000000  0.5720150000000  0.4484130000000 1.0
C      1  0.4695320000000  0.4288720000000  0.4479100000000 1.0
C      1  0.4545940000000  0.5639580000000  0.4723170000000 1.0
C      1  0.5413510000000  0.4329940000000  0.4723880000000 1.0
C      1  0.4550790000000  0.4423280000000  0.5283580000000 1.0
C      1  0.5431890000000  0.5628420000000  0.5273780000000 1.0
C      1  0.5200980000000  0.4823750000000  0.4781650000000 1.0
C      1  0.4891440000000  0.5167960000000  0.4707340000000 1.0
C      1  0.5142540000000  0.5169960000000  0.5271950000000 1.0
C      1  0.4851680000000  0.4838430000000  0.5232640000000 1.0
C      1  0.4686750000000  0.4861420000000  0.5644570000000 1.0
C      1  0.5338150000000  0.5135590000000  0.5611460000000 1.0
C      1  0.4689580000000  0.5139320000000  0.4372630000000 1.0
C      1  0.5323910000000  0.4836100000000  0.4359220000000 1.0
C      1  0.5353210000000  0.5464210000000  0.4411750000000 1.0
C      1  0.4631770000000  0.4548090000000  0.4405430000000 1.0
C      1  0.5377600000000  0.4554110000000  0.5590170000000 1.0
C      1  0.4627410000000  0.5422180000000  0.5582110000000 1.0
C      1  0.4845050000000  0.5407330000000  0.4352690000000 1.0
C      1  0.5154310000000  0.4591010000000  0.4374630000000 1.0
C      1  0.4783480000000  0.4586840000000  0.5677900000000 1.0
C      1  0.5243440000000  0.5415860000000  0.5670120000000 1.0
C      1  0.5159630000000  0.4417200000000  0.4608300000000 1.0
C      1  0.4804690000000  0.5584880000000  0.4581300000000 1.0
C      1  0.5195930000000  0.5575470000000  0.5441890000000 1.0
C      1  0.4803450000000  0.4445950000000  0.5433170000000 1.0
C      1  0.5645680000000  0.4488500000000  0.4686270000000 1.0
C      1  0.4293930000000  0.5517000000000  0.4683290000000 1.0
C      1  0.5691150000000  0.5524020000000  0.5320280000000 1.0
C      1  0.4329870000000  0.4617120000000  0.5332380000000 1.0
C      1  0.4876650000000  0.4713510000000  0.4417980000000 1.0
C      1  0.5123400000000  0.5295670000000  0.4355210000000 1.0
C      1  0.4889900000000  0.5293410000000  0.5594310000000 1.0
C      1  0.5130160000000  0.4710170000000  0.5580010000000 1.0
C      1  0.5531900000000  0.5001530000000  0.5388310000000 1.0
C      1  0.4475400000000  0.4953450000000  0.5424410000000 1.0
C      1  0.5544830000000  0.5030090000000  0.4600300000000 1.0
C      1  0.4498880000000  0.5003390000000  0.4586240000000 1.0
C      1  0.4451390000000  0.4697580000000  0.4586380000000 1.0
C      1  0.5558620000000  0.5340430000000  0.4586650000000 1.0
C      1  0.4442250000000  0.5273140000000  0.5403410000000 1.0
C      1  0.5555330000000  0.4703880000000  0.5401950000000 1.0
C      1  0.5296810000000  0.4688590000000  0.5045180000000 1.0
C      1  0.4731630000000  0.5264200000000  0.4958080000000 1.0
C      1  0.5294860000000  0.5257900000000  0.5026450000000 1.0
C      1  0.4729470000000  0.4736360000000  0.4978320000000 1.0
C      1  0.4622550000000  0.4440900000000  0.4995890000000 1.0
C      1  0.5351450000000  0.5569590000000  0.5000510000000 1.0
C      1  0.4639720000000  0.5566060000000  0.4993840000000 1.0
C      1  0.5335450000000  0.4358480000000  0.5010390000000 1.0
C      1  0.4470150000000  0.5130510000000  0.4858530000000 1.0
C      1  0.5619430000000  0.4931550000000  0.4874900000000 1.0
C      1  0.4463930000000  0.4900640000000  0.5038220000000 1.0
C      1  0.5565830000000  0.5127050000000  0.5102050000000 1.0
END
