TITL C-3577091-527-274 9.98340547763761e-08 125000 -600.031878571889 0 0 96 (C1) n - 1
REM
REM in /home/bkarasulu/work/CARBON/AIRSS/Generating-Clusters/EDIP-Nigel-Params/with-SteepDescent/Higher-Symm/SD-CG/HFTN-CG
REM
REM
REM
REM
REM
REM ./C.cell (12c818d87b63d06a65506943cc24bca4)
REM
REM compiler GCC version 9.2.1 20190827 (Red Hat 9.2.1-1)
REM options -cpp -mtune=generic -march=x86-64 -g -O0 -fpre-include=/usr/include/finclude/math-vector-fortran.h
REM seed -1621846224 -1120859789 -1332468549 1235278766 2073775908 -1564950234 390619912 -513180413 -2079118993 698412475 -1024072400 912596146 -750677194 62972609 -1289324120 -684273719 -1335677714 257634721 1913111858 784120134 -264801015 685626265 881537053 -836403837 1328284313 47268379 1044677322 -126971014 1682500614 220624363 1095828994 -1615964581 -443677939
REM
CELL 1.54180   50.00000   50.00000   50.00000   90.00000   90.00000   90.00000
LATT -1
SFAC C  
C      1  0.4298060000000  0.5518400000000  0.5074490000000 1.0
C      1  0.4839920000000  0.5524510000000  0.5677280000000 1.0
C      1  0.5616980000000  0.5535770000000  0.5363280000000 1.0
C      1  0.5535930000000  0.5517060000000  0.4498830000000 1.0
C      1  0.4714660000000  0.5554300000000  0.4363210000000 1.0
C      1  0.4379390000000  0.4410800000000  0.4847830000000 1.0
C      1  0.4815000000000  0.4426890000000  0.4445010000000 1.0
C      1  0.5360820000000  0.4555590000000  0.4848860000000 1.0
C      1  0.5416110000000  0.4565510000000  0.5465460000000 1.0
C      1  0.4851860000000  0.4406560000000  0.5543180000000 1.0
C      1  0.4460660000000  0.5577280000000  0.4526500000000 1.0
C      1  0.4373420000000  0.5522020000000  0.5362090000000 1.0
C      1  0.5133460000000  0.5568480000000  0.5673370000000 1.0
C      1  0.5702320000000  0.5528800000000  0.5077030000000 1.0
C      1  0.5313720000000  0.5554230000000  0.4306170000000 1.0
C      1  0.4665280000000  0.4389690000000  0.5322210000000 1.0
C      1  0.4285650000000  0.4413600000000  0.4565470000000 1.0
C      1  0.5094570000000  0.4376830000000  0.4339290000000 1.0
C      1  0.5574760000000  0.4411570000000  0.4986080000000 1.0
C      1  0.5375990000000  0.4460140000000  0.5741540000000 1.0
C      1  0.4896270000000  0.5482090000000  0.5236180000000 1.0
C      1  0.5213790000000  0.5472010000000  0.5172080000000 1.0
C      1  0.5252300000000  0.5462550000000  0.4854930000000 1.0
C      1  0.4956280000000  0.5482900000000  0.4731610000000 1.0
C      1  0.4741730000000  0.5485500000000  0.4964050000000 1.0
C      1  0.4815120000000  0.4769660000000  0.4825950000000 1.0
C      1  0.4863720000000  0.4464760000000  0.4740020000000 1.0
C      1  0.5249710000000  0.4779350000000  0.5034050000000 1.0
C      1  0.5057910000000  0.4737820000000  0.5270130000000 1.0
C      1  0.4772880000000  0.4770390000000  0.5130340000000 1.0
C      1  0.5248620000000  0.4399890000000  0.5288010000000 1.0
C      1  0.5145460000000  0.4359620000000  0.4776080000000 1.0
C      1  0.4648830000000  0.4179170000000  0.4467880000000 1.0
C      1  0.4642670000000  0.4267150000000  0.4845710000000 1.0
C      1  0.5088070000000  0.4235950000000  0.5490690000000 1.0
C      1  0.5448890000000  0.5664030000000  0.4738340000000 1.0
C      1  0.5370330000000  0.5697470000000  0.5320980000000 1.0
C      1  0.4775550000000  0.5692310000000  0.5442680000000 1.0
C      1  0.4508400000000  0.5694360000000  0.4951560000000 1.0
C      1  0.4916120000000  0.5707860000000  0.4520970000000 1.0
C      1  0.5243660000000  0.4208020000000  0.5728300000000 1.0
C      1  0.5444670000000  0.4228400000000  0.5152890000000 1.0
C      1  0.5214430000000  0.4216720000000  0.4540730000000 1.0
C      1  0.4377670000000  0.4187510000000  0.4421370000000 1.0
C      1  0.4697660000000  0.4199050000000  0.5120190000000 1.0
C      1  0.5142880000000  0.5768630000000  0.4369140000000 1.0
C      1  0.5651800000000  0.5751160000000  0.4911320000000 1.0
C      1  0.5256900000000  0.5795700000000  0.5560290000000 1.0
C      1  0.4502700000000  0.5758010000000  0.5444780000000 1.0
C      1  0.4433760000000  0.5797980000000  0.4700380000000 1.0
C      1  0.5596550000000  0.4794400000000  0.5379260000000 1.0
C      1  0.5452380000000  0.4734290000000  0.4604660000000 1.0
C      1  0.4674390000000  0.4679790000000  0.4362310000000 1.0
C      1  0.4362130000000  0.4657820000000  0.5009070000000 1.0
C      1  0.4915850000000  0.4668730000000  0.5674630000000 1.0
C      1  0.5676720000000  0.5214970000000  0.4692070000000 1.0
C      1  0.5510670000000  0.5274150000000  0.5523040000000 1.0
C      1  0.4697160000000  0.5233980000000  0.5631300000000 1.0
C      1  0.4299960000000  0.5252560000000  0.4905900000000 1.0
C      1  0.4867830000000  0.5270430000000  0.4297170000000 1.0
C      1  0.4304790000000  0.5338200000000  0.4603090000000 1.0
C      1  0.4416880000000  0.5278510000000  0.5522040000000 1.0
C      1  0.5303000000000  0.5347700000000  0.5734670000000 1.0
C      1  0.5819940000000  0.5295750000000  0.4946520000000 1.0
C      1  0.5158790000000  0.5320440000000  0.4207330000000 1.0
C      1  0.4461320000000  0.4600840000000  0.5296720000000 1.0
C      1  0.4382660000000  0.4666160000000  0.4444120000000 1.0
C      1  0.5248420000000  0.4616950000000  0.4307970000000 1.0
C      1  0.5762190000000  0.4594910000000  0.5094770000000 1.0
C      1  0.5185330000000  0.4667580000000  0.5829860000000 1.0
C      1  0.5391950000000  0.5201300000000  0.4769710000000 1.0
C      1  0.4901170000000  0.5222220000000  0.4588820000000 1.0
C      1  0.4598230000000  0.5209580000000  0.4947190000000 1.0
C      1  0.4843360000000  0.5202160000000  0.5365700000000 1.0
C      1  0.5321310000000  0.5192820000000  0.5295600000000 1.0
C      1  0.5471040000000  0.4973140000000  0.5139350000000 1.0
C      1  0.5092450000000  0.5041800000000  0.5431490000000 1.0
C      1  0.4649820000000  0.5046110000000  0.5198020000000 1.0
C      1  0.4676990000000  0.5061470000000  0.4695790000000 1.0
C      1  0.5258950000000  0.4982980000000  0.4612090000000 1.0
C      1  0.4255940000000  0.4896520000000  0.4581280000000 1.0
C      1  0.4456870000000  0.4808540000000  0.5515360000000 1.0
C      1  0.5352200000000  0.4917410000000  0.5828210000000 1.0
C      1  0.5836630000000  0.4826840000000  0.4940350000000 1.0
C      1  0.5116480000000  0.4852820000000  0.4215270000000 1.0
C      1  0.4330480000000  0.5037070000000  0.5399990000000 1.0
C      1  0.4437630000000  0.5103340000000  0.4500300000000 1.0
C      1  0.5290780000000  0.5074120000000  0.4239850000000 1.0
C      1  0.5843610000000  0.5061280000000  0.5103310000000 1.0
C      1  0.5145120000000  0.5099870000000  0.5736720000000 1.0
C      1  0.5707590000000  0.4898360000000  0.4678350000000 1.0
C      1  0.5598530000000  0.4984440000000  0.5620140000000 1.0
C      1  0.4835040000000  0.4915770000000  0.4273540000000 1.0
C      1  0.4238040000000  0.4900140000000  0.4884120000000 1.0
C      1  0.4700120000000  0.4879470000000  0.5675250000000 1.0
C      1  0.5076750000000  0.4900980000000  0.4834230000000 1.0
END
