TITL C-3578207-9274-86 -1.68671148725321e-06 125000 -1220.10835245605 0 0 194 (C1) n - 1
REM
REM in /home/bkarasulu/work/CARBON/AIRSS/Generating-Clusters/EDIP-Nigel-Params/with-SteepDescent/Higher-Symm/SD-CG/HFTN-CG
REM
REM
REM
REM
REM
REM ./C.cell (12c818d87b63d06a65506943cc24bca4)
REM
REM compiler GCC version 9.2.1 20190827 (Red Hat 9.2.1-1)
REM options -cpp -mtune=generic -march=x86-64 -g -O0 -fpre-include=/usr/include/finclude/math-vector-fortran.h
REM seed -471662533 -612618264 494395062 1463937668 -258534571 2042799655 399790168 -459690546 2039169004 -992607360 -1789647432 1366900224 1314013 637383052 972279429 475225146 -464168494 1376782628 1945207377 1243844807 2045837269 -1994072533 -778362680 -1508638224 1935926966 -1364757493 1018986771 1930319093 1378948027 1833970641 -1648290055 1037259926 -1043961146
REM
CELL 1.54180   50.00000   50.00000   50.00000   90.00000   90.00000   90.00000
LATT -1
SFAC C  
C      1  0.5754290000000  0.4015190000000  0.5109610000000 1.0
C      1  0.4565230000000  0.4088260000000  0.5587110000000 1.0
C      1  0.4761500000000  0.3996940000000  0.4268650000000 1.0
C      1  0.5719190000000  0.5942920000000  0.5148500000000 1.0
C      1  0.4520450000000  0.5893660000000  0.5579810000000 1.0
C      1  0.4764480000000  0.5926770000000  0.4293170000000 1.0
C      1  0.5718960000000  0.4072450000000  0.4820840000000 1.0
C      1  0.4520180000000  0.4008790000000  0.4442620000000 1.0
C      1  0.4819750000000  0.4060480000000  0.5729550000000 1.0
C      1  0.5666360000000  0.5825570000000  0.4877920000000 1.0
C      1  0.4496790000000  0.5982650000000  0.4429910000000 1.0
C      1  0.4785570000000  0.5896910000000  0.5730300000000 1.0
C      1  0.4260180000000  0.6008780000000  0.4860500000000 1.0
C      1  0.5540550000000  0.5989740000000  0.4462030000000 1.0
C      1  0.5223500000000  0.5971300000000  0.5721150000000 1.0
C      1  0.4270750000000  0.3952390000000  0.4874990000000 1.0
C      1  0.5508350000000  0.4000130000000  0.4422250000000 1.0
C      1  0.5279400000000  0.4075550000000  0.5661110000000 1.0
C      1  0.4263920000000  0.5984890000000  0.5174670000000 1.0
C      1  0.5470710000000  0.5960710000000  0.5562410000000 1.0
C      1  0.5249880000000  0.5984460000000  0.4296020000000 1.0
C      1  0.4289300000000  0.3988250000000  0.5188190000000 1.0
C      1  0.5536890000000  0.4042730000000  0.5517730000000 1.0
C      1  0.5240270000000  0.4062130000000  0.4308290000000 1.0
C      1  0.5594170000000  0.5689970000000  0.5553250000000 1.0
C      1  0.4221510000000  0.5706220000000  0.5290030000000 1.0
C      1  0.5328590000000  0.5692010000000  0.4342540000000 1.0
C      1  0.5728040000000  0.4277320000000  0.5535640000000 1.0
C      1  0.4186560000000  0.4257320000000  0.5312070000000 1.0
C      1  0.5249710000000  0.4357060000000  0.4383860000000 1.0
C      1  0.5751850000000  0.5754780000000  0.4450170000000 1.0
C      1  0.4163920000000  0.5773540000000  0.4702660000000 1.0
C      1  0.5173600000000  0.5729710000000  0.5874930000000 1.0
C      1  0.5712430000000  0.4233080000000  0.4351910000000 1.0
C      1  0.4096630000000  0.4169330000000  0.4731770000000 1.0
C      1  0.5228150000000  0.4278130000000  0.5860170000000 1.0
C      1  0.4316340000000  0.4822380000000  0.4668810000000 1.0
C      1  0.5539380000000  0.4839020000000  0.4553300000000 1.0
C      1  0.5132880000000  0.4883470000000  0.5761370000000 1.0
C      1  0.4280880000000  0.5083160000000  0.4808360000000 1.0
C      1  0.5527490000000  0.5138760000000  0.4481260000000 1.0
C      1  0.5235610000000  0.5159370000000  0.5762380000000 1.0
C      1  0.4364530000000  0.4841770000000  0.5245670000000 1.0
C      1  0.5548500000000  0.4956310000000  0.5365350000000 1.0
C      1  0.5184970000000  0.4883220000000  0.4414640000000 1.0
C      1  0.4345620000000  0.5114500000000  0.5106790000000 1.0
C      1  0.5465100000000  0.5214500000000  0.5576420000000 1.0
C      1  0.5254700000000  0.5215640000000  0.4378250000000 1.0
C      1  0.4044040000000  0.4639270000000  0.5550710000000 1.0
C      1  0.4942380000000  0.4625880000000  0.3987370000000 1.0
C      1  0.5996540000000  0.4744820000000  0.5515180000000 1.0
C      1  0.4099980000000  0.5365370000000  0.5547120000000 1.0
C      1  0.5056810000000  0.5341490000000  0.3942920000000 1.0
C      1  0.5951460000000  0.5278670000000  0.5589570000000 1.0
C      1  0.4008670000000  0.4534420000000  0.4435540000000 1.0
C      1  0.4984660000000  0.4572350000000  0.6088280000000 1.0
C      1  0.5987640000000  0.4609900000000  0.4460160000000 1.0
C      1  0.4125190000000  0.5399480000000  0.4411840000000 1.0
C      1  0.4996250000000  0.5393470000000  0.6153130000000 1.0
C      1  0.6011100000000  0.5244510000000  0.4484790000000 1.0
C      1  0.4748460000000  0.5280570000000  0.6036840000000 1.0
C      1  0.4272670000000  0.5254460000000  0.4216920000000 1.0
C      1  0.6011770000000  0.5270140000000  0.4762700000000 1.0
C      1  0.4760330000000  0.4757120000000  0.6048680000000 1.0
C      1  0.4162450000000  0.4658120000000  0.4223270000000 1.0
C      1  0.6027240000000  0.4702790000000  0.4731530000000 1.0
C      1  0.4803160000000  0.5200910000000  0.3975400000000 1.0
C      1  0.4309980000000  0.5278460000000  0.5729100000000 1.0
C      1  0.5991150000000  0.5275200000000  0.5313190000000 1.0
C      1  0.4660120000000  0.4684800000000  0.3976460000000 1.0
C      1  0.4246310000000  0.4778980000000  0.5709670000000 1.0
C      1  0.6020010000000  0.4707420000000  0.5241360000000 1.0
C      1  0.4126220000000  0.5299260000000  0.4687040000000 1.0
C      1  0.5765810000000  0.5258390000000  0.4348560000000 1.0
C      1  0.5260140000000  0.5300330000000  0.6027240000000 1.0
C      1  0.4068290000000  0.4654900000000  0.4698180000000 1.0
C      1  0.5733760000000  0.4717500000000  0.4341430000000 1.0
C      1  0.5234170000000  0.4709790000000  0.5980630000000 1.0
C      1  0.4114800000000  0.5273780000000  0.5252300000000 1.0
C      1  0.5715550000000  0.5282710000000  0.5739810000000 1.0
C      1  0.5298290000000  0.5295730000000  0.4089830000000 1.0
C      1  0.4083380000000  0.4707680000000  0.5264400000000 1.0
C      1  0.5718820000000  0.4776310000000  0.5560800000000 1.0
C      1  0.5173970000000  0.4742310000000  0.4133420000000 1.0
C      1  0.4577880000000  0.5512450000000  0.6055510000000 1.0
C      1  0.4358110000000  0.5397340000000  0.3996230000000 1.0
C      1  0.6003750000000  0.5539510000000  0.4871080000000 1.0
C      1  0.4516160000000  0.4629280000000  0.6072830000000 1.0
C      1  0.4271890000000  0.4422290000000  0.4095860000000 1.0
C      1  0.6101420000000  0.4452750000000  0.4862840000000 1.0
C      1  0.4623190000000  0.5435000000000  0.3915320000000 1.0
C      1  0.4351800000000  0.5525600000000  0.5877740000000 1.0
C      1  0.6021070000000  0.5542750000000  0.5181420000000 1.0
C      1  0.4522110000000  0.4417650000000  0.3953220000000 1.0
C      1  0.4327200000000  0.4566080000000  0.5885160000000 1.0
C      1  0.6098420000000  0.4435200000000  0.5154250000000 1.0
C      1  0.5005370000000  0.5872160000000  0.5307740000000 1.0
C      1  0.4725440000000  0.5861820000000  0.4841150000000 1.0
C      1  0.5223470000000  0.5901550000000  0.4859360000000 1.0
C      1  0.5001460000000  0.4210870000000  0.5291000000000 1.0
C      1  0.4708830000000  0.4146410000000  0.4843860000000 1.0
C      1  0.5260620000000  0.4174370000000  0.4817480000000 1.0
C      1  0.4981350000000  0.5966090000000  0.4720170000000 1.0
C      1  0.4723340000000  0.5844050000000  0.5162500000000 1.0
C      1  0.5213290000000  0.5989080000000  0.5139510000000 1.0
C      1  0.4975170000000  0.4149800000000  0.4683890000000 1.0
C      1  0.4724020000000  0.4164780000000  0.5153900000000 1.0
C      1  0.5270060000000  0.4186330000000  0.5127620000000 1.0
C      1  0.4994670000000  0.6043240000000  0.4437190000000 1.0
C      1  0.5468310000000  0.6052300000000  0.5277550000000 1.0
C      1  0.4527270000000  0.6029050000000  0.5306090000000 1.0
C      1  0.4998220000000  0.3956050000000  0.4445790000000 1.0
C      1  0.5482270000000  0.3973360000000  0.5232490000000 1.0
C      1  0.4562150000000  0.3955390000000  0.5309280000000 1.0
C      1  0.4986730000000  0.6027540000000  0.5563550000000 1.0
C      1  0.5478980000000  0.6015410000000  0.4745100000000 1.0
C      1  0.4520380000000  0.6052390000000  0.4723090000000 1.0
C      1  0.5027940000000  0.4012670000000  0.5525700000000 1.0
C      1  0.5467290000000  0.3967770000000  0.4716590000000 1.0
C      1  0.4540760000000  0.3917470000000  0.4732650000000 1.0
C      1  0.4880590000000  0.5055210000000  0.5258100000000 1.0
C      1  0.4796150000000  0.5349550000000  0.4906180000000 1.0
C      1  0.5188060000000  0.5051860000000  0.4868950000000 1.0
C      1  0.4872430000000  0.4755580000000  0.5198280000000 1.0
C      1  0.4570480000000  0.4674520000000  0.4795190000000 1.0
C      1  0.5248180000000  0.4752630000000  0.4865160000000 1.0
C      1  0.4933470000000  0.5127120000000  0.4742250000000 1.0
C      1  0.4634520000000  0.5254730000000  0.5150870000000 1.0
C      1  0.5138090000000  0.5166390000000  0.5137150000000 1.0
C      1  0.4855500000000  0.4872860000000  0.4617040000000 1.0
C      1  0.4585990000000  0.4673080000000  0.5109380000000 1.0
C      1  0.5258930000000  0.4712400000000  0.5172590000000 1.0
C      1  0.5231050000000  0.5590190000000  0.4840320000000 1.0
C      1  0.5076810000000  0.5576930000000  0.5371930000000 1.0
C      1  0.4669660000000  0.5572170000000  0.4762630000000 1.0
C      1  0.5396400000000  0.4447060000000  0.4694540000000 1.0
C      1  0.4996180000000  0.4519170000000  0.5390270000000 1.0
C      1  0.4545620000000  0.4379900000000  0.4743510000000 1.0
C      1  0.5405460000000  0.5482440000000  0.5421230000000 1.0
C      1  0.5143340000000  0.5511350000000  0.4513180000000 1.0
C      1  0.4582610000000  0.5565010000000  0.5248500000000 1.0
C      1  0.5387450000000  0.4449380000000  0.5192350000000 1.0
C      1  0.4975630000000  0.4419070000000  0.4530720000000 1.0
C      1  0.4543830000000  0.4396700000000  0.5236450000000 1.0
C      1  0.4629120000000  0.4807830000000  0.4251070000000 1.0
C      1  0.5749720000000  0.4737840000000  0.5118840000000 1.0
C      1  0.4459430000000  0.4876740000000  0.5530230000000 1.0
C      1  0.4748510000000  0.5087910000000  0.4247310000000 1.0
C      1  0.5742020000000  0.5184510000000  0.5176620000000 1.0
C      1  0.4540040000000  0.5146650000000  0.5608420000000 1.0
C      1  0.4829560000000  0.4846900000000  0.5765580000000 1.0
C      1  0.5772540000000  0.4835180000000  0.4824060000000 1.0
C      1  0.4347010000000  0.4856810000000  0.4358450000000 1.0
C      1  0.4800550000000  0.5212310000000  0.5749010000000 1.0
C      1  0.5813340000000  0.5113650000000  0.4895720000000 1.0
C      1  0.4511560000000  0.5220690000000  0.4396240000000 1.0
C      1  0.5337120000000  0.4495980000000  0.4140560000000 1.0
C      1  0.5588750000000  0.4522500000000  0.5633960000000 1.0
C      1  0.4046340000000  0.4445020000000  0.5138300000000 1.0
C      1  0.5452890000000  0.5548440000000  0.4108520000000 1.0
C      1  0.5649530000000  0.5557770000000  0.5818720000000 1.0
C      1  0.4065950000000  0.5527090000000  0.5119600000000 1.0
C      1  0.5416980000000  0.4496870000000  0.5877620000000 1.0
C      1  0.5630560000000  0.4483320000000  0.4192450000000 1.0
C      1  0.4122740000000  0.4427550000000  0.4866910000000 1.0
C      1  0.5395510000000  0.5567830000000  0.5980480000000 1.0
C      1  0.5722700000000  0.5532080000000  0.4243620000000 1.0
C      1  0.4146700000000  0.5529690000000  0.4849140000000 1.0
C      1  0.4787310000000  0.4281390000000  0.4093100000000 1.0
C      1  0.5839580000000  0.4277980000000  0.5248500000000 1.0
C      1  0.4154230000000  0.4360360000000  0.5606390000000 1.0
C      1  0.4824360000000  0.5633720000000  0.4040800000000 1.0
C      1  0.5825160000000  0.5730110000000  0.5326550000000 1.0
C      1  0.4143010000000  0.5661250000000  0.5576870000000 1.0
C      1  0.4934030000000  0.4342830000000  0.5876020000000 1.0
C      1  0.5943530000000  0.4318020000000  0.4531260000000 1.0
C      1  0.4156410000000  0.4265750000000  0.4436430000000 1.0
C      1  0.4921710000000  0.5684550000000  0.6028120000000 1.0
C      1  0.5967230000000  0.5751610000000  0.4660360000000 1.0
C      1  0.4328300000000  0.5727030000000  0.4447180000000 1.0
C      1  0.5676520000000  0.4374840000000  0.4802250000000 1.0
C      1  0.4817230000000  0.4530160000000  0.5642010000000 1.0
C      1  0.4479870000000  0.4305290000000  0.4469750000000 1.0
C      1  0.5517080000000  0.5560780000000  0.4910390000000 1.0
C      1  0.4872730000000  0.5521560000000  0.5630890000000 1.0
C      1  0.4577960000000  0.5523280000000  0.4489370000000 1.0
C      1  0.5656250000000  0.4462480000000  0.5093070000000 1.0
C      1  0.4730960000000  0.4450230000000  0.4344650000000 1.0
C      1  0.4536050000000  0.4390670000000  0.5547360000000 1.0
C      1  0.5593720000000  0.5454730000000  0.5176200000000 1.0
C      1  0.4834380000000  0.5621710000000  0.4352850000000 1.0
C      1  0.4571930000000  0.5583320000000  0.5544410000000 1.0
C      1  0.5002540000000  0.4646790000000  0.4723770000000 1.0
C      1  0.5052650000000  0.5448910000000  0.5064790000000 1.0
END
