TITL C-3577084-3642-427 -1.5550588775326e-06 125000 -1131.62526193551 0 0 183 (C1) n - 1
REM
REM in /home/bkarasulu/work/CARBON/AIRSS/Generating-Clusters/EDIP-Nigel-Params/with-SteepDescent/Higher-Symm/SD-CG/HFTN-CG
REM
REM
REM
REM
REM
REM ./C.cell (12c818d87b63d06a65506943cc24bca4)
REM
REM compiler GCC version 9.2.1 20190827 (Red Hat 9.2.1-1)
REM options -cpp -mtune=generic -march=x86-64 -g -O0 -fpre-include=/usr/include/finclude/math-vector-fortran.h
REM seed 2051022264 -491780127 1412656119 266386736 1924930399 -1980100181 545734849 -1667823152 -657026788 -1912864039 395285095 -1423261551 513586029 -1038126815 -1241935796 2052057080 1552389845 -1169970265 -1869780736 1933946439 1171655601 -1183581975 -1348507839 -1253017798 1663729941 -1026277933 -2085227145 1289946588 -695966102 548820287 1755242710 1572027503 -1965570313
REM
CELL 1.54180   50.00000   50.00000   50.00000   90.00000   90.00000   90.00000
LATT -1
SFAC C  
C      1  0.6066310000000  0.5277480000000  0.5163620000000 1.0
C      1  0.6113170000000  0.4854210000000  0.4914050000000 1.0
C      1  0.6088850000000  0.4760000000000  0.5177840000000 1.0
C      1  0.6096230000000  0.5169490000000  0.4905170000000 1.0
C      1  0.4396190000000  0.4112540000000  0.5447990000000 1.0
C      1  0.4330840000000  0.5924270000000  0.4525410000000 1.0
C      1  0.4384830000000  0.5887150000000  0.5437120000000 1.0
C      1  0.4318960000000  0.4072440000000  0.4533930000000 1.0
C      1  0.4607630000000  0.5990300000000  0.4437390000000 1.0
C      1  0.4642710000000  0.4030460000000  0.5578760000000 1.0
C      1  0.4595650000000  0.4034380000000  0.4441700000000 1.0
C      1  0.4629050000000  0.5971870000000  0.5570320000000 1.0
C      1  0.3967710000000  0.5252690000000  0.4756190000000 1.0
C      1  0.3971880000000  0.4751480000000  0.5202030000000 1.0
C      1  0.3954780000000  0.4748090000000  0.4758710000000 1.0
C      1  0.3945050000000  0.5229830000000  0.5196180000000 1.0
C      1  0.4667370000000  0.4726170000000  0.4102410000000 1.0
C      1  0.4664390000000  0.5253900000000  0.5778820000000 1.0
C      1  0.4673900000000  0.5306410000000  0.4107000000000 1.0
C      1  0.4721090000000  0.4721970000000  0.5895240000000 1.0
C      1  0.5819460000000  0.5937570000000  0.5100140000000 1.0
C      1  0.5807990000000  0.4052850000000  0.4887670000000 1.0
C      1  0.5806340000000  0.4092730000000  0.5170840000000 1.0
C      1  0.5923590000000  0.5879630000000  0.4845270000000 1.0
C      1  0.4684250000000  0.5552930000000  0.4274800000000 1.0
C      1  0.4713280000000  0.4477960000000  0.5728580000000 1.0
C      1  0.4653810000000  0.4509360000000  0.4319770000000 1.0
C      1  0.4698420000000  0.5549240000000  0.5699090000000 1.0
C      1  0.5039610000000  0.4313930000000  0.4170460000000 1.0
C      1  0.5085050000000  0.5725310000000  0.5826420000000 1.0
C      1  0.5076740000000  0.5709730000000  0.4158220000000 1.0
C      1  0.5098070000000  0.4283930000000  0.5827590000000 1.0
C      1  0.5465010000000  0.4285130000000  0.5171440000000 1.0
C      1  0.5485600000000  0.5694080000000  0.4889160000000 1.0
C      1  0.5551140000000  0.5546500000000  0.5143970000000 1.0
C      1  0.5438050000000  0.4275080000000  0.4865350000000 1.0
C      1  0.5095450000000  0.5216280000000  0.3910240000000 1.0
C      1  0.5109490000000  0.4740880000000  0.6113430000000 1.0
C      1  0.5089750000000  0.4808440000000  0.3909500000000 1.0
C      1  0.5020640000000  0.5298730000000  0.6100550000000 1.0
C      1  0.5358690000000  0.6001580000000  0.5486450000000 1.0
C      1  0.5292710000000  0.3970000000000  0.4481390000000 1.0
C      1  0.5372640000000  0.3986940000000  0.5469880000000 1.0
C      1  0.5318270000000  0.6027540000000  0.4485850000000 1.0
C      1  0.4926160000000  0.5161380000000  0.4137180000000 1.0
C      1  0.4981910000000  0.4854670000000  0.5881470000000 1.0
C      1  0.4924640000000  0.4866690000000  0.4139960000000 1.0
C      1  0.4950760000000  0.5159620000000  0.5857940000000 1.0
C      1  0.5254810000000  0.3896650000000  0.4745700000000 1.0
C      1  0.5294190000000  0.6047940000000  0.5219420000000 1.0
C      1  0.5275580000000  0.6094200000000  0.4751260000000 1.0
C      1  0.5295520000000  0.3886930000000  0.5219630000000 1.0
C      1  0.5872070000000  0.4844110000000  0.4710440000000 1.0
C      1  0.5962010000000  0.5163320000000  0.5395960000000 1.0
C      1  0.5857470000000  0.5145870000000  0.4706540000000 1.0
C      1  0.5970450000000  0.4880280000000  0.5399900000000 1.0
C      1  0.5245870000000  0.4468710000000  0.5244470000000 1.0
C      1  0.5234980000000  0.5554900000000  0.4768500000000 1.0
C      1  0.5252910000000  0.5550550000000  0.5244000000000 1.0
C      1  0.5230370000000  0.4463860000000  0.4772410000000 1.0
C      1  0.5766960000000  0.4451710000000  0.5556560000000 1.0
C      1  0.5750430000000  0.5576900000000  0.4458640000000 1.0
C      1  0.5773380000000  0.5595510000000  0.5584180000000 1.0
C      1  0.5724340000000  0.4409850000000  0.4466720000000 1.0
C      1  0.5350670000000  0.4160190000000  0.5692140000000 1.0
C      1  0.5323160000000  0.5840870000000  0.4280970000000 1.0
C      1  0.5343070000000  0.5846550000000  0.5717830000000 1.0
C      1  0.5285910000000  0.4166120000000  0.4285040000000 1.0
C      1  0.4783980000000  0.5458810000000  0.5136650000000 1.0
C      1  0.4783740000000  0.4540280000000  0.4839780000000 1.0
C      1  0.4788290000000  0.4532800000000  0.5139850000000 1.0
C      1  0.4785280000000  0.5453660000000  0.4828480000000 1.0
C      1  0.5482270000000  0.5172050000000  0.5233710000000 1.0
C      1  0.5431440000000  0.4858080000000  0.4732190000000 1.0
C      1  0.5462970000000  0.4869790000000  0.5240350000000 1.0
C      1  0.5416030000000  0.5151920000000  0.4734170000000 1.0
C      1  0.4305100000000  0.5558000000000  0.5251060000000 1.0
C      1  0.4271320000000  0.4281210000000  0.4734810000000 1.0
C      1  0.4307870000000  0.4438190000000  0.5257940000000 1.0
C      1  0.4266630000000  0.5706890000000  0.4725900000000 1.0
C      1  0.4778440000000  0.4027420000000  0.4675990000000 1.0
C      1  0.4834340000000  0.5998740000000  0.5362750000000 1.0
C      1  0.4787100000000  0.5995710000000  0.4671820000000 1.0
C      1  0.4849590000000  0.4006840000000  0.5372940000000 1.0
C      1  0.5475840000000  0.4858710000000  0.5541660000000 1.0
C      1  0.5384690000000  0.5175360000000  0.4431180000000 1.0
C      1  0.5476620000000  0.5182620000000  0.5551950000000 1.0
C      1  0.5383120000000  0.4845820000000  0.4417800000000 1.0
C      1  0.4524020000000  0.5324720000000  0.5231120000000 1.0
C      1  0.4507460000000  0.4467560000000  0.4734670000000 1.0
C      1  0.4534080000000  0.4666710000000  0.5222190000000 1.0
C      1  0.4500190000000  0.5519910000000  0.4737950000000 1.0
C      1  0.4395030000000  0.4727740000000  0.4745240000000 1.0
C      1  0.4457610000000  0.5136250000000  0.5000040000000 1.0
C      1  0.4406230000000  0.5246450000000  0.4733450000000 1.0
C      1  0.4464530000000  0.4853800000000  0.4998040000000 1.0
C      1  0.5528650000000  0.5633780000000  0.4272040000000 1.0
C      1  0.5542240000000  0.4377500000000  0.5727930000000 1.0
C      1  0.5490320000000  0.4373140000000  0.4287570000000 1.0
C      1  0.5548350000000  0.5644080000000  0.5769540000000 1.0
C      1  0.5041700000000  0.5249960000000  0.4403910000000 1.0
C      1  0.5115310000000  0.4757840000000  0.5621240000000 1.0
C      1  0.5061040000000  0.4771850000000  0.4406260000000 1.0
C      1  0.5111020000000  0.5265290000000  0.5616580000000 1.0
C      1  0.4988920000000  0.4476420000000  0.5605860000000 1.0
C      1  0.4965860000000  0.5541520000000  0.4402860000000 1.0
C      1  0.4979570000000  0.5545530000000  0.5595170000000 1.0
C      1  0.4955790000000  0.4488150000000  0.4413470000000 1.0
C      1  0.5832230000000  0.5157950000000  0.5873200000000 1.0
C      1  0.5816530000000  0.4845790000000  0.4201920000000 1.0
C      1  0.5836300000000  0.4861720000000  0.5867040000000 1.0
C      1  0.5833060000000  0.5141090000000  0.4200180000000 1.0
C      1  0.5443850000000  0.5422470000000  0.5926270000000 1.0
C      1  0.5440940000000  0.4567880000000  0.4079870000000 1.0
C      1  0.5479570000000  0.4553180000000  0.5949960000000 1.0
C      1  0.5465760000000  0.5429790000000  0.4078650000000 1.0
C      1  0.5185020000000  0.5506800000000  0.6019140000000 1.0
C      1  0.5174970000000  0.4536320000000  0.3973650000000 1.0
C      1  0.5215060000000  0.4488380000000  0.6039240000000 1.0
C      1  0.5204350000000  0.5478150000000  0.3969290000000 1.0
C      1  0.4303150000000  0.5931100000000  0.4909580000000 1.0
C      1  0.4419670000000  0.4167580000000  0.5164000000000 1.0
C      1  0.4306400000000  0.4063730000000  0.4922500000000 1.0
C      1  0.4414420000000  0.5827560000000  0.5153170000000 1.0
C      1  0.4203200000000  0.5268070000000  0.4343650000000 1.0
C      1  0.4314100000000  0.4700390000000  0.5609410000000 1.0
C      1  0.4174490000000  0.4738480000000  0.4322170000000 1.0
C      1  0.4230720000000  0.5197090000000  0.5621330000000 1.0
C      1  0.4211610000000  0.5239620000000  0.5901350000000 1.0
C      1  0.4177260000000  0.4768660000000  0.4039430000000 1.0
C      1  0.4255170000000  0.4722670000000  0.5887040000000 1.0
C      1  0.4197680000000  0.5295490000000  0.4061950000000 1.0
C      1  0.4088010000000  0.4756800000000  0.5455210000000 1.0
C      1  0.3975760000000  0.5156690000000  0.4485480000000 1.0
C      1  0.4002760000000  0.5193290000000  0.5464440000000 1.0
C      1  0.3953650000000  0.4855590000000  0.4480900000000 1.0
C      1  0.5738830000000  0.5699670000000  0.4731920000000 1.0
C      1  0.5751570000000  0.4364370000000  0.5270530000000 1.0
C      1  0.5712860000000  0.4301460000000  0.4748480000000 1.0
C      1  0.5741190000000  0.5717640000000  0.5295190000000 1.0
C      1  0.5190570000000  0.5274770000000  0.4859810000000 1.0
C      1  0.5209660000000  0.4748040000000  0.5164780000000 1.0
C      1  0.5196250000000  0.4744520000000  0.4858420000000 1.0
C      1  0.5205860000000  0.5266750000000  0.5158920000000 1.0
C      1  0.4443380000000  0.5172720000000  0.3990600000000 1.0
C      1  0.4480050000000  0.4857740000000  0.5988600000000 1.0
C      1  0.4436210000000  0.4877660000000  0.3995090000000 1.0
C      1  0.4468830000000  0.5159150000000  0.5990840000000 1.0
C      1  0.4973960000000  0.4360250000000  0.4691110000000 1.0
C      1  0.4971030000000  0.5641730000000  0.5301390000000 1.0
C      1  0.4969460000000  0.5655560000000  0.4688810000000 1.0
C      1  0.4978200000000  0.4367070000000  0.5311300000000 1.0
C      1  0.4035960000000  0.4483830000000  0.5108960000000 1.0
C      1  0.4015770000000  0.5536500000000  0.4823800000000 1.0
C      1  0.4032920000000  0.5500350000000  0.5118120000000 1.0
C      1  0.4012400000000  0.4456150000000  0.4814730000000 1.0
C      1  0.4710780000000  0.5838770000000  0.4198720000000 1.0
C      1  0.4724670000000  0.4190200000000  0.5814690000000 1.0
C      1  0.4674290000000  0.4212960000000  0.4214080000000 1.0
C      1  0.4709370000000  0.5821870000000  0.5812920000000 1.0
C      1  0.5019480000000  0.6041760000000  0.5144480000000 1.0
C      1  0.4995200000000  0.3952410000000  0.4855890000000 1.0
C      1  0.5025760000000  0.3960750000000  0.5149280000000 1.0
C      1  0.5004910000000  0.6061770000000  0.4851380000000 1.0
C      1  0.4518090000000  0.5112640000000  0.4472150000000 1.0
C      1  0.4586480000000  0.4825490000000  0.5489620000000 1.0
C      1  0.4439690000000  0.4803370000000  0.4459920000000 1.0
C      1  0.4515010000000  0.5142900000000  0.5512590000000 1.0
C      1  0.5590550000000  0.5192740000000  0.6028190000000 1.0
C      1  0.5585160000000  0.4814060000000  0.4033530000000 1.0
C      1  0.5601100000000  0.4809830000000  0.6023240000000 1.0
C      1  0.5620450000000  0.5194460000000  0.4010650000000 1.0
C      1  0.5776310000000  0.5282440000000  0.5600880000000 1.0
C      1  0.5744090000000  0.4716330000000  0.4463830000000 1.0
C      1  0.5777600000000  0.4755880000000  0.5591970000000 1.0
C      1  0.5735300000000  0.5270070000000  0.4454750000000 1.0
C      1  0.5005320000000  0.5151520000000  0.5361200000000 1.0
C      1  0.4929610000000  0.4848980000000  0.4697020000000 1.0
C      1  0.4955860000000  0.4864350000000  0.5374710000000 1.0
C      1  0.4830050000000  0.5154020000000  0.4631690000000 1.0
C      1  0.5464270000000  0.6000440000000  0.4974670000000 1.0
C      1  0.5461940000000  0.3899600000000  0.4965690000000 1.0
C      1  0.4043510000000  0.4990550000000  0.5016450000000 1.0
END
