TITL C-3578202-4305-545 -1.12760088029464e-06 125000 -180.816027669351 0 0 31 (C2h) n - 1
REM
REM in /home/bkarasulu/work/CARBON/AIRSS/Generating-Clusters/EDIP-Nigel-Params/with-SteepDescent/Higher-Symm/SD-CG/HFTN-CG
REM
REM
REM
REM
REM
REM ./C.cell (12c818d87b63d06a65506943cc24bca4)
REM
REM compiler GCC version 9.2.1 20190827 (Red Hat 9.2.1-1)
REM options -cpp -mtune=generic -march=x86-64 -g -O0 -fpre-include=/usr/include/finclude/math-vector-fortran.h
REM seed 1304630366 2118095972 -491412108 -358408746 -1868708768 970884251 1835202654 -1820834608 249092009 -770693521 912653467 -1434970002 1816686585 2031554262 -1322692708 855103967 1762457451 -1570645642 -1833731109 380188790 2081814922 -1274661029 1136441626 -879796055 -599555074 -704623697 -518954455 906647335 -2042918102 -418664981 900646917 -742827210 -713911909
REM
CELL 1.54180   50.00000   50.00000   50.00000   90.00000   90.00000   90.00000
LATT -1
SFAC C  
C      1  0.5139820000000  0.5076780000000  0.4493540000000 1.0
C      1  0.4867350000000  0.4924310000000  0.4493560000000 1.0
C      1  0.5140190000000  0.5076280000000  0.5501710000000 1.0
C      1  0.4867730000000  0.4923810000000  0.5501740000000 1.0
C      1  0.5624540000000  0.4668840000000  0.4729880000000 1.0
C      1  0.4382800000000  0.5332020000000  0.4730670000000 1.0
C      1  0.5624750000000  0.4668580000000  0.5264600000000 1.0
C      1  0.4383000000000  0.5331750000000  0.5265400000000 1.0
C      1  0.4830640000000  0.5484200000000  0.4627740000000 1.0
C      1  0.5176630000000  0.4516750000000  0.4627130000000 1.0
C      1  0.4830920000000  0.5483840000000  0.5368150000000 1.0
C      1  0.5176910000000  0.4516390000000  0.5367540000000 1.0
C      1  0.4506010000000  0.5106820000000  0.4848490000000 1.0
C      1  0.5501420000000  0.4893920000000  0.4848010000000 1.0
C      1  0.4506120000000  0.5106670000000  0.5147260000000 1.0
C      1  0.5501530000000  0.4893770000000  0.5146780000000 1.0
C      1  0.5051090000000  0.5340450000000  0.4550860000000 1.0
C      1  0.4956120000000  0.4660580000000  0.4550570000000 1.0
C      1  0.5051420000000  0.5340010000000  0.5444710000000 1.0
C      1  0.4956460000000  0.4660140000000  0.5444410000000 1.0
C      1  0.4791730000000  0.5090370000000  0.4754610000000 1.0
C      1  0.5215630000000  0.4910460000000  0.4754360000000 1.0
C      1  0.4791920000000  0.5090130000000  0.5240910000000 1.0
C      1  0.5215810000000  0.4910220000000  0.5240660000000 1.0
C      1  0.5426980000000  0.4466940000000  0.5245580000000 1.0
C      1  0.4580750000000  0.5533410000000  0.5246420000000 1.0
C      1  0.5426790000000  0.4467180000000  0.4748850000000 1.0
C      1  0.4580560000000  0.5533660000000  0.4749700000000 1.0
C      1  0.5418180000000  0.4338340000000  0.4997160000000 1.0
C      1  0.4589360000000  0.5662250000000  0.4998120000000 1.0
C      1  0.5003770000000  0.5000300000000  0.4997640000000 1.0
END
