TITL C-3578203-1966-724 -1.67604707615856e-06 125000 -548.130367422955 0 0 90 (C1) n - 1
REM
REM in /home/bkarasulu/work/CARBON/AIRSS/Generating-Clusters/EDIP-Nigel-Params/with-SteepDescent/Higher-Symm/SD-CG/HFTN-CG
REM
REM
REM
REM
REM
REM ./C.cell (12c818d87b63d06a65506943cc24bca4)
REM
REM compiler GCC version 9.2.1 20190827 (Red Hat 9.2.1-1)
REM options -cpp -mtune=generic -march=x86-64 -g -O0 -fpre-include=/usr/include/finclude/math-vector-fortran.h
REM seed -1933083521 96244340 -1194452119 1284757364 239614945 905482189 -1919846638 1832201871 -346789578 1481759883 1973255164 -198688248 313758524 -996601235 1210040808 -4377155 1756208037 2084919323 130339907 1594057538 -1757954110 -1710051389 -585065878 1127170476 2049197611 -37753486 -523012604 666049883 1321345868 1905727650 -87793927 1399016232 -754611881
REM
CELL 1.54180   50.00000   50.00000   50.00000   90.00000   90.00000   90.00000
LATT -1
SFAC C  
C      1  0.5662000000000  0.4409400000000  0.4435240000000 1.0
C      1  0.4296100000000  0.4467340000000  0.4681320000000 1.0
C      1  0.5125030000000  0.4462060000000  0.5799070000000 1.0
C      1  0.4287760000000  0.4489270000000  0.4412500000000 1.0
C      1  0.5758820000000  0.4396000000000  0.4685390000000 1.0
C      1  0.4882620000000  0.4473830000000  0.5912800000000 1.0
C      1  0.4872660000000  0.4203800000000  0.5256570000000 1.0
C      1  0.5280060000000  0.4201380000000  0.5000930000000 1.0
C      1  0.4853120000000  0.4212760000000  0.4768480000000 1.0
C      1  0.5142490000000  0.4115350000000  0.5235040000000 1.0
C      1  0.4735260000000  0.4136070000000  0.5016230000000 1.0
C      1  0.5126020000000  0.4131400000000  0.4771570000000 1.0
C      1  0.4123740000000  0.4955170000000  0.5292170000000 1.0
C      1  0.5699450000000  0.5009410000000  0.5581810000000 1.0
C      1  0.5219210000000  0.4977470000000  0.4127060000000 1.0
C      1  0.5871720000000  0.4987370000000  0.5240610000000 1.0
C      1  0.4299370000000  0.4964950000000  0.5626420000000 1.0
C      1  0.4839820000000  0.5000340000000  0.4098170000000 1.0
C      1  0.4742000000000  0.4747830000000  0.5494550000000 1.0
C      1  0.5526130000000  0.4741650000000  0.4994620000000 1.0
C      1  0.4720720000000  0.4766120000000  0.4551780000000 1.0
C      1  0.5273480000000  0.4782010000000  0.5435180000000 1.0
C      1  0.4508310000000  0.4772720000000  0.5026540000000 1.0
C      1  0.5257490000000  0.4777480000000  0.4571980000000 1.0
C      1  0.5261870000000  0.5585320000000  0.4523270000000 1.0
C      1  0.4470300000000  0.5546200000000  0.5030500000000 1.0
C      1  0.5247510000000  0.5569510000000  0.5474040000000 1.0
C      1  0.4751160000000  0.5600480000000  0.4497290000000 1.0
C      1  0.5506910000000  0.5574170000000  0.5014130000000 1.0
C      1  0.4734820000000  0.5545510000000  0.5482780000000 1.0
C      1  0.5167730000000  0.5053030000000  0.4713170000000 1.0
C      1  0.4651950000000  0.5047990000000  0.5012140000000 1.0
C      1  0.5160440000000  0.5052690000000  0.5326730000000 1.0
C      1  0.4799490000000  0.5046180000000  0.4710990000000 1.0
C      1  0.5342150000000  0.5037840000000  0.4986110000000 1.0
C      1  0.4835660000000  0.5031320000000  0.5356270000000 1.0
C      1  0.4624890000000  0.5267880000000  0.5425850000000 1.0
C      1  0.5518010000000  0.5289330000000  0.5109760000000 1.0
C      1  0.4832290000000  0.5306330000000  0.4474490000000 1.0
C      1  0.5358540000000  0.5294580000000  0.5408440000000 1.0
C      1  0.4458340000000  0.5270010000000  0.5141330000000 1.0
C      1  0.5163140000000  0.5300860000000  0.4486970000000 1.0
C      1  0.4869650000000  0.4510100000000  0.5279480000000 1.0
C      1  0.5300100000000  0.4509370000000  0.5003660000000 1.0
C      1  0.4849040000000  0.4519560000000  0.4755780000000 1.0
C      1  0.5158150000000  0.4579980000000  0.5253360000000 1.0
C      1  0.4730620000000  0.4581630000000  0.5024800000000 1.0
C      1  0.5142370000000  0.4577480000000  0.4758660000000 1.0
C      1  0.5747650000000  0.4889490000000  0.4386710000000 1.0
C      1  0.4250890000000  0.4976470000000  0.4670350000000 1.0
C      1  0.5118190000000  0.4968840000000  0.5847460000000 1.0
C      1  0.4280710000000  0.4975720000000  0.4378390000000 1.0
C      1  0.5873440000000  0.4877000000000  0.4650600000000 1.0
C      1  0.4840110000000  0.4959760000000  0.5945940000000 1.0
C      1  0.5606230000000  0.5740120000000  0.5219100000000 1.0
C      1  0.4864000000000  0.5750270000000  0.4286720000000 1.0
C      1  0.4513790000000  0.5735520000000  0.5468600000000 1.0
C      1  0.4375120000000  0.5724160000000  0.5228370000000 1.0
C      1  0.5133820000000  0.5772630000000  0.4345190000000 1.0
C      1  0.5465670000000  0.5760630000000  0.5457160000000 1.0
C      1  0.5509750000000  0.5214720000000  0.5652580000000 1.0
C      1  0.5350630000000  0.5189360000000  0.4280450000000 1.0
C      1  0.4172840000000  0.5180210000000  0.5116990000000 1.0
C      1  0.4475150000000  0.5189500000000  0.5675600000000 1.0
C      1  0.4697980000000  0.5218080000000  0.4219740000000 1.0
C      1  0.5794740000000  0.5192360000000  0.5045620000000 1.0
C      1  0.5560270000000  0.4668030000000  0.4397750000000 1.0
C      1  0.4346650000000  0.4726450000000  0.4785940000000 1.0
C      1  0.5190930000000  0.4723310000000  0.5709800000000 1.0
C      1  0.4429800000000  0.4725030000000  0.4351220000000 1.0
C      1  0.5745400000000  0.4655160000000  0.4797880000000 1.0
C      1  0.4758000000000  0.4708240000000  0.5814020000000 1.0
C      1  0.4440670000000  0.4733100000000  0.5506750000000 1.0
C      1  0.5707730000000  0.4743900000000  0.5229550000000 1.0
C      1  0.4860590000000  0.4765000000000  0.4277030000000 1.0
C      1  0.5566940000000  0.4770260000000  0.5475430000000 1.0
C      1  0.4314710000000  0.4734640000000  0.5250110000000 1.0
C      1  0.5144060000000  0.4748970000000  0.4293470000000 1.0
C      1  0.4748800000000  0.5598240000000  0.4990700000000 1.0
C      1  0.5137070000000  0.5745440000000  0.5247840000000 1.0
C      1  0.5130540000000  0.5759450000000  0.4735490000000 1.0
C      1  0.5231330000000  0.5643810000000  0.4989280000000 1.0
C      1  0.4833010000000  0.5720090000000  0.5245910000000 1.0
C      1  0.4834900000000  0.5722820000000  0.4746940000000 1.0
C      1  0.4419900000000  0.5177860000000  0.4244310000000 1.0
C      1  0.4646930000000  0.5157550000000  0.5896970000000 1.0
C      1  0.5795940000000  0.5133100000000  0.4755170000000 1.0
C      1  0.5612020000000  0.5142600000000  0.4411290000000 1.0
C      1  0.5326860000000  0.5158490000000  0.5860810000000 1.0
C      1  0.4107760000000  0.5145090000000  0.4844770000000 1.0
END
