TITL C-3577082-504-59 -2.74113352505595e-06 125000 -288.153845029274 0 0 49 (C1) n - 1
REM
REM in /home/bkarasulu/work/CARBON/AIRSS/Generating-Clusters/EDIP-Nigel-Params/with-SteepDescent/Higher-Symm/SD-CG/HFTN-CG
REM
REM
REM
REM
REM
REM ./C.cell (12c818d87b63d06a65506943cc24bca4)
REM
REM compiler GCC version 9.2.1 20190827 (Red Hat 9.2.1-1)
REM options -cpp -mtune=generic -march=x86-64 -g -O0 -fpre-include=/usr/include/finclude/math-vector-fortran.h
REM seed -2041547210 351844839 -551921713 -1743926570 -821398005 -1299380992 -1247877924 1239059805 600308019 -738977071 -228807791 -2109718247 -2107010209 -2012549982 -400515545 -946804789 -664108232 -346732063 266578410 -183449245 -2130743010 -1153217907 -721294533 -1821490725 2048967206 -1545165284 -1521063110 -154805242 -1796879782 282198575 335020962 1698151175 -1251834834
REM
CELL 1.54180   50.00000   50.00000   50.00000   90.00000   90.00000   90.00000
LATT -1
SFAC C  
C      1  0.5629980000000  0.5452390000000  0.5118430000000 1.0
C      1  0.5109150000000  0.5498730000000  0.4565090000000 1.0
C      1  0.4457870000000  0.5375600000000  0.4961990000000 1.0
C      1  0.5006050000000  0.5417750000000  0.5467170000000 1.0
C      1  0.4588360000000  0.5411750000000  0.5233030000000 1.0
C      1  0.4842470000000  0.5358920000000  0.4581380000000 1.0
C      1  0.5559900000000  0.5487150000000  0.4823000000000 1.0
C      1  0.5308980000000  0.5417900000000  0.5476450000000 1.0
C      1  0.5401020000000  0.5134260000000  0.5453420000000 1.0
C      1  0.5500980000000  0.5201530000000  0.4597820000000 1.0
C      1  0.4409880000000  0.4947180000000  0.4671770000000 1.0
C      1  0.4612080000000  0.5143670000000  0.5388310000000 1.0
C      1  0.4882500000000  0.5145370000000  0.5539790000000 1.0
C      1  0.4384620000000  0.5075040000000  0.4948910000000 1.0
C      1  0.5312960000000  0.5343800000000  0.4438120000000 1.0
C      1  0.5554600000000  0.5165670000000  0.5191420000000 1.0
C      1  0.4209570000000  0.4620450000000  0.4976400000000 1.0
C      1  0.4964220000000  0.4686370000000  0.5770630000000 1.0
C      1  0.5750790000000  0.4670690000000  0.5024820000000 1.0
C      1  0.4976480000000  0.4612780000000  0.4230100000000 1.0
C      1  0.5665350000000  0.4713610000000  0.5292480000000 1.0
C      1  0.4706130000000  0.4761630000000  0.5675270000000 1.0
C      1  0.4279050000000  0.4674910000000  0.4689300000000 1.0
C      1  0.5239690000000  0.4676560000000  0.4312200000000 1.0
C      1  0.5252830000000  0.4527620000000  0.4567440000000 1.0
C      1  0.4533020000000  0.4465180000000  0.4731230000000 1.0
C      1  0.4691010000000  0.4579490000000  0.5439010000000 1.0
C      1  0.5412980000000  0.4559080000000  0.5290210000000 1.0
C      1  0.4960530000000  0.4468730000000  0.4487490000000 1.0
C      1  0.5496610000000  0.4524080000000  0.4993080000000 1.0
C      1  0.4980710000000  0.4525730000000  0.5523080000000 1.0
C      1  0.4468980000000  0.4486570000000  0.5029050000000 1.0
C      1  0.5283660000000  0.4672650000000  0.4825250000000 1.0
C      1  0.4680860000000  0.4664130000000  0.5153160000000 1.0
C      1  0.4785350000000  0.4613970000000  0.4689990000000 1.0
C      1  0.5139070000000  0.4675140000000  0.5311730000000 1.0
C      1  0.4702260000000  0.4886470000000  0.4593980000000 1.0
C      1  0.5131850000000  0.4985050000000  0.5400830000000 1.0
C      1  0.4609120000000  0.4972200000000  0.5128650000000 1.0
C      1  0.5373180000000  0.4971270000000  0.4767510000000 1.0
C      1  0.5261200000000  0.5497450000000  0.4820790000000 1.0
C      1  0.4645640000000  0.5457710000000  0.4761430000000 1.0
C      1  0.4881220000000  0.5457890000000  0.5197080000000 1.0
C      1  0.5449270000000  0.5587610000000  0.5293760000000 1.0
C      1  0.4826700000000  0.5134610000000  0.4983850000000 1.0
C      1  0.5079120000000  0.5127100000000  0.5141650000000 1.0
C      1  0.5324160000000  0.5160970000000  0.4992350000000 1.0
C      1  0.4889600000000  0.5090920000000  0.4690890000000 1.0
C      1  0.4995960000000  0.4645060000000  0.5018050000000 1.0
END
