TITL C-3577088-510-7 1.33896629233672e-06 125000 -726.081374137224 0 0 116 (C1) n - 1
REM
REM in /home/bkarasulu/work/CARBON/AIRSS/Generating-Clusters/EDIP-Nigel-Params/with-SteepDescent/Higher-Symm/SD-CG/HFTN-CG
REM
REM
REM
REM
REM
REM ./C.cell (12c818d87b63d06a65506943cc24bca4)
REM
REM compiler GCC version 9.2.1 20190827 (Red Hat 9.2.1-1)
REM options -cpp -mtune=generic -march=x86-64 -g -O0 -fpre-include=/usr/include/finclude/math-vector-fortran.h
REM seed -1246132177 -1595003522 1353139223 204652419 1173859171 1846441092 -1812024712 -1609554291 1564594012 266910492 1485389516 645252751 956044650 1499772558 1664956380 269679464 243028477 -733654264 -1390694187 455692575 2045713301 37942512 806434396 338625488 -882562918 1716955017 -279829108 -274968748 -1860651883 1997863231 -1121241394 -1792412560 1793286448
REM
CELL 1.54180   50.00000   50.00000   50.00000   90.00000   90.00000   90.00000
LATT -1
SFAC C  
C      1  0.5058130000000  0.5381240000000  0.5435760000000 1.0
C      1  0.4650390000000  0.5297490000000  0.5188430000000 1.0
C      1  0.4653420000000  0.4820390000000  0.5304000000000 1.0
C      1  0.4878310000000  0.4673520000000  0.5418400000000 1.0
C      1  0.5340710000000  0.4741870000000  0.5348040000000 1.0
C      1  0.5331630000000  0.5001460000000  0.5494790000000 1.0
C      1  0.4828830000000  0.5293240000000  0.4584830000000 1.0
C      1  0.5311320000000  0.5260970000000  0.4518180000000 1.0
C      1  0.5376400000000  0.4927580000000  0.4529200000000 1.0
C      1  0.5278850000000  0.4633750000000  0.4600040000000 1.0
C      1  0.4792860000000  0.4729810000000  0.4585150000000 1.0
C      1  0.4599630000000  0.5153910000000  0.4699760000000 1.0
C      1  0.5371230000000  0.4603390000000  0.5843030000000 1.0
C      1  0.5585670000000  0.5092390000000  0.5891990000000 1.0
C      1  0.5207940000000  0.5551760000000  0.5862870000000 1.0
C      1  0.4684460000000  0.5460290000000  0.5837320000000 1.0
C      1  0.4479060000000  0.4920650000000  0.5861830000000 1.0
C      1  0.4803800000000  0.4507250000000  0.5856710000000 1.0
C      1  0.4664880000000  0.4560960000000  0.4168680000000 1.0
C      1  0.4477320000000  0.5091930000000  0.4201470000000 1.0
C      1  0.4773400000000  0.5514630000000  0.4162450000000 1.0
C      1  0.5331270000000  0.5460470000000  0.4154840000000 1.0
C      1  0.5582900000000  0.4949730000000  0.4134760000000 1.0
C      1  0.5241950000000  0.4503500000000  0.4112870000000 1.0
C      1  0.4861650000000  0.5492420000000  0.5244260000000 1.0
C      1  0.4777780000000  0.5043400000000  0.5151960000000 1.0
C      1  0.4550880000000  0.4702350000000  0.5018480000000 1.0
C      1  0.5093550000000  0.4618640000000  0.5236810000000 1.0
C      1  0.5551030000000  0.4824910000000  0.5095730000000 1.0
C      1  0.5242080000000  0.5202830000000  0.5303580000000 1.0
C      1  0.5081080000000  0.5323610000000  0.4743540000000 1.0
C      1  0.5457450000000  0.5044300000000  0.4890140000000 1.0
C      1  0.5421310000000  0.4486440000000  0.4817680000000 1.0
C      1  0.5009100000000  0.4575400000000  0.4676740000000 1.0
C      1  0.4693480000000  0.4887580000000  0.4805880000000 1.0
C      1  0.4507360000000  0.5344550000000  0.4937110000000 1.0
C      1  0.4136070000000  0.5078540000000  0.5250210000000 1.0
C      1  0.4627550000000  0.4332620000000  0.5142970000000 1.0
C      1  0.5411690000000  0.4205630000000  0.5237350000000 1.0
C      1  0.5817160000000  0.4960210000000  0.5184530000000 1.0
C      1  0.5451880000000  0.5744630000000  0.5204380000000 1.0
C      1  0.4470440000000  0.5761650000000  0.5157900000000 1.0
C      1  0.5898870000000  0.4947370000000  0.4818840000000 1.0
C      1  0.5436550000000  0.4202860000000  0.4739840000000 1.0
C      1  0.4501920000000  0.4296260000000  0.4855960000000 1.0
C      1  0.4051720000000  0.4974490000000  0.4761010000000 1.0
C      1  0.4546760000000  0.5655160000000  0.4869450000000 1.0
C      1  0.5402840000000  0.5727350000000  0.4826370000000 1.0
C      1  0.4727060000000  0.5041830000000  0.4096380000000 1.0
C      1  0.4837360000000  0.4775780000000  0.4097030000000 1.0
C      1  0.5126710000000  0.4750390000000  0.4075770000000 1.0
C      1  0.5303250000000  0.4977750000000  0.4094210000000 1.0
C      1  0.5178760000000  0.5236110000000  0.4101720000000 1.0
C      1  0.4894500000000  0.5272230000000  0.4084990000000 1.0
C      1  0.5306470000000  0.5068070000000  0.5933170000000 1.0
C      1  0.5200070000000  0.4800140000000  0.5936040000000 1.0
C      1  0.4915450000000  0.4754190000000  0.5932030000000 1.0
C      1  0.4740130000000  0.4978820000000  0.5932460000000 1.0
C      1  0.4843330000000  0.5247040000000  0.5916530000000 1.0
C      1  0.5125010000000  0.5295620000000  0.5940800000000 1.0
C      1  0.5481480000000  0.5587890000000  0.5450660000000 1.0
C      1  0.4711570000000  0.5727430000000  0.5386370000000 1.0
C      1  0.4247890000000  0.5153710000000  0.5506330000000 1.0
C      1  0.4492900000000  0.4416280000000  0.5423630000000 1.0
C      1  0.5285200000000  0.4256830000000  0.5500880000000 1.0
C      1  0.5797860000000  0.4839680000000  0.5470250000000 1.0
C      1  0.4443460000000  0.5603540000000  0.4568460000000 1.0
C      1  0.5250200000000  0.5694670000000  0.4579900000000 1.0
C      1  0.5778630000000  0.5102560000000  0.4593260000000 1.0
C      1  0.5592600000000  0.4364850000000  0.4430850000000 1.0
C      1  0.4672470000000  0.4272940000000  0.4593490000000 1.0
C      1  0.4213250000000  0.4883250000000  0.4542030000000 1.0
C      1  0.5169250000000  0.5826870000000  0.5183610000000 1.0
C      1  0.4246130000000  0.5577870000000  0.5231220000000 1.0
C      1  0.4133870000000  0.4774310000000  0.5228190000000 1.0
C      1  0.4886060000000  0.4174720000000  0.5205300000000 1.0
C      1  0.5673270000000  0.4383000000000  0.5210860000000 1.0
C      1  0.5766590000000  0.5255590000000  0.5209990000000 1.0
C      1  0.4832550000000  0.5754930000000  0.4837740000000 1.0
C      1  0.5590010000000  0.5510290000000  0.4854240000000 1.0
C      1  0.5862860000000  0.4657460000000  0.4769060000000 1.0
C      1  0.5154070000000  0.4134620000000  0.4796200000000 1.0
C      1  0.4254720000000  0.4462500000000  0.4797050000000 1.0
C      1  0.4068970000000  0.5274020000000  0.4777130000000 1.0
C      1  0.5602330000000  0.5067120000000  0.5600410000000 1.0
C      1  0.5202300000000  0.5596950000000  0.5574760000000 1.0
C      1  0.4563090000000  0.5587100000000  0.5621800000000 1.0
C      1  0.4402530000000  0.4915730000000  0.5587170000000 1.0
C      1  0.4782340000000  0.4443130000000  0.5572780000000 1.0
C      1  0.5421330000000  0.4526440000000  0.5569500000000 1.0
C      1  0.4385960000000  0.5115070000000  0.4473150000000 1.0
C      1  0.4741690000000  0.5545200000000  0.4451260000000 1.0
C      1  0.5432660000000  0.5621310000000  0.4358390000000 1.0
C      1  0.5646150000000  0.4894660000000  0.4413210000000 1.0
C      1  0.5298940000000  0.4418240000000  0.4377340000000 1.0
C      1  0.4599760000000  0.4540890000000  0.4454400000000 1.0
C      1  0.4989020000000  0.4288700000000  0.4593320000000 1.0
C      1  0.5758390000000  0.4613610000000  0.4484540000000 1.0
C      1  0.5603000000000  0.5364860000000  0.4595290000000 1.0
C      1  0.4948330000000  0.5745600000000  0.4568160000000 1.0
C      1  0.4239040000000  0.5372960000000  0.4535960000000 1.0
C      1  0.4308830000000  0.4600840000000  0.4535010000000 1.0
C      1  0.4972820000000  0.4216560000000  0.5487800000000 1.0
C      1  0.4286400000000  0.4653360000000  0.5465690000000 1.0
C      1  0.4383950000000  0.5415450000000  0.5450290000000 1.0
C      1  0.5035570000000  0.5839550000000  0.5459250000000 1.0
C      1  0.5669570000000  0.5342210000000  0.5471480000000 1.0
C      1  0.5713220000000  0.4539660000000  0.5479520000000 1.0
C      1  0.4211090000000  0.5315990000000  0.5040270000000 1.0
C      1  0.5647790000000  0.4574980000000  0.4969290000000 1.0
C      1  0.5020840000000  0.5606960000000  0.5003010000000 1.0
C      1  0.5141940000000  0.4267650000000  0.5078370000000 1.0
C      1  0.4246530000000  0.4728820000000  0.4956150000000 1.0
C      1  0.5520470000000  0.5304330000000  0.5056190000000 1.0
C      1  0.5158890000000  0.5069190000000  0.4882550000000 1.0
C      1  0.5067360000000  0.5043410000000  0.5142120000000 1.0
END
