TITL C-3578197-9521-667 -9.96977552620458e-07 125000 -438.723986410467 0 0 72 (Ci) n - 1
REM
REM in /home/bkarasulu/work/CARBON/AIRSS/Generating-Clusters/EDIP-Nigel-Params/with-SteepDescent/Higher-Symm/SD-CG/HFTN-CG
REM
REM
REM
REM
REM
REM ./C.cell (12c818d87b63d06a65506943cc24bca4)
REM
REM compiler GCC version 9.2.1 20190827 (Red Hat 9.2.1-1)
REM options -cpp -mtune=generic -march=x86-64 -g -O0 -fpre-include=/usr/include/finclude/math-vector-fortran.h
REM seed -486437321 -315785207 531472736 -1685016836 1188627455 484906222 1217933339 -1400081316 1787403233 1378639351 -1656564678 81611585 1780841383 -1950806758 366423820 516512978 -1549894204 302450734 1586213147 -1506849226 986887282 -1664987675 -1903927016 -694558347 -1924797953 1015641188 -1914933936 -1232041516 -2081398732 479740381 -1985928297 -1267136433 1519929726
REM
CELL 1.54180   50.00000   50.00000   50.00000   90.00000   90.00000   90.00000
LATT -1
SFAC C  
C      1  0.4258860000000  0.5161180000000  0.4884040000000 1.0
C      1  0.4338290000000  0.4856010000000  0.5339170000000 1.0
C      1  0.4656320000000  0.5157580000000  0.5659860000000 1.0
C      1  0.5107890000000  0.4839830000000  0.5771250000000 1.0
C      1  0.5515280000000  0.5146160000000  0.5540720000000 1.0
C      1  0.5737900000000  0.4838820000000  0.5127820000000 1.0
C      1  0.5658460000000  0.5143990000000  0.4672690000000 1.0
C      1  0.5340440000000  0.4842420000000  0.4352000000000 1.0
C      1  0.4888870000000  0.5160170000000  0.4240610000000 1.0
C      1  0.4481480000000  0.4853840000000  0.4471150000000 1.0
C      1  0.4941720000000  0.5500090000000  0.5423760000000 1.0
C      1  0.5228350000000  0.4514810000000  0.5396440000000 1.0
C      1  0.5337160000000  0.5470310000000  0.5202570000000 1.0
C      1  0.5434320000000  0.4493700000000  0.4937780000000 1.0
C      1  0.5270660000000  0.5459540000000  0.4689300000000 1.0
C      1  0.5055040000000  0.4499910000000  0.4588100000000 1.0
C      1  0.4768410000000  0.5485190000000  0.4615420000000 1.0
C      1  0.4659600000000  0.4529690000000  0.4809290000000 1.0
C      1  0.4562440000000  0.5506300000000  0.5074080000000 1.0
C      1  0.4726100000000  0.4540460000000  0.5322570000000 1.0
C      1  0.5246510000000  0.5864740000000  0.4948620000000 1.0
C      1  0.5178640000000  0.4106010000000  0.4832900000000 1.0
C      1  0.5029550000000  0.5870920000000  0.4737590000000 1.0
C      1  0.4876190000000  0.4095920000000  0.4787650000000 1.0
C      1  0.4763270000000  0.5889580000000  0.4880100000000 1.0
C      1  0.4750250000000  0.4135260000000  0.5063240000000 1.0
C      1  0.4818120000000  0.5893990000000  0.5178960000000 1.0
C      1  0.4967210000000  0.4129080000000  0.5274270000000 1.0
C      1  0.5120570000000  0.5904080000000  0.5224210000000 1.0
C      1  0.5233490000000  0.4110420000000  0.5131760000000 1.0
C      1  0.4439180000000  0.5142690000000  0.5374590000000 1.0
C      1  0.4755070000000  0.4870500000000  0.5644940000000 1.0
C      1  0.5169200000000  0.5122260000000  0.5672590000000 1.0
C      1  0.5525160000000  0.4860900000000  0.5443500000000 1.0
C      1  0.5647230000000  0.5114650000000  0.5040330000000 1.0
C      1  0.5557570000000  0.4857310000000  0.4637270000000 1.0
C      1  0.5241690000000  0.5129500000000  0.4366920000000 1.0
C      1  0.4827560000000  0.4877740000000  0.4339270000000 1.0
C      1  0.4471590000000  0.5139100000000  0.4568360000000 1.0
C      1  0.4349530000000  0.4885350000000  0.4971530000000 1.0
C      1  0.4633750000000  0.4957590000000  0.4995130000000 1.0
C      1  0.4703110000000  0.5112790000000  0.5217600000000 1.0
C      1  0.4867920000000  0.4905860000000  0.5361920000000 1.0
C      1  0.5110170000000  0.5050670000000  0.5378880000000 1.0
C      1  0.5291100000000  0.4870410000000  0.5240580000000 1.0
C      1  0.5363010000000  0.5042410000000  0.5016730000000 1.0
C      1  0.5293640000000  0.4887210000000  0.4794260000000 1.0
C      1  0.5128840000000  0.5094140000000  0.4649940000000 1.0
C      1  0.4886590000000  0.4949330000000  0.4632980000000 1.0
C      1  0.4705660000000  0.5129590000000  0.4771280000000 1.0
C      1  0.5039390000000  0.5617060000000  0.4578700000000 1.0
C      1  0.4796290000000  0.4326450000000  0.4611790000000 1.0
C      1  0.4598340000000  0.5646260000000  0.4813850000000 1.0
C      1  0.4617840000000  0.4400620000000  0.5078560000000 1.0
C      1  0.4700680000000  0.5645420000000  0.5297960000000 1.0
C      1  0.4957370000000  0.4382940000000  0.5433170000000 1.0
C      1  0.5200470000000  0.5673550000000  0.5400070000000 1.0
C      1  0.5398410000000  0.4353740000000  0.5198010000000 1.0
C      1  0.5378920000000  0.5599380000000  0.4933300000000 1.0
C      1  0.5296080000000  0.4354580000000  0.4713900000000 1.0
C      1  0.4907740000000  0.5321710000000  0.5675130000000 1.0
C      1  0.5328730000000  0.4682520000000  0.5637170000000 1.0
C      1  0.5579300000000  0.5304600000000  0.5297250000000 1.0
C      1  0.5664080000000  0.4674540000000  0.4888270000000 1.0
C      1  0.5477730000000  0.5318200000000  0.4506530000000 1.0
C      1  0.5089020000000  0.4678290000000  0.4336730000000 1.0
C      1  0.4668030000000  0.5317480000000  0.4374690000000 1.0
C      1  0.4417460000000  0.4695400000000  0.4714610000000 1.0
C      1  0.4332680000000  0.5325460000000  0.5123590000000 1.0
C      1  0.4519030000000  0.4681800000000  0.5505330000000 1.0
C      1  0.4938370000000  0.4701530000000  0.4798320000000 1.0
C      1  0.5058390000000  0.5298470000000  0.5213540000000 1.0
END
