TITL C-3577083-591-315 -6.25754700428226e-07 125000 -995.988502639051 0 0 159 (C1) n - 1
REM
REM in /home/bkarasulu/work/CARBON/AIRSS/Generating-Clusters/EDIP-Nigel-Params/with-SteepDescent/Higher-Symm/SD-CG/HFTN-CG
REM
REM
REM
REM
REM
REM ./C.cell (12c818d87b63d06a65506943cc24bca4)
REM
REM compiler GCC version 9.2.1 20190827 (Red Hat 9.2.1-1)
REM options -cpp -mtune=generic -march=x86-64 -g -O0 -fpre-include=/usr/include/finclude/math-vector-fortran.h
REM seed -971111213 -2029257686 -544004930 -521362460 519725552 490385276 1358429308 1468172478 323995267 -1065298006 1640482580 -1510536969 -1684819432 -639143766 -298293466 464954594 -185139322 1001250708 1241923724 -1663270476 872530692 1836284428 -69532165 899474194 -1021141133 -212233886 -384676630 -710313815 -1362363341 -821523800 1011274931 624705559 -670229805
REM
CELL 1.54180   50.00000   50.00000   50.00000   90.00000   90.00000   90.00000
LATT -1
SFAC C  
C      1  0.4976980000000  0.4650100000000  0.5182380000000 1.0
C      1  0.5086530000000  0.5351420000000  0.4800500000000 1.0
C      1  0.4010640000000  0.5188040000000  0.4637950000000 1.0
C      1  0.5959380000000  0.4815410000000  0.5341240000000 1.0
C      1  0.4513310000000  0.5587230000000  0.4491110000000 1.0
C      1  0.5506360000000  0.4386220000000  0.5532450000000 1.0
C      1  0.4820820000000  0.5873890000000  0.4742200000000 1.0
C      1  0.5195870000000  0.4123390000000  0.5274880000000 1.0
C      1  0.4725950000000  0.4595140000000  0.4646430000000 1.0
C      1  0.5259570000000  0.5414020000000  0.5355080000000 1.0
C      1  0.4394860000000  0.5343760000000  0.5032270000000 1.0
C      1  0.5570710000000  0.4669050000000  0.4950160000000 1.0
C      1  0.4091070000000  0.4938860000000  0.4775400000000 1.0
C      1  0.5877640000000  0.5065930000000  0.5207590000000 1.0
C      1  0.5193920000000  0.4395850000000  0.4733050000000 1.0
C      1  0.4794330000000  0.5596500000000  0.5250510000000 1.0
C      1  0.5496250000000  0.4940260000000  0.5472110000000 1.0
C      1  0.4506580000000  0.5074430000000  0.4521070000000 1.0
C      1  0.4773360000000  0.5953240000000  0.5505580000000 1.0
C      1  0.5221890000000  0.4031730000000  0.4494530000000 1.0
C      1  0.5257290000000  0.6010130000000  0.5405770000000 1.0
C      1  0.4738550000000  0.3993670000000  0.4604200000000 1.0
C      1  0.4990860000000  0.5741730000000  0.4336950000000 1.0
C      1  0.5017260000000  0.4264660000000  0.5674650000000 1.0
C      1  0.5458250000000  0.5503620000000  0.4515810000000 1.0
C      1  0.4551530000000  0.4512460000000  0.5468420000000 1.0
C      1  0.5522290000000  0.4626380000000  0.5695460000000 1.0
C      1  0.4467900000000  0.5384720000000  0.4292390000000 1.0
C      1  0.4475780000000  0.4663200000000  0.4783600000000 1.0
C      1  0.5498920000000  0.5364920000000  0.5181350000000 1.0
C      1  0.5707010000000  0.4816920000000  0.4284280000000 1.0
C      1  0.4283010000000  0.5191430000000  0.5689380000000 1.0
C      1  0.4627310000000  0.5979070000000  0.4938490000000 1.0
C      1  0.5379200000000  0.4000770000000  0.5069450000000 1.0
C      1  0.5510220000000  0.5039640000000  0.5944130000000 1.0
C      1  0.4491330000000  0.4960960000000  0.4054090000000 1.0
C      1  0.5082660000000  0.5137980000000  0.5315880000000 1.0
C      1  0.4920660000000  0.4850740000000  0.4684150000000 1.0
C      1  0.5112960000000  0.4757220000000  0.6028100000000 1.0
C      1  0.4880100000000  0.5255510000000  0.3982470000000 1.0
C      1  0.5113560000000  0.6033780000000  0.5153200000000 1.0
C      1  0.4887600000000  0.3983400000000  0.4855650000000 1.0
C      1  0.5373250000000  0.4783300000000  0.5898020000000 1.0
C      1  0.4626880000000  0.5212790000000  0.4115290000000 1.0
C      1  0.5053100000000  0.4892220000000  0.4169630000000 1.0
C      1  0.4930080000000  0.5108810000000  0.5822780000000 1.0
C      1  0.4633160000000  0.4766770000000  0.5923620000000 1.0
C      1  0.5354400000000  0.5234290000000  0.4079370000000 1.0
C      1  0.4874760000000  0.4365900000000  0.4797450000000 1.0
C      1  0.5104180000000  0.5648520000000  0.5205270000000 1.0
C      1  0.3966930000000  0.4864200000000  0.5038070000000 1.0
C      1  0.6010060000000  0.5140890000000  0.4955960000000 1.0
C      1  0.5627280000000  0.5312120000000  0.4154770000000 1.0
C      1  0.4365090000000  0.4689580000000  0.5828820000000 1.0
C      1  0.5256130000000  0.5267660000000  0.4561470000000 1.0
C      1  0.4760950000000  0.4742960000000  0.5429440000000 1.0
C      1  0.5188150000000  0.5888370000000  0.4492250000000 1.0
C      1  0.4817200000000  0.4131310000000  0.5509460000000 1.0
C      1  0.5202650000000  0.4009050000000  0.4809820000000 1.0
C      1  0.4802480000000  0.5986180000000  0.5195780000000 1.0
C      1  0.4231730000000  0.4834430000000  0.5379620000000 1.0
C      1  0.5749590000000  0.5159280000000  0.4611500000000 1.0
C      1  0.5842020000000  0.4663460000000  0.4784940000000 1.0
C      1  0.4150880000000  0.5337990000000  0.5258380000000 1.0
C      1  0.5526270000000  0.5944110000000  0.4817170000000 1.0
C      1  0.4482780000000  0.4078480000000  0.5180840000000 1.0
C      1  0.5932490000000  0.5286500000000  0.5403440000000 1.0
C      1  0.4042830000000  0.4712820000000  0.4578450000000 1.0
C      1  0.5847080000000  0.5614850000000  0.5059720000000 1.0
C      1  0.4136850000000  0.4387910000000  0.4930940000000 1.0
C      1  0.4274030000000  0.4159610000000  0.5013130000000 1.0
C      1  0.5730690000000  0.5855610000000  0.4984550000000 1.0
C      1  0.4315360000000  0.5720730000000  0.5548360000000 1.0
C      1  0.5660500000000  0.4278680000000  0.4487900000000 1.0
C      1  0.5123780000000  0.5407260000000  0.3995930000000 1.0
C      1  0.4871380000000  0.4599500000000  0.6008480000000 1.0
C      1  0.4514450000000  0.4951660000000  0.5304110000000 1.0
C      1  0.5464990000000  0.5043880000000  0.4670540000000 1.0
C      1  0.5512320000000  0.4772620000000  0.4523820000000 1.0
C      1  0.4477360000000  0.5219930000000  0.5446390000000 1.0
C      1  0.5832260000000  0.4585860000000  0.5219970000000 1.0
C      1  0.4134770000000  0.5419830000000  0.4760180000000 1.0
C      1  0.4728440000000  0.5781840000000  0.4469730000000 1.0
C      1  0.5286310000000  0.4191730000000  0.5561860000000 1.0
C      1  0.5060570000000  0.6055400000000  0.4693900000000 1.0
C      1  0.4938890000000  0.3949870000000  0.5316550000000 1.0
C      1  0.4007910000000  0.5134560000000  0.4359590000000 1.0
C      1  0.5983250000000  0.4867750000000  0.5618640000000 1.0
C      1  0.5430870000000  0.4185360000000  0.4347940000000 1.0
C      1  0.4563230000000  0.5807150000000  0.5657370000000 1.0
C      1  0.4909910000000  0.4682220000000  0.4006870000000 1.0
C      1  0.5082850000000  0.5310160000000  0.5987470000000 1.0
C      1  0.4832940000000  0.5483450000000  0.4778580000000 1.0
C      1  0.5208950000000  0.4451180000000  0.5212910000000 1.0
C      1  0.5618720000000  0.5678360000000  0.5528990000000 1.0
C      1  0.4372980000000  0.4324680000000  0.4467470000000 1.0
C      1  0.4639080000000  0.5544690000000  0.4997220000000 1.0
C      1  0.5383820000000  0.4430170000000  0.4973410000000 1.0
C      1  0.4828290000000  0.4288960000000  0.4246660000000 1.0
C      1  0.5167540000000  0.5709300000000  0.5759920000000 1.0
C      1  0.5079240000000  0.4774100000000  0.4446330000000 1.0
C      1  0.4906260000000  0.5226010000000  0.5544260000000 1.0
C      1  0.5069490000000  0.5668230000000  0.4079290000000 1.0
C      1  0.4932780000000  0.4337640000000  0.5930690000000 1.0
C      1  0.4399090000000  0.4944410000000  0.4788430000000 1.0
C      1  0.5565880000000  0.5070050000000  0.5189130000000 1.0
C      1  0.4969910000000  0.5577860000000  0.5925930000000 1.0
C      1  0.5023960000000  0.4415670000000  0.4076590000000 1.0
C      1  0.4612790000000  0.4480710000000  0.4363330000000 1.0
C      1  0.5382380000000  0.5520630000000  0.5634470000000 1.0
C      1  0.5952320000000  0.4946400000000  0.4735330000000 1.0
C      1  0.4030340000000  0.5050030000000  0.5269150000000 1.0
C      1  0.5597200000000  0.5150550000000  0.5673020000000 1.0
C      1  0.4402540000000  0.4854170000000  0.4322370000000 1.0
C      1  0.5280070000000  0.4582390000000  0.4479250000000 1.0
C      1  0.4705190000000  0.5417080000000  0.5499780000000 1.0
C      1  0.4319520000000  0.5633310000000  0.4703810000000 1.0
C      1  0.5690660000000  0.4346330000000  0.5301990000000 1.0
C      1  0.4686320000000  0.5578040000000  0.5805660000000 1.0
C      1  0.5305660000000  0.4419710000000  0.4200290000000 1.0
C      1  0.4511130000000  0.5072370000000  0.5027160000000 1.0
C      1  0.5410740000000  0.4930370000000  0.4956560000000 1.0
C      1  0.5520510000000  0.5923020000000  0.5442180000000 1.0
C      1  0.4476500000000  0.4085730000000  0.4566290000000 1.0
C      1  0.5311250000000  0.4953620000000  0.4029300000000 1.0
C      1  0.4671920000000  0.5049320000000  0.5965240000000 1.0
C      1  0.4734300000000  0.3905610000000  0.5102620000000 1.0
C      1  0.5267720000000  0.6103080000000  0.4903290000000 1.0
C      1  0.5060460000000  0.5929630000000  0.5601500000000 1.0
C      1  0.4932960000000  0.4066280000000  0.4403790000000 1.0
C      1  0.5812790000000  0.4522820000000  0.4512660000000 1.0
C      1  0.4151030000000  0.5490070000000  0.5533150000000 1.0
C      1  0.5624130000000  0.4157810000000  0.5080340000000 1.0
C      1  0.4385790000000  0.5819880000000  0.4920390000000 1.0
C      1  0.4617460000000  0.4683540000000  0.4039700000000 1.0
C      1  0.5375140000000  0.5311600000000  0.5956900000000 1.0
C      1  0.5909000000000  0.5403460000000  0.4865380000000 1.0
C      1  0.4065380000000  0.4597760000000  0.5123410000000 1.0
C      1  0.4102460000000  0.4865240000000  0.4332440000000 1.0
C      1  0.5895100000000  0.5138060000000  0.5654820000000 1.0
C      1  0.4656140000000  0.4295290000000  0.5303910000000 1.0
C      1  0.5363130000000  0.5726060000000  0.4685550000000 1.0
C      1  0.4378310000000  0.4451340000000  0.5682590000000 1.0
C      1  0.5625030000000  0.5555380000000  0.4294370000000 1.0
C      1  0.4495440000000  0.5492980000000  0.6004640000000 1.0
C      1  0.5490210000000  0.4504320000000  0.3996670000000 1.0
C      1  0.5246710000000  0.5549380000000  0.4933140000000 1.0
C      1  0.4792680000000  0.4451920000000  0.5071890000000 1.0
C      1  0.5540530000000  0.4769750000000  0.4048060000000 1.0
C      1  0.4442200000000  0.5231030000000  0.5935530000000 1.0
C      1  0.5736880000000  0.5501820000000  0.5309940000000 1.0
C      1  0.4247010000000  0.4507270000000  0.4679220000000 1.0
C      1  0.5207530000000  0.4914910000000  0.5454350000000 1.0
C      1  0.4802510000000  0.5097630000000  0.4572720000000 1.0
C      1  0.5006450000000  0.4818500000000  0.5657880000000 1.0
C      1  0.4996090000000  0.5188270000000  0.4350990000000 1.0
C      1  0.4203580000000  0.4891830000000  0.5675480000000 1.0
C      1  0.5785610000000  0.5111630000000  0.4311960000000 1.0
C      1  0.5078150000000  0.4898080000000  0.4998880000000 1.0
END
