TITL C-3578194-7807-478 -0.0362869261923754 125000 -454.299524994162 0 0 76 (C1) n - 1
REM
REM in /home/bkarasulu/work/CARBON/AIRSS/Generating-Clusters/EDIP-Nigel-Params/with-SteepDescent/Higher-Symm/SD-CG/HFTN-CG
REM
REM
REM
REM
REM
REM ./C.cell (12c818d87b63d06a65506943cc24bca4)
REM
REM compiler GCC version 9.2.1 20190827 (Red Hat 9.2.1-1)
REM options -cpp -mtune=generic -march=x86-64 -g -O0 -fpre-include=/usr/include/finclude/math-vector-fortran.h
REM seed 917586006 -633624116 -1193843878 1726536346 1064298552 1610958726 769086656 1418619878 -553245930 1349797040 -1771992754 1907613407 182007285 -1584677484 -169664205 43713085 -1951307769 290638056 908150686 -1289560177 -962582203 -1145749547 1942686673 881670798 -346592074 1947245425 -1556246123 -1514836330 85213887 1188867148 2116288193 272296702 -1415175235
REM
CELL 1.54180   50.00000   50.00000   50.00000   90.00000   90.00000   90.00000
LATT -1
SFAC C  
C      1  0.5469810000000  0.5572870000000  0.4780120000000 1.0
C      1  0.5480940000000  0.5547680000000  0.5310120000000 1.0
C      1  0.5467130000000  0.5096840000000  0.5603290000000 1.0
C      1  0.5472650000000  0.4574260000000  0.5466690000000 1.0
C      1  0.5444870000000  0.4365790000000  0.4984100000000 1.0
C      1  0.5446070000000  0.4653790000000  0.4519270000000 1.0
C      1  0.5469020000000  0.5187210000000  0.4417630000000 1.0
C      1  0.5021630000000  0.4857490000000  0.5214400000000 1.0
C      1  0.4854530000000  0.4794350000000  0.4961350000000 1.0
C      1  0.5074730000000  0.4759990000000  0.4746380000000 1.0
C      1  0.5122890000000  0.5069630000000  0.4665230000000 1.0
C      1  0.4930570000000  0.5262370000000  0.4836930000000 1.0
C      1  0.5014110000000  0.5331230000000  0.5121370000000 1.0
C      1  0.4960400000000  0.5126780000000  0.5315170000000 1.0
C      1  0.4493280000000  0.4989000000000  0.5587070000000 1.0
C      1  0.4506030000000  0.4521580000000  0.5328120000000 1.0
C      1  0.4526250000000  0.4390340000000  0.4825650000000 1.0
C      1  0.4547700000000  0.4742690000000  0.4430460000000 1.0
C      1  0.4542240000000  0.5267110000000  0.4446610000000 1.0
C      1  0.4499370000000  0.5605180000000  0.4862780000000 1.0
C      1  0.4505530000000  0.5472970000000  0.5382290000000 1.0
C      1  0.4420870000000  0.5548430000000  0.5125970000000 1.0
C      1  0.4406430000000  0.5242740000000  0.5506080000000 1.0
C      1  0.4416660000000  0.4753790000000  0.5455690000000 1.0
C      1  0.4415920000000  0.4432640000000  0.5078960000000 1.0
C      1  0.4448880000000  0.4554570000000  0.4613530000000 1.0
C      1  0.4450930000000  0.5004200000000  0.4410440000000 1.0
C      1  0.4435960000000  0.5439910000000  0.4642650000000 1.0
C      1  0.5231320000000  0.4188060000000  0.4991180000000 1.0
C      1  0.5261260000000  0.4539790000000  0.4343470000000 1.0
C      1  0.5270410000000  0.5247850000000  0.4228810000000 1.0
C      1  0.5215130000000  0.5670030000000  0.4737410000000 1.0
C      1  0.5234560000000  0.5668630000000  0.5364090000000 1.0
C      1  0.5215650000000  0.5120570000000  0.5717720000000 1.0
C      1  0.5219200000000  0.4498050000000  0.5543970000000 1.0
C      1  0.4886910000000  0.5593260000000  0.4411640000000 1.0
C      1  0.4873330000000  0.5813500000000  0.5086290000000 1.0
C      1  0.4870770000000  0.5441560000000  0.5700310000000 1.0
C      1  0.4868190000000  0.4729210000000  0.5731670000000 1.0
C      1  0.4850140000000  0.4193580000000  0.5267520000000 1.0
C      1  0.4917300000000  0.4300170000000  0.4555660000000 1.0
C      1  0.4935730000000  0.4914750000000  0.4195260000000 1.0
C      1  0.5546090000000  0.4459660000000  0.5225070000000 1.0
C      1  0.5451700000000  0.4544460000000  0.4772980000000 1.0
C      1  0.5499270000000  0.4923200000000  0.4491350000000 1.0
C      1  0.5548230000000  0.5380640000000  0.4598730000000 1.0
C      1  0.5554750000000  0.5554470000000  0.5043020000000 1.0
C      1  0.5544380000000  0.5318030000000  0.5453850000000 1.0
C      1  0.5539810000000  0.4840320000000  0.5519880000000 1.0
C      1  0.4807370000000  0.5336070000000  0.4348390000000 1.0
C      1  0.4757860000000  0.5736290000000  0.4846130000000 1.0
C      1  0.4770930000000  0.5560210000000  0.5470490000000 1.0
C      1  0.4754550000000  0.4979920000000  0.5717500000000 1.0
C      1  0.4764900000000  0.4418680000000  0.5403420000000 1.0
C      1  0.4798100000000  0.4290590000000  0.4803490000000 1.0
C      1  0.4814360000000  0.4703620000000  0.4324630000000 1.0
C      1  0.4952690000000  0.5176540000000  0.5615440000000 1.0
C      1  0.4967940000000  0.4618390000000  0.5487130000000 1.0
C      1  0.4954660000000  0.4173510000000  0.5014140000000 1.0
C      1  0.5011320000000  0.4563840000000  0.4491270000000 1.0
C      1  0.5030860000000  0.5136900000000  0.4349640000000 1.0
C      1  0.4948900000000  0.5574420000000  0.4694150000000 1.0
C      1  0.4974870000000  0.5602620000000  0.5255850000000 1.0
C      1  0.4184190000000  0.5046700000000  0.5010510000000 1.0
C      1  0.3150640000000  0.4954000000000  0.5153930000000 1.0
C      1  0.4707260000000  0.5038930000000  0.4879260000000 1.0
C      1  0.5527970000000  0.4927780000000  0.5063200000000 1.0
C      1  0.3924210000000  0.5021400000000  0.5050130000000 1.0
C      1  0.6315160000000  0.5009240000000  0.4988010000000 1.0
C      1  0.5792260000000  0.4961010000000  0.5042480000000 1.0
C      1  0.4448590000000  0.5064880000000  0.4983630000000 1.0
C      1  0.3403220000000  0.4975740000000  0.5120510000000 1.0
C      1  0.5252650000000  0.4973780000000  0.5019670000000 1.0
C      1  0.6568440000000  0.5031430000000  0.4960730000000 1.0
C      1  0.3663460000000  0.4999330000000  0.5083960000000 1.0
C      1  0.6053880000000  0.4982600000000  0.5013280000000 1.0
END
