TITL C-3578198-8939-273 -1.4165788394449e-06 125000 -1147.24811947945 0 0 186 (C1) n - 1
REM
REM in /home/bkarasulu/work/CARBON/AIRSS/Generating-Clusters/EDIP-Nigel-Params/with-SteepDescent/Higher-Symm/SD-CG/HFTN-CG
REM
REM
REM
REM
REM
REM ./C.cell (12c818d87b63d06a65506943cc24bca4)
REM
REM compiler GCC version 9.2.1 20190827 (Red Hat 9.2.1-1)
REM options -cpp -mtune=generic -march=x86-64 -g -O0 -fpre-include=/usr/include/finclude/math-vector-fortran.h
REM seed -863903817 841357492 1032483053 1755567168 -806398541 269411989 -364623991 852601475 1413407304 517781845 -1822273265 -836479622 -781225356 -1717350464 1244806830 1355621889 1918059860 1896570134 2013126397 1743181538 -758032806 -1146193618 -1460524730 -581116414 1282987552 -1344937724 -648249545 1130220380 -387389779 1696473334 1996628595 -171710838 -1192703636
REM
CELL 1.54180   50.00000   50.00000   50.00000   90.00000   90.00000   90.00000
LATT -1
SFAC C  
C      1  0.5722640000000  0.5702380000000  0.5502230000000 1.0
C      1  0.5511380000000  0.5714770000000  0.4255080000000 1.0
C      1  0.4290100000000  0.5693130000000  0.4503160000000 1.0
C      1  0.4496770000000  0.5696050000000  0.5725760000000 1.0
C      1  0.5733080000000  0.4360850000000  0.5505350000000 1.0
C      1  0.5488730000000  0.4328650000000  0.4287760000000 1.0
C      1  0.4251620000000  0.4291890000000  0.4505080000000 1.0
C      1  0.4496330000000  0.4299070000000  0.5720320000000 1.0
C      1  0.4585750000000  0.5112870000000  0.6007080000000 1.0
C      1  0.6010840000000  0.5143650000000  0.5416330000000 1.0
C      1  0.5405420000000  0.5150130000000  0.3896000000000 1.0
C      1  0.3981090000000  0.5127810000000  0.4588960000000 1.0
C      1  0.4562040000000  0.4836180000000  0.6061250000000 1.0
C      1  0.6152440000000  0.4904720000000  0.5384550000000 1.0
C      1  0.5410990000000  0.4888900000000  0.3998340000000 1.0
C      1  0.3921380000000  0.4850700000000  0.4575320000000 1.0
C      1  0.4441530000000  0.4267010000000  0.5049360000000 1.0
C      1  0.5044610000000  0.4273380000000  0.5526980000000 1.0
C      1  0.5515210000000  0.4309850000000  0.4975450000000 1.0
C      1  0.4941750000000  0.4269910000000  0.4446000000000 1.0
C      1  0.4495750000000  0.5720280000000  0.5047950000000 1.0
C      1  0.5043680000000  0.5704170000000  0.5520460000000 1.0
C      1  0.5561470000000  0.5730180000000  0.4944380000000 1.0
C      1  0.4962490000000  0.5740700000000  0.4449740000000 1.0
C      1  0.5303300000000  0.4403130000000  0.5444910000000 1.0
C      1  0.5416320000000  0.4408100000000  0.4713270000000 1.0
C      1  0.4676390000000  0.4386480000000  0.4532430000000 1.0
C      1  0.4557370000000  0.4399540000000  0.5299900000000 1.0
C      1  0.5305870000000  0.5594340000000  0.5426270000000 1.0
C      1  0.5478100000000  0.5617610000000  0.4678370000000 1.0
C      1  0.4713760000000  0.5604540000000  0.4565960000000 1.0
C      1  0.4573470000000  0.5595240000000  0.5309920000000 1.0
C      1  0.5036310000000  0.5993750000000  0.5536230000000 1.0
C      1  0.5585610000000  0.6019990000000  0.4962030000000 1.0
C      1  0.4963070000000  0.6032630000000  0.4423910000000 1.0
C      1  0.4472510000000  0.6010460000000  0.5048620000000 1.0
C      1  0.5041650000000  0.3983740000000  0.5561120000000 1.0
C      1  0.5560070000000  0.4019880000000  0.4982940000000 1.0
C      1  0.4965780000000  0.3980270000000  0.4428350000000 1.0
C      1  0.4424010000000  0.3974450000000  0.5045850000000 1.0
C      1  0.5204320000000  0.4535800000000  0.5958010000000 1.0
C      1  0.5932680000000  0.4571410000000  0.4788410000000 1.0
C      1  0.4784820000000  0.4552730000000  0.4058640000000 1.0
C      1  0.4051680000000  0.4548120000000  0.5213140000000 1.0
C      1  0.5204150000000  0.5445050000000  0.5926750000000 1.0
C      1  0.5968130000000  0.5465720000000  0.4802350000000 1.0
C      1  0.4792050000000  0.5467790000000  0.4054670000000 1.0
C      1  0.4062960000000  0.5468140000000  0.5212120000000 1.0
C      1  0.5127580000000  0.5337020000000  0.4724280000000 1.0
C      1  0.4761910000000  0.5278740000000  0.4962010000000 1.0
C      1  0.4955490000000  0.5281970000000  0.5195850000000 1.0
C      1  0.5223930000000  0.5303320000000  0.5021130000000 1.0
C      1  0.5013490000000  0.4708510000000  0.4797590000000 1.0
C      1  0.4720530000000  0.4675820000000  0.4887070000000 1.0
C      1  0.4952700000000  0.4711570000000  0.5260830000000 1.0
C      1  0.5184180000000  0.4720090000000  0.5066030000000 1.0
C      1  0.4864380000000  0.4882630000000  0.3678210000000 1.0
C      1  0.3668090000000  0.4876680000000  0.5135570000000 1.0
C      1  0.5110230000000  0.4850610000000  0.6346400000000 1.0
C      1  0.6340060000000  0.4878960000000  0.4852870000000 1.0
C      1  0.4863110000000  0.5148960000000  0.3663490000000 1.0
C      1  0.3679590000000  0.5143200000000  0.5128580000000 1.0
C      1  0.5122020000000  0.5115350000000  0.6312020000000 1.0
C      1  0.6345990000000  0.5143340000000  0.4893820000000 1.0
C      1  0.6095650000000  0.5380700000000  0.5264850000000 1.0
C      1  0.5239000000000  0.5376040000000  0.3904860000000 1.0
C      1  0.3942670000000  0.5355380000000  0.4759660000000 1.0
C      1  0.4755040000000  0.5338990000000  0.6059150000000 1.0
C      1  0.6097010000000  0.4678730000000  0.5233850000000 1.0
C      1  0.5236020000000  0.4667490000000  0.3936940000000 1.0
C      1  0.3908380000000  0.4637060000000  0.4765270000000 1.0
C      1  0.4747890000000  0.4621120000000  0.6082930000000 1.0
C      1  0.5936510000000  0.5422630000000  0.4502700000000 1.0
C      1  0.4486350000000  0.5402560000000  0.4074650000000 1.0
C      1  0.4072730000000  0.5406140000000  0.5519090000000 1.0
C      1  0.5511580000000  0.5412790000000  0.5928780000000 1.0
C      1  0.5912060000000  0.4630220000000  0.4485110000000 1.0
C      1  0.4472340000000  0.4590250000000  0.4072800000000 1.0
C      1  0.4067870000000  0.4597590000000  0.5520650000000 1.0
C      1  0.5508380000000  0.4614230000000  0.5950650000000 1.0
C      1  0.6013160000000  0.5163430000000  0.4413260000000 1.0
C      1  0.4412900000000  0.5133730000000  0.4018240000000 1.0
C      1  0.4011590000000  0.5138290000000  0.5589890000000 1.0
C      1  0.5591290000000  0.5152430000000  0.6004040000000 1.0
C      1  0.5990850000000  0.4891410000000  0.4406880000000 1.0
C      1  0.4397580000000  0.4860550000000  0.4023650000000 1.0
C      1  0.4012040000000  0.4865580000000  0.5595470000000 1.0
C      1  0.5571340000000  0.4881510000000  0.6019190000000 1.0
C      1  0.5267470000000  0.5164200000000  0.4282870000000 1.0
C      1  0.4334060000000  0.5169770000000  0.4746120000000 1.0
C      1  0.4752170000000  0.5169670000000  0.5660990000000 1.0
C      1  0.5720640000000  0.5156460000000  0.5307110000000 1.0
C      1  0.5238000000000  0.4824430000000  0.4340650000000 1.0
C      1  0.4287230000000  0.4838840000000  0.4712100000000 1.0
C      1  0.4719500000000  0.4827030000000  0.5702590000000 1.0
C      1  0.5639200000000  0.4799350000000  0.5255300000000 1.0
C      1  0.4729440000000  0.4424120000000  0.5861930000000 1.0
C      1  0.5823570000000  0.4551420000000  0.5266210000000 1.0
C      1  0.5257560000000  0.4443460000000  0.4131830000000 1.0
C      1  0.4124910000000  0.4435500000000  0.4738270000000 1.0
C      1  0.4732220000000  0.5557540000000  0.5856840000000 1.0
C      1  0.5866760000000  0.5569600000000  0.5273760000000 1.0
C      1  0.5276850000000  0.5567520000000  0.4130150000000 1.0
C      1  0.4152810000000  0.5565220000000  0.4736430000000 1.0
C      1  0.4478980000000  0.5910470000000  0.4554130000000 1.0
C      1  0.4547770000000  0.5911100000000  0.5529410000000 1.0
C      1  0.5525260000000  0.5910940000000  0.5441650000000 1.0
C      1  0.5447170000000  0.5928030000000  0.4448280000000 1.0
C      1  0.4446470000000  0.4076570000000  0.4564340000000 1.0
C      1  0.4552100000000  0.4087250000000  0.5525950000000 1.0
C      1  0.5560780000000  0.4119340000000  0.5461270000000 1.0
C      1  0.5445420000000  0.4106690000000  0.4475240000000 1.0
C      1  0.4417600000000  0.5317190000000  0.5270630000000 1.0
C      1  0.5281910000000  0.5302320000000  0.5571240000000 1.0
C      1  0.5567880000000  0.5301990000000  0.4714590000000 1.0
C      1  0.4743280000000  0.5326170000000  0.4416140000000 1.0
C      1  0.4413780000000  0.4683950000000  0.5270030000000 1.0
C      1  0.5263740000000  0.4679580000000  0.5599830000000 1.0
C      1  0.5563410000000  0.4695340000000  0.4741470000000 1.0
C      1  0.4718970000000  0.4693120000000  0.4416970000000 1.0
C      1  0.5499920000000  0.4839490000000  0.5519840000000 1.0
C      1  0.5491030000000  0.4849980000000  0.4501050000000 1.0
C      1  0.4473710000000  0.4862260000000  0.4458390000000 1.0
C      1  0.4476860000000  0.4854660000000  0.5510440000000 1.0
C      1  0.5525750000000  0.5130000000000  0.5538430000000 1.0
C      1  0.5524270000000  0.5140150000000  0.4467180000000 1.0
C      1  0.4512100000000  0.5154190000000  0.4498760000000 1.0
C      1  0.4495270000000  0.5147580000000  0.5498330000000 1.0
C      1  0.4986170000000  0.4361700000000  0.4176540000000 1.0
C      1  0.4171100000000  0.4358000000000  0.5010180000000 1.0
C      1  0.5002550000000  0.4363210000000  0.5801230000000 1.0
C      1  0.5781950000000  0.4422010000000  0.5007080000000 1.0
C      1  0.5004400000000  0.5644800000000  0.4181750000000 1.0
C      1  0.4217520000000  0.5635780000000  0.5006660000000 1.0
C      1  0.5005340000000  0.5632050000000  0.5799600000000 1.0
C      1  0.5825860000000  0.5631410000000  0.4997800000000 1.0
C      1  0.5725770000000  0.4479360000000  0.4330200000000 1.0
C      1  0.4328880000000  0.4441190000000  0.4272770000000 1.0
C      1  0.4257860000000  0.4446540000000  0.5671220000000 1.0
C      1  0.5664000000000  0.4494160000000  0.5745770000000 1.0
C      1  0.5746430000000  0.5571990000000  0.4341900000000 1.0
C      1  0.4331070000000  0.5552010000000  0.4260780000000 1.0
C      1  0.4254870000000  0.5554110000000  0.5680450000000 1.0
C      1  0.5668280000000  0.5559660000000  0.5741700000000 1.0
C      1  0.5176880000000  0.3858010000000  0.5138970000000 1.0
C      1  0.5135330000000  0.3862090000000  0.4829270000000 1.0
C      1  0.4823240000000  0.3842050000000  0.4871580000000 1.0
C      1  0.4868390000000  0.3834210000000  0.5180860000000 1.0
C      1  0.5183510000000  0.6161300000000  0.5117930000000 1.0
C      1  0.5143010000000  0.6176910000000  0.4807050000000 1.0
C      1  0.4830870000000  0.6182250000000  0.4850910000000 1.0
C      1  0.4874660000000  0.6166170000000  0.5159670000000 1.0
C      1  0.6134310000000  0.4718820000000  0.4947730000000 1.0
C      1  0.4952300000000  0.4728270000000  0.3890200000000 1.0
C      1  0.3873420000000  0.4713650000000  0.5046690000000 1.0
C      1  0.5027920000000  0.4694400000000  0.6132280000000 1.0
C      1  0.6151940000000  0.5324100000000  0.4976850000000 1.0
C      1  0.4955520000000  0.5315200000000  0.3864830000000 1.0
C      1  0.3889990000000  0.5300800000000  0.5042390000000 1.0
C      1  0.5037990000000  0.5278520000000  0.6104900000000 1.0
C      1  0.5104900000000  0.4420760000000  0.4726760000000 1.0
C      1  0.4665870000000  0.4389400000000  0.4845890000000 1.0
C      1  0.4866520000000  0.4421100000000  0.5262930000000 1.0
C      1  0.5303520000000  0.4447970000000  0.5151720000000 1.0
C      1  0.5164130000000  0.5626290000000  0.4672830000000 1.0
C      1  0.4753010000000  0.5574360000000  0.4875500000000 1.0
C      1  0.4867050000000  0.5551400000000  0.5317580000000 1.0
C      1  0.5291720000000  0.5590010000000  0.5111930000000 1.0
C      1  0.5009780000000  0.5179880000000  0.4493700000000 1.0
C      1  0.4504730000000  0.5161650000000  0.5014280000000 1.0
C      1  0.5023500000000  0.5148080000000  0.5477600000000 1.0
C      1  0.5497210000000  0.5157910000000  0.4990870000000 1.0
C      1  0.4977280000000  0.4846190000000  0.4522940000000 1.0
C      1  0.4488420000000  0.4830650000000  0.4997960000000 1.0
C      1  0.5004370000000  0.4830810000000  0.5517030000000 1.0
C      1  0.5467600000000  0.4847600000000  0.4999210000000 1.0
C      1  0.5454030000000  0.6072340000000  0.5204540000000 1.0
C      1  0.5217470000000  0.6094950000000  0.4529140000000 1.0
C      1  0.4560170000000  0.6073510000000  0.4787070000000 1.0
C      1  0.4787410000000  0.6055480000000  0.5426010000000 1.0
C      1  0.5451970000000  0.3953820000000  0.5233120000000 1.0
C      1  0.5214660000000  0.3938780000000  0.4554050000000 1.0
C      1  0.4541520000000  0.3917240000000  0.4795910000000 1.0
C      1  0.4786480000000  0.3920790000000  0.5454840000000 1.0
C      1  0.5041390000000  0.5710980000000  0.4945770000000 1.0
C      1  0.4933080000000  0.4295150000000  0.4970250000000 1.0
END
