TITL C-3578199-7832-211 -1.35152826350535e-06 125000 -337.752118964989 0 0 55 (C1) n - 1
REM
REM in /home/bkarasulu/work/CARBON/AIRSS/Generating-Clusters/EDIP-Nigel-Params/with-SteepDescent/Higher-Symm/SD-CG/HFTN-CG
REM
REM
REM
REM
REM
REM ./C.cell (12c818d87b63d06a65506943cc24bca4)
REM
REM compiler GCC version 9.2.1 20190827 (Red Hat 9.2.1-1)
REM options -cpp -mtune=generic -march=x86-64 -g -O0 -fpre-include=/usr/include/finclude/math-vector-fortran.h
REM seed 136738460 2128861334 87482708 390171866 1575541738 -48417691 -2080836859 84214557 -657270226 -1088175094 -1825422229 338461414 -1570464753 1037604604 2073550171 -373870991 -684782801 1181933153 445601087 -1745857984 -2143160663 1750743231 -927806541 -1119010296 -2098664335 2005425789 -218250849 -1744294250 -444236642 728598583 1388262081 810633028 953695381
REM
CELL 1.54180   50.00000   50.00000   50.00000   90.00000   90.00000   90.00000
LATT -1
SFAC C  
C      1  0.4686630000000  0.5457470000000  0.4570220000000 1.0
C      1  0.5088780000000  0.5123900000000  0.5129790000000 1.0
C      1  0.5114150000000  0.5358890000000  0.5618680000000 1.0
C      1  0.4639020000000  0.5159780000000  0.4522800000000 1.0
C      1  0.4967930000000  0.5120810000000  0.4819600000000 1.0
C      1  0.4725970000000  0.4749740000000  0.4293580000000 1.0
C      1  0.5191960000000  0.4848870000000  0.5793940000000 1.0
C      1  0.5021520000000  0.4221620000000  0.4964130000000 1.0
C      1  0.5407990000000  0.5367060000000  0.4863640000000 1.0
C      1  0.4656350000000  0.5126850000000  0.5543620000000 1.0
C      1  0.5144030000000  0.5670430000000  0.4611970000000 1.0
C      1  0.5025080000000  0.4850490000000  0.5361840000000 1.0
C      1  0.4750120000000  0.4641020000000  0.4756510000000 1.0
C      1  0.5305570000000  0.4709210000000  0.5452600000000 1.0
C      1  0.5326020000000  0.4236490000000  0.4876370000000 1.0
C      1  0.5095570000000  0.5419950000000  0.4314020000000 1.0
C      1  0.4620620000000  0.5554470000000  0.4842620000000 1.0
C      1  0.5391810000000  0.4791660000000  0.4461250000000 1.0
C      1  0.4355970000000  0.4755430000000  0.5301900000000 1.0
C      1  0.4255870000000  0.4719170000000  0.5036010000000 1.0
C      1  0.4917660000000  0.5372850000000  0.5191560000000 1.0
C      1  0.5474990000000  0.5345330000000  0.5358330000000 1.0
C      1  0.5556840000000  0.4866050000000  0.5377400000000 1.0
C      1  0.5532450000000  0.5117270000000  0.5539340000000 1.0
C      1  0.5249830000000  0.5618810000000  0.4877220000000 1.0
C      1  0.5018690000000  0.4382140000000  0.5219640000000 1.0
C      1  0.5354590000000  0.5063020000000  0.4411690000000 1.0
C      1  0.4476040000000  0.5139670000000  0.5079170000000 1.0
C      1  0.4983620000000  0.4831810000000  0.4724710000000 1.0
C      1  0.4509440000000  0.4999300000000  0.5322680000000 1.0
C      1  0.4828620000000  0.5011440000000  0.4349550000000 1.0
C      1  0.4843180000000  0.5351190000000  0.5482820000000 1.0
C      1  0.5019110000000  0.5638120000000  0.5073860000000 1.0
C      1  0.4558910000000  0.4706520000000  0.4525470000000 1.0
C      1  0.4987300000000  0.5424910000000  0.4580780000000 1.0
C      1  0.4635600000000  0.4675640000000  0.5047680000000 1.0
C      1  0.5294210000000  0.5528970000000  0.5479330000000 1.0
C      1  0.5178400000000  0.4394660000000  0.4648510000000 1.0
C      1  0.4337430000000  0.4962190000000  0.4893970000000 1.0
C      1  0.4872040000000  0.4633350000000  0.5225220000000 1.0
C      1  0.4874600000000  0.4366990000000  0.4722940000000 1.0
C      1  0.5526550000000  0.4934820000000  0.5092310000000 1.0
C      1  0.5383220000000  0.5199320000000  0.5107350000000 1.0
C      1  0.4429440000000  0.4965800000000  0.4608300000000 1.0
C      1  0.4794310000000  0.5756570000000  0.4942110000000 1.0
C      1  0.5270260000000  0.5105590000000  0.5674340000000 1.0
C      1  0.5296910000000  0.4430740000000  0.5320740000000 1.0
C      1  0.5415020000000  0.4704020000000  0.4943260000000 1.0
C      1  0.5250250000000  0.4690590000000  0.4689160000000 1.0
C      1  0.4725820000000  0.4970540000000  0.5766350000000 1.0
C      1  0.5438330000000  0.5248850000000  0.4608550000000 1.0
C      1  0.4938320000000  0.4811530000000  0.5668210000000 1.0
C      1  0.4700090000000  0.5298180000000  0.4981730000000 1.0
C      1  0.5101730000000  0.5135680000000  0.4267160000000 1.0
C      1  0.5455230000000  0.4434240000000  0.5063480000000 1.0
END
