TITL C-3578195-8548-777 1.05457468262441e-06 125000 -886.317522594456 0 0 144 (C1) n - 1
REM
REM in /home/bkarasulu/work/CARBON/AIRSS/Generating-Clusters/EDIP-Nigel-Params/with-SteepDescent/Higher-Symm/SD-CG/HFTN-CG
REM
REM
REM
REM
REM
REM ./C.cell (12c818d87b63d06a65506943cc24bca4)
REM
REM compiler GCC version 9.2.1 20190827 (Red Hat 9.2.1-1)
REM options -cpp -mtune=generic -march=x86-64 -g -O0 -fpre-include=/usr/include/finclude/math-vector-fortran.h
REM seed -495927917 -2082791661 1895087726 -665449996 588442568 151072596 180034675 -1443309922 -245448066 -1258828316 -865975943 1922636408 -441599446 -2117718057 -504353600 1595516719 582600934 -806669492 689157583 1437093044 295605735 -377565697 -621574145 -1430560261 1753418490 -2007516908 139414068 1048129625 1209414966 -1240037588 -1508086542 31644478 505598806
REM
CELL 1.54180   50.00000   50.00000   50.00000   90.00000   90.00000   90.00000
LATT -1
SFAC C  
C      1  0.5106730000000  0.5152120000000  0.4111120000000 1.0
C      1  0.5106340000000  0.4848880000000  0.4110820000000 1.0
C      1  0.4004470000000  0.4735830000000  0.5227000000000 1.0
C      1  0.4017380000000  0.5253410000000  0.5230390000000 1.0
C      1  0.4139260000000  0.4701880000000  0.4397340000000 1.0
C      1  0.4140200000000  0.5298280000000  0.4400500000000 1.0
C      1  0.5604760000000  0.4504060000000  0.5803760000000 1.0
C      1  0.5598570000000  0.5490410000000  0.5804750000000 1.0
C      1  0.4494090000000  0.5835040000000  0.4746090000000 1.0
C      1  0.4493370000000  0.4167450000000  0.4748080000000 1.0
C      1  0.5686920000000  0.4387970000000  0.4564000000000 1.0
C      1  0.5687520000000  0.5611440000000  0.4565500000000 1.0
C      1  0.6136530000000  0.5163420000000  0.5361150000000 1.0
C      1  0.6137570000000  0.4835170000000  0.5360060000000 1.0
C      1  0.5324490000000  0.5153830000000  0.4529950000000 1.0
C      1  0.5324140000000  0.4846470000000  0.4529580000000 1.0
C      1  0.4553910000000  0.5942850000000  0.5210380000000 1.0
C      1  0.4554250000000  0.4062540000000  0.5213560000000 1.0
C      1  0.4823320000000  0.5899510000000  0.5057680000000 1.0
C      1  0.4822420000000  0.4103680000000  0.5058890000000 1.0
C      1  0.4868970000000  0.4399250000000  0.5075200000000 1.0
C      1  0.4869710000000  0.5603880000000  0.5073880000000 1.0
C      1  0.5536830000000  0.4137080000000  0.5079600000000 1.0
C      1  0.5536490000000  0.5861610000000  0.5082010000000 1.0
C      1  0.4617880000000  0.4714240000000  0.5423620000000 1.0
C      1  0.4619290000000  0.5291360000000  0.5423030000000 1.0
C      1  0.5051570000000  0.5256360000000  0.4406090000000 1.0
C      1  0.5050790000000  0.4744710000000  0.4405500000000 1.0
C      1  0.4296370000000  0.4387260000000  0.5365390000000 1.0
C      1  0.4298500000000  0.5615180000000  0.5360600000000 1.0
C      1  0.4453520000000  0.5413260000000  0.5204480000000 1.0
C      1  0.4448690000000  0.4589350000000  0.5206730000000 1.0
C      1  0.5370720000000  0.4528040000000  0.4986850000000 1.0
C      1  0.5370790000000  0.5470760000000  0.4988630000000 1.0
C      1  0.5686490000000  0.5146980000000  0.4850710000000 1.0
C      1  0.5686380000000  0.4851970000000  0.4850210000000 1.0
C      1  0.4332550000000  0.4279860000000  0.4521370000000 1.0
C      1  0.4331390000000  0.5719060000000  0.4522320000000 1.0
C      1  0.5901860000000  0.5188300000000  0.4642390000000 1.0
C      1  0.5901640000000  0.4810890000000  0.4641740000000 1.0
C      1  0.5431810000000  0.4649770000000  0.5275960000000 1.0
C      1  0.5428060000000  0.5347300000000  0.5277620000000 1.0
C      1  0.5019840000000  0.4440850000000  0.4367820000000 1.0
C      1  0.5021130000000  0.5560180000000  0.4367890000000 1.0
C      1  0.5314410000000  0.4578350000000  0.5881720000000 1.0
C      1  0.5307320000000  0.5417500000000  0.5883030000000 1.0
C      1  0.5068380000000  0.6030300000000  0.5155810000000 1.0
C      1  0.5067400000000  0.3972630000000  0.5156460000000 1.0
C      1  0.4049030000000  0.4840820000000  0.4636670000000 1.0
C      1  0.4044430000000  0.5157010000000  0.4636620000000 1.0
C      1  0.5425700000000  0.5249650000000  0.4795190000000 1.0
C      1  0.5425190000000  0.4750030000000  0.4794590000000 1.0
C      1  0.4105300000000  0.5590610000000  0.4649480000000 1.0
C      1  0.4102110000000  0.4405620000000  0.4642280000000 1.0
C      1  0.5071600000000  0.4484760000000  0.4888960000000 1.0
C      1  0.5072560000000  0.5516160000000  0.4889250000000 1.0
C      1  0.5498570000000  0.4233960000000  0.5674530000000 1.0
C      1  0.5494600000000  0.5760840000000  0.5676510000000 1.0
C      1  0.4601550000000  0.4478900000000  0.4958040000000 1.0
C      1  0.4603410000000  0.5524170000000  0.4955210000000 1.0
C      1  0.5075060000000  0.4017460000000  0.5432770000000 1.0
C      1  0.5076260000000  0.5986830000000  0.5432360000000 1.0
C      1  0.5543080000000  0.5185700000000  0.4312970000000 1.0
C      1  0.5542700000000  0.4814360000000  0.4312520000000 1.0
C      1  0.5735490000000  0.4838050000000  0.5167960000000 1.0
C      1  0.5735080000000  0.5160370000000  0.5167910000000 1.0
C      1  0.4820810000000  0.4851930000000  0.5051380000000 1.0
C      1  0.4820610000000  0.5148460000000  0.5051550000000 1.0
C      1  0.4127650000000  0.4347090000000  0.4938750000000 1.0
C      1  0.4134200000000  0.5647560000000  0.4946460000000 1.0
C      1  0.5288000000000  0.4043970000000  0.4970720000000 1.0
C      1  0.5289440000000  0.5957590000000  0.4971270000000 1.0
C      1  0.5707420000000  0.4627620000000  0.5552840000000 1.0
C      1  0.5703890000000  0.5367420000000  0.5554050000000 1.0
C      1  0.5487970000000  0.4298880000000  0.4384570000000 1.0
C      1  0.5489420000000  0.5700850000000  0.4385340000000 1.0
C      1  0.4689300000000  0.4624590000000  0.5794540000000 1.0
C      1  0.4677030000000  0.5393510000000  0.5792580000000 1.0
C      1  0.5779150000000  0.5595880000000  0.5376030000000 1.0
C      1  0.5782360000000  0.4400240000000  0.5373770000000 1.0
C      1  0.5290230000000  0.5596190000000  0.4213220000000 1.0
C      1  0.5288810000000  0.4404300000000  0.4212880000000 1.0
C      1  0.5695840000000  0.4334150000000  0.4900240000000 1.0
C      1  0.5695750000000  0.5664900000000  0.4902650000000 1.0
C      1  0.4581500000000  0.4696460000000  0.4133170000000 1.0
C      1  0.4581340000000  0.5304400000000  0.4133330000000 1.0
C      1  0.4985960000000  0.5238430000000  0.4845990000000 1.0
C      1  0.4985400000000  0.4762570000000  0.4845270000000 1.0
C      1  0.4737960000000  0.4351870000000  0.5634810000000 1.0
C      1  0.4733200000000  0.5657470000000  0.5630770000000 1.0
C      1  0.4338180000000  0.4136810000000  0.5001970000000 1.0
C      1  0.4339360000000  0.5866600000000  0.4999470000000 1.0
C      1  0.4507740000000  0.5789020000000  0.5470380000000 1.0
C      1  0.4511060000000  0.4218930000000  0.5473990000000 1.0
C      1  0.4517620000000  0.5501160000000  0.4457860000000 1.0
C      1  0.4516400000000  0.4499990000000  0.4458090000000 1.0
C      1  0.4282050000000  0.5189000000000  0.5111820000000 1.0
C      1  0.4268490000000  0.4804850000000  0.5109580000000 1.0
C      1  0.4408820000000  0.5155930000000  0.5620360000000 1.0
C      1  0.4415020000000  0.4846880000000  0.5626900000000 1.0
C      1  0.5772710000000  0.5351530000000  0.4443420000000 1.0
C      1  0.5772240000000  0.4648140000000  0.4442520000000 1.0
C      1  0.4901610000000  0.4853920000000  0.5810140000000 1.0
C      1  0.4882930000000  0.5160050000000  0.5810870000000 1.0
C      1  0.5174650000000  0.5191190000000  0.5716040000000 1.0
C      1  0.5188150000000  0.4806910000000  0.5714020000000 1.0
C      1  0.4353980000000  0.4849930000000  0.4250420000000 1.0
C      1  0.4354410000000  0.5150660000000  0.4252000000000 1.0
C      1  0.4574080000000  0.4677580000000  0.4700080000000 1.0
C      1  0.4575580000000  0.5323280000000  0.4698750000000 1.0
C      1  0.4892400000000  0.5174070000000  0.5343660000000 1.0
C      1  0.4893870000000  0.4826320000000  0.5343440000000 1.0
C      1  0.5175730000000  0.4727460000000  0.5426250000000 1.0
C      1  0.5170860000000  0.5273610000000  0.5427930000000 1.0
C      1  0.4100090000000  0.5134630000000  0.5509510000000 1.0
C      1  0.4063970000000  0.4837690000000  0.5501120000000 1.0
C      1  0.5919310000000  0.4842790000000  0.5574360000000 1.0
C      1  0.5917310000000  0.5152830000000  0.5574770000000 1.0
C      1  0.5542920000000  0.5762560000000  0.5366650000000 1.0
C      1  0.5545570000000  0.4234430000000  0.5364540000000 1.0
C      1  0.5911580000000  0.4436240000000  0.5106870000000 1.0
C      1  0.5910610000000  0.5562500000000  0.5109730000000 1.0
C      1  0.4313450000000  0.4844050000000  0.4803970000000 1.0
C      1  0.4316320000000  0.5155430000000  0.4804570000000 1.0
C      1  0.4791290000000  0.5904040000000  0.4751280000000 1.0
C      1  0.4789560000000  0.4097040000000  0.4752390000000 1.0
C      1  0.5247540000000  0.4085610000000  0.4690750000000 1.0
C      1  0.5249660000000  0.5915000000000  0.4691260000000 1.0
C      1  0.5005410000000  0.4229710000000  0.5603520000000 1.0
C      1  0.5002150000000  0.5777140000000  0.5604340000000 1.0
C      1  0.3975770000000  0.5537590000000  0.5169120000000 1.0
C      1  0.3974980000000  0.4453360000000  0.5164850000000 1.0
C      1  0.5214490000000  0.5708390000000  0.5790410000000 1.0
C      1  0.5218720000000  0.4290000000000  0.5790550000000 1.0
C      1  0.5369570000000  0.5323670000000  0.4100660000000 1.0
C      1  0.5368800000000  0.4676700000000  0.4100280000000 1.0
C      1  0.6017700000000  0.5281420000000  0.5114050000000 1.0
C      1  0.6018440000000  0.4717590000000  0.5112540000000 1.0
C      1  0.5030400000000  0.5725760000000  0.4658560000000 1.0
C      1  0.5028500000000  0.4275100000000  0.4658720000000 1.0
C      1  0.4840440000000  0.5155020000000  0.4606200000000 1.0
C      1  0.4839720000000  0.4846590000000  0.4605860000000 1.0
C      1  0.4733370000000  0.4452330000000  0.4240900000000 1.0
C      1  0.4734450000000  0.5548790000000  0.4240450000000 1.0
END
