TITL C-3578195-8548-320 -1.70915613752971e-06 125000 -646.415990562852 0 0 104 (C1) n - 1
REM
REM in /home/bkarasulu/work/CARBON/AIRSS/Generating-Clusters/EDIP-Nigel-Params/with-SteepDescent/Higher-Symm/SD-CG/HFTN-CG
REM
REM
REM
REM
REM
REM ./C.cell (12c818d87b63d06a65506943cc24bca4)
REM
REM compiler GCC version 9.2.1 20190827 (Red Hat 9.2.1-1)
REM options -cpp -mtune=generic -march=x86-64 -g -O0 -fpre-include=/usr/include/finclude/math-vector-fortran.h
REM seed -1674922249 -168217813 -758204804 -104409407 1633417557 1780140171 717990856 178599856 31899074 12108073 -381543175 171958476 -532980834 1835361518 1198638397 886985294 678046323 -1438278209 -782338204 -1892061688 -1381240066 325723541 1207409895 -122900818 1311665882 -2006922902 -407420472 -1125496959 1828672300 -1787216051 1871527143 -1821061430 -1499813610
REM
CELL 1.54180   50.00000   50.00000   50.00000   90.00000   90.00000   90.00000
LATT -1
SFAC C  
C      1  0.5895950000000  0.5001340000000  0.5315260000000 1.0
C      1  0.5749630000000  0.4752150000000  0.5377630000000 1.0
C      1  0.5683130000000  0.4615040000000  0.5130170000000 1.0
C      1  0.5793360000000  0.4695150000000  0.4879180000000 1.0
C      1  0.5775320000000  0.4833330000000  0.4632460000000 1.0
C      1  0.5855500000000  0.5104020000000  0.4634170000000 1.0
C      1  0.5759980000000  0.5366980000000  0.4670950000000 1.0
C      1  0.5827030000000  0.5501350000000  0.4912150000000 1.0
C      1  0.5824620000000  0.5518120000000  0.5186210000000 1.0
C      1  0.5774090000000  0.5409750000000  0.5444880000000 1.0
C      1  0.5937320000000  0.5193300000000  0.5518870000000 1.0
C      1  0.4554940000000  0.4570550000000  0.5509670000000 1.0
C      1  0.4460960000000  0.4424100000000  0.5272550000000 1.0
C      1  0.4611570000000  0.4514890000000  0.5040390000000 1.0
C      1  0.4449100000000  0.4666400000000  0.4489910000000 1.0
C      1  0.4527220000000  0.4873340000000  0.4299380000000 1.0
C      1  0.4478250000000  0.5157310000000  0.4352150000000 1.0
C      1  0.4483160000000  0.5652070000000  0.4751660000000 1.0
C      1  0.4508090000000  0.5783280000000  0.5013500000000 1.0
C      1  0.4438350000000  0.5614930000000  0.5244250000000 1.0
C      1  0.4661430000000  0.5022580000000  0.5316870000000 1.0
C      1  0.4521840000000  0.4866480000000  0.5532980000000 1.0
C      1  0.5154690000000  0.4461410000000  0.4195650000000 1.0
C      1  0.5236730000000  0.4940910000000  0.4045880000000 1.0
C      1  0.5231850000000  0.5430870000000  0.4188000000000 1.0
C      1  0.5190360000000  0.5793270000000  0.4566660000000 1.0
C      1  0.5217280000000  0.5888290000000  0.5073740000000 1.0
C      1  0.5185980000000  0.5730720000000  0.5552600000000 1.0
C      1  0.5148300000000  0.5302350000000  0.5843850000000 1.0
C      1  0.5187720000000  0.4749930000000  0.5887160000000 1.0
C      1  0.5249830000000  0.4340350000000  0.5549080000000 1.0
C      1  0.5204960000000  0.4080080000000  0.5128450000000 1.0
C      1  0.5136510000000  0.4152310000000  0.4617630000000 1.0
C      1  0.4230850000000  0.4941890000000  0.5503060000000 1.0
C      1  0.4100270000000  0.4733150000000  0.5370410000000 1.0
C      1  0.4178120000000  0.4527530000000  0.5196340000000 1.0
C      1  0.4139270000000  0.4589500000000  0.4918150000000 1.0
C      1  0.4221430000000  0.4720990000000  0.4675680000000 1.0
C      1  0.4137130000000  0.4984190000000  0.4638610000000 1.0
C      1  0.4277580000000  0.5210820000000  0.4554030000000 1.0
C      1  0.4282990000000  0.5436760000000  0.4736540000000 1.0
C      1  0.4119440000000  0.5406620000000  0.4961960000000 1.0
C      1  0.4230520000000  0.5411660000000  0.5216990000000 1.0
C      1  0.4192930000000  0.5201820000000  0.5401240000000 1.0
C      1  0.5083690000000  0.5001890000000  0.4478990000000 1.0
C      1  0.4937650000000  0.5241310000000  0.4563720000000 1.0
C      1  0.5010220000000  0.5417790000000  0.4790300000000 1.0
C      1  0.4879050000000  0.5326690000000  0.5038590000000 1.0
C      1  0.5037550000000  0.5378320000000  0.5284820000000 1.0
C      1  0.5033200000000  0.5157580000000  0.5507540000000 1.0
C      1  0.5097920000000  0.4842360000000  0.5465130000000 1.0
C      1  0.5096580000000  0.4667800000000  0.5176160000000 1.0
C      1  0.4893880000000  0.4431120000000  0.5063500000000 1.0
C      1  0.4942060000000  0.4364170000000  0.4741850000000 1.0
C      1  0.5036420000000  0.4688190000000  0.4595550000000 1.0
C      1  0.5525150000000  0.4788740000000  0.4466080000000 1.0
C      1  0.5381290000000  0.5071630000000  0.4450490000000 1.0
C      1  0.5466120000000  0.5362620000000  0.4609100000000 1.0
C      1  0.5309480000000  0.5461100000000  0.4860360000000 1.0
C      1  0.5331220000000  0.5439100000000  0.5220660000000 1.0
C      1  0.5482750000000  0.5343790000000  0.5496210000000 1.0
C      1  0.5447950000000  0.5062280000000  0.5619960000000 1.0
C      1  0.5483140000000  0.4794350000000  0.5510840000000 1.0
C      1  0.5398070000000  0.4516280000000  0.5126330000000 1.0
C      1  0.5399310000000  0.4419700000000  0.4851460000000 1.0
C      1  0.5329850000000  0.4565570000000  0.4593490000000 1.0
C      1  0.4492820000000  0.4374980000000  0.4823970000000 1.0
C      1  0.4637260000000  0.4445750000000  0.4413190000000 1.0
C      1  0.4781200000000  0.4794300000000  0.4168300000000 1.0
C      1  0.4625660000000  0.5357660000000  0.4217850000000 1.0
C      1  0.4673800000000  0.5722640000000  0.4553520000000 1.0
C      1  0.4715830000000  0.5971430000000  0.5054180000000 1.0
C      1  0.4633320000000  0.5590960000000  0.5460620000000 1.0
C      1  0.4590070000000  0.5323080000000  0.5544630000000 1.0
C      1  0.4702820000000  0.4935290000000  0.5776760000000 1.0
C      1  0.4796120000000  0.4488580000000  0.5650300000000 1.0
C      1  0.4565930000000  0.4145290000000  0.5288270000000 1.0
C      1  0.4959430000000  0.4285800000000  0.5528970000000 1.0
C      1  0.4863740000000  0.4189030000000  0.5261510000000 1.0
C      1  0.4676620000000  0.4280800000000  0.4640140000000 1.0
C      1  0.4900720000000  0.4574090000000  0.4329920000000 1.0
C      1  0.4981830000000  0.5000960000000  0.4190600000000 1.0
C      1  0.4880650000000  0.5404010000000  0.4328120000000 1.0
C      1  0.4923120000000  0.5697260000000  0.4699040000000 1.0
C      1  0.4935810000000  0.5810870000000  0.5127010000000 1.0
C      1  0.4926070000000  0.5646290000000  0.5381480000000 1.0
C      1  0.4794860000000  0.5203020000000  0.5710070000000 1.0
C      1  0.4933630000000  0.4742290000000  0.5717810000000 1.0
C      1  0.5368780000000  0.4585540000000  0.5698440000000 1.0
C      1  0.5367900000000  0.4265540000000  0.5287880000000 1.0
C      1  0.5306010000000  0.4142030000000  0.4861810000000 1.0
C      1  0.5294460000000  0.4313320000000  0.4410550000000 1.0
C      1  0.5339030000000  0.4685650000000  0.4142500000000 1.0
C      1  0.5387000000000  0.5176280000000  0.4159950000000 1.0
C      1  0.5356980000000  0.5577230000000  0.4411640000000 1.0
C      1  0.5344490000000  0.5768100000000  0.4827180000000 1.0
C      1  0.5353750000000  0.5744190000000  0.5296150000000 1.0
C      1  0.5320970000000  0.5508480000000  0.5701820000000 1.0
C      1  0.5298750000000  0.5041170000000  0.5868190000000 1.0
C      1  0.5279930000000  0.5018260000000  0.4911970000000 1.0
C      1  0.5786030000000  0.5092720000000  0.5070870000000 1.0
C      1  0.5517510000000  0.5099660000000  0.5007480000000 1.0
C      1  0.4811470000000  0.5049070000000  0.5064150000000 1.0
C      1  0.5049680000000  0.4886470000000  0.4989000000000 1.0
END
