TITL C-3578195-8548-79 -2.90225178996618e-07 125000 -414.166402110401 0 0 70 (S10) n - 1
REM
REM in /home/bkarasulu/work/CARBON/AIRSS/Generating-Clusters/EDIP-Nigel-Params/with-SteepDescent/Higher-Symm/SD-CG/HFTN-CG
REM
REM
REM
REM
REM
REM ./C.cell (12c818d87b63d06a65506943cc24bca4)
REM
REM compiler GCC version 9.2.1 20190827 (Red Hat 9.2.1-1)
REM options -cpp -mtune=generic -march=x86-64 -g -O0 -fpre-include=/usr/include/finclude/math-vector-fortran.h
REM seed 330160492 40183115 330750915 570858815 -543811147 47892836 -325656018 1356541192 1711296249 -221761880 -1607395843 -406651002 2080291627 673708976 325333477 38262913 2135798518 1079703130 -332550891 -687064101 -485843069 -1802966567 -1197621738 -592092536 -932584592 -576510174 269421675 -265157364 1579952695 -1648248658 895881242 271569308 -293852280
REM
CELL 1.54180   50.00000   50.00000   50.00000   90.00000   90.00000   90.00000
LATT -1
SFAC C  
C      1  0.4967080000000  0.5825480000000  0.4829600000000 1.0
C      1  0.5032830000000  0.5767990000000  0.5347360000000 1.0
C      1  0.4967020000000  0.5417140000000  0.5732430000000 1.0
C      1  0.5032820000000  0.4906970000000  0.5837740000000 1.0
C      1  0.4967080000000  0.4432320000000  0.5623060000000 1.0
C      1  0.5032920000000  0.4174520000000  0.5170400000000 1.0
C      1  0.4967170000000  0.4232010000000  0.4652640000000 1.0
C      1  0.5032980000000  0.4582860000000  0.4267570000000 1.0
C      1  0.4967180000000  0.5093030000000  0.4162260000000 1.0
C      1  0.5032920000000  0.5567680000000  0.4376940000000 1.0
C      1  0.4543160000000  0.4437790000000  0.4672970000000 1.0
C      1  0.5456960000000  0.4737410000000  0.4405050000000 1.0
C      1  0.4543160000000  0.5137240000000  0.4364240000000 1.0
C      1  0.5456910000000  0.5484740000000  0.4566420000000 1.0
C      1  0.4543080000000  0.5647000000000  0.4934060000000 1.0
C      1  0.5456840000000  0.5562210000000  0.5327030000000 1.0
C      1  0.4543040000000  0.5262590000000  0.5594950000000 1.0
C      1  0.5456840000000  0.4862760000000  0.5635760000000 1.0
C      1  0.4543090000000  0.4515260000000  0.5433580000000 1.0
C      1  0.5456920000000  0.4353000000000  0.5065940000000 1.0
C      1  0.5694240000000  0.5242410000000  0.4909820000000 1.0
C      1  0.4305740000000  0.5249090000000  0.5069400000000 1.0
C      1  0.5694210000000  0.5160760000000  0.5202690000000 1.0
C      1  0.4305740000000  0.5010890000000  0.5258340000000 1.0
C      1  0.5694230000000  0.4856990000000  0.5215530000000 1.0
C      1  0.4305760000000  0.4757590000000  0.5090180000000 1.0
C      1  0.5694260000000  0.4750910000000  0.4930600000000 1.0
C      1  0.4305790000000  0.4839240000000  0.4797310000000 1.0
C      1  0.5694260000000  0.4989110000000  0.4741660000000 1.0
C      1  0.4305770000000  0.5143010000000  0.4784470000000 1.0
C      1  0.5202460000000  0.5260220000000  0.4924970000000 1.0
C      1  0.4797510000000  0.5254620000000  0.5092210000000 1.0
C      1  0.5202440000000  0.5151800000000  0.5224300000000 1.0
C      1  0.4797510000000  0.4990960000000  0.5270650000000 1.0
C      1  0.5202450000000  0.4833610000000  0.5213680000000 1.0
C      1  0.4797540000000  0.4739780000000  0.5075030000000 1.0
C      1  0.5202490000000  0.4745380000000  0.4907790000000 1.0
C      1  0.4797560000000  0.4848200000000  0.4775700000000 1.0
C      1  0.5202490000000  0.5009040000000  0.4729350000000 1.0
C      1  0.4797550000000  0.5166390000000  0.4786320000000 1.0
C      1  0.5106350000000  0.4496490000000  0.5376210000000 1.0
C      1  0.4893660000000  0.4371520000000  0.5008390000000 1.0
C      1  0.5106420000000  0.4486620000000  0.4637390000000 1.0
C      1  0.4893700000000  0.4797800000000  0.4404870000000 1.0
C      1  0.5106410000000  0.5186230000000  0.4399700000000 1.0
C      1  0.4893650000000  0.5503510000000  0.4623790000000 1.0
C      1  0.5106340000000  0.5628480000000  0.4991610000000 1.0
C      1  0.4893580000000  0.5513380000000  0.5362610000000 1.0
C      1  0.5106300000000  0.5202200000000  0.5595130000000 1.0
C      1  0.4893590000000  0.4813770000000  0.5600300000000 1.0
C      1  0.5458990000000  0.5281160000000  0.5344750000000 1.0
C      1  0.4540930000000  0.5024810000000  0.5444080000000 1.0
C      1  0.5459010000000  0.4759060000000  0.5373940000000 1.0
C      1  0.4540970000000  0.4585260000000  0.5160820000000 1.0
C      1  0.5459060000000  0.4569960000000  0.4886420000000 1.0
C      1  0.4541010000000  0.4718840000000  0.4655250000000 1.0
C      1  0.5459070000000  0.4975190000000  0.4555920000000 1.0
C      1  0.4540990000000  0.5240940000000  0.4626060000000 1.0
C      1  0.5459030000000  0.5414740000000  0.4839180000000 1.0
C      1  0.4540940000000  0.5430040000000  0.5113580000000 1.0
C      1  0.4715910000000  0.4253820000000  0.4790020000000 1.0
C      1  0.5284230000000  0.4519770000000  0.4391580000000 1.0
C      1  0.4715920000000  0.4969090000000  0.4225450000000 1.0
C      1  0.5284190000000  0.5430270000000  0.4355260000000 1.0
C      1  0.4715840000000  0.5727060000000  0.4731250000000 1.0
C      1  0.5284090000000  0.5746180000000  0.5209980000000 1.0
C      1  0.4715770000000  0.5480230000000  0.5608420000000 1.0
C      1  0.5284080000000  0.5030910000000  0.5774550000000 1.0
C      1  0.4715810000000  0.4569730000000  0.5644740000000 1.0
C      1  0.5284160000000  0.4272940000000  0.5268750000000 1.0
END
