TITL C-3577084-3642-137 -1.52043320458618e-06 125000 -872.348935696813 0 0 137 (C1) n - 1
REM
REM in /home/bkarasulu/work/CARBON/AIRSS/Generating-Clusters/EDIP-Nigel-Params/with-SteepDescent/Higher-Symm/SD-CG/HFTN-CG
REM
REM
REM
REM
REM
REM ./C.cell (12c818d87b63d06a65506943cc24bca4)
REM
REM compiler GCC version 9.2.1 20190827 (Red Hat 9.2.1-1)
REM options -cpp -mtune=generic -march=x86-64 -g -O0 -fpre-include=/usr/include/finclude/math-vector-fortran.h
REM seed -1284269357 2046668884 -1353462665 1604163621 1864339814 321292056 1442839857 -407428691 1066510324 188628326 1533523800 1708266722 -857795481 647858048 710201794 -2066114452 -1175118419 867707310 -1977171172 -748678411 245474362 1648061456 -967720112 -1743541708 -131251200 1270219303 798212153 -338376329 191571347 1449536803 1827541425 -916115681 782153464
REM
CELL 1.54180   50.00000   50.00000   50.00000   90.00000   90.00000   90.00000
LATT -1
SFAC C  
C      1  0.4930010000000  0.5079020000000  0.5319760000000 1.0
C      1  0.5230140000000  0.5463630000000  0.4825300000000 1.0
C      1  0.5491020000000  0.4851420000000  0.5308260000000 1.0
C      1  0.5242620000000  0.4684480000000  0.5440060000000 1.0
C      1  0.4847900000000  0.4630510000000  0.4722160000000 1.0
C      1  0.5313350000000  0.5134350000000  0.4630570000000 1.0
C      1  0.4806270000000  0.4525960000000  0.5004560000000 1.0
C      1  0.5363510000000  0.4503540000000  0.5194440000000 1.0
C      1  0.4757440000000  0.5422310000000  0.5050100000000 1.0
C      1  0.4655050000000  0.5166800000000  0.5221100000000 1.0
C      1  0.5487870000000  0.5260100000000  0.4902590000000 1.0
C      1  0.4533940000000  0.4736520000000  0.4858410000000 1.0
C      1  0.4007350000000  0.4992250000000  0.5272750000000 1.0
C      1  0.4965150000000  0.5359760000000  0.3943790000000 1.0
C      1  0.5344490000000  0.3937680000000  0.4978130000000 1.0
C      1  0.6005220000000  0.4995550000000  0.5274550000000 1.0
C      1  0.3985700000000  0.5016260000000  0.4696990000000 1.0
C      1  0.5972140000000  0.4982280000000  0.4710070000000 1.0
C      1  0.5017890000000  0.4636500000000  0.4054760000000 1.0
C      1  0.4958230000000  0.4618460000000  0.5973270000000 1.0
C      1  0.5018440000000  0.5301520000000  0.6031590000000 1.0
C      1  0.4698730000000  0.6028100000000  0.4971390000000 1.0
C      1  0.5280370000000  0.6025240000000  0.4989420000000 1.0
C      1  0.4669860000000  0.3924470000000  0.4974230000000 1.0
C      1  0.4936410000000  0.4402210000000  0.4521870000000 1.0
C      1  0.4234880000000  0.4361740000000  0.4957370000000 1.0
C      1  0.4373920000000  0.4985430000000  0.4226720000000 1.0
C      1  0.5009980000000  0.5796530000000  0.4336360000000 1.0
C      1  0.4975990000000  0.5779160000000  0.5616170000000 1.0
C      1  0.5005120000000  0.4239330000000  0.5585540000000 1.0
C      1  0.5737130000000  0.5621960000000  0.4962850000000 1.0
C      1  0.4221360000000  0.5652310000000  0.5006670000000 1.0
C      1  0.5737240000000  0.4342950000000  0.5035070000000 1.0
C      1  0.5465920000000  0.5066630000000  0.4360010000000 1.0
C      1  0.4436360000000  0.4990520000000  0.5693990000000 1.0
C      1  0.5596830000000  0.4954660000000  0.5725110000000 1.0
C      1  0.4289900000000  0.4197400000000  0.5173980000000 1.0
C      1  0.4191520000000  0.5191390000000  0.4261520000000 1.0
C      1  0.5192230000000  0.4502470000000  0.4374140000000 1.0
C      1  0.5722080000000  0.5809940000000  0.5166320000000 1.0
C      1  0.4255650000000  0.5830800000000  0.4796410000000 1.0
C      1  0.5653840000000  0.4126930000000  0.4859120000000 1.0
C      1  0.5617140000000  0.4802420000000  0.4338550000000 1.0
C      1  0.4320460000000  0.4722880000000  0.5710260000000 1.0
C      1  0.5777570000000  0.5161650000000  0.5692510000000 1.0
C      1  0.4790370000000  0.5746950000000  0.4173600000000 1.0
C      1  0.5184770000000  0.5710830000000  0.5785760000000 1.0
C      1  0.4784270000000  0.4396960000000  0.5710440000000 1.0
C      1  0.4347790000000  0.4372320000000  0.4692400000000 1.0
C      1  0.4354270000000  0.4710490000000  0.4319500000000 1.0
C      1  0.4696890000000  0.4329110000000  0.4347960000000 1.0
C      1  0.5624810000000  0.5628350000000  0.4696510000000 1.0
C      1  0.4357270000000  0.5629570000000  0.5263280000000 1.0
C      1  0.5692930000000  0.4314890000000  0.5324180000000 1.0
C      1  0.5624080000000  0.5313260000000  0.4296690000000 1.0
C      1  0.4436560000000  0.5261290000000  0.5588930000000 1.0
C      1  0.5640370000000  0.4672970000000  0.5683060000000 1.0
C      1  0.5272680000000  0.5672490000000  0.4346330000000 1.0
C      1  0.4704100000000  0.5680500000000  0.5625870000000 1.0
C      1  0.5285270000000  0.4298950000000  0.5628520000000 1.0
C      1  0.5239320000000  0.4541550000000  0.4906330000000 1.0
C      1  0.4517380000000  0.4856360000000  0.5183210000000 1.0
C      1  0.4843860000000  0.5119970000000  0.4711840000000 1.0
C      1  0.4904480000000  0.5396480000000  0.4775840000000 1.0
C      1  0.5059760000000  0.5497520000000  0.5119210000000 1.0
C      1  0.4726270000000  0.4649050000000  0.5269390000000 1.0
C      1  0.5437700000000  0.5187460000000  0.5243520000000 1.0
C      1  0.4599880000000  0.5052420000000  0.4861900000000 1.0
C      1  0.5462170000000  0.4918450000000  0.4986190000000 1.0
C      1  0.5076270000000  0.4940520000000  0.4674920000000 1.0
C      1  0.4963510000000  0.4799580000000  0.5383380000000 1.0
C      1  0.5148750000000  0.5266460000000  0.5283580000000 1.0
C      1  0.5512780000000  0.5775870000000  0.5346260000000 1.0
C      1  0.5760560000000  0.5350920000000  0.5489300000000 1.0
C      1  0.5364870000000  0.5502910000000  0.5757120000000 1.0
C      1  0.4511120000000  0.4193920000000  0.5340290000000 1.0
C      1  0.5477160000000  0.4186400000000  0.4636800000000 1.0
C      1  0.4457800000000  0.5805930000000  0.4606450000000 1.0
C      1  0.4220150000000  0.4593390000000  0.5479560000000 1.0
C      1  0.5638160000000  0.4649610000000  0.4580660000000 1.0
C      1  0.4200160000000  0.5387140000000  0.4458280000000 1.0
C      1  0.4482420000000  0.4561840000000  0.5884920000000 1.0
C      1  0.5473760000000  0.4637340000000  0.4152670000000 1.0
C      1  0.4605770000000  0.5540650000000  0.4198240000000 1.0
C      1  0.4726710000000  0.4053720000000  0.5216670000000 1.0
C      1  0.4077270000000  0.5278900000000  0.4702290000000 1.0
C      1  0.5257320000000  0.4782110000000  0.4036300000000 1.0
C      1  0.5275720000000  0.5922140000000  0.5248040000000 1.0
C      1  0.4705830000000  0.5923090000000  0.4714580000000 1.0
C      1  0.5246840000000  0.4017210000000  0.4710120000000 1.0
C      1  0.5815470000000  0.4762020000000  0.4774820000000 1.0
C      1  0.4103060000000  0.4733590000000  0.5257990000000 1.0
C      1  0.5877770000000  0.5241490000000  0.5247450000000 1.0
C      1  0.4725140000000  0.5302440000000  0.4075100000000 1.0
C      1  0.5249400000000  0.5263520000000  0.5881870000000 1.0
C      1  0.4695730000000  0.4729490000000  0.5989360000000 1.0
C      1  0.4128250000000  0.4623170000000  0.4996460000000 1.0
C      1  0.4628430000000  0.5027300000000  0.4101350000000 1.0
C      1  0.4986810000000  0.4159320000000  0.4692970000000 1.0
C      1  0.5897420000000  0.5385910000000  0.4997690000000 1.0
C      1  0.4090510000000  0.5399870000000  0.4963180000000 1.0
C      1  0.5879740000000  0.4597710000000  0.4997710000000 1.0
C      1  0.5252020000000  0.5044990000000  0.4158700000000 1.0
C      1  0.4656320000000  0.4992490000000  0.5874180000000 1.0
C      1  0.5349710000000  0.4995410000000  0.5860430000000 1.0
C      1  0.4967150000000  0.5916320000000  0.4593470000000 1.0
C      1  0.5014630000000  0.5871590000000  0.5349540000000 1.0
C      1  0.4985580000000  0.4090780000000  0.5336640000000 1.0
C      1  0.4763080000000  0.4759660000000  0.4096370000000 1.0
C      1  0.4730240000000  0.4019300000000  0.4716990000000 1.0
C      1  0.4106830000000  0.4771210000000  0.4751310000000 1.0
C      1  0.5228270000000  0.5292570000000  0.4010680000000 1.0
C      1  0.4769210000000  0.5253380000000  0.5919870000000 1.0
C      1  0.5202050000000  0.4738970000000  0.5874820000000 1.0
C      1  0.5212750000000  0.5900090000000  0.4749560000000 1.0
C      1  0.4757590000000  0.5948260000000  0.5232550000000 1.0
C      1  0.5251120000000  0.4076310000000  0.5215300000000 1.0
C      1  0.5896810000000  0.5248170000000  0.4740400000000 1.0
C      1  0.4114300000000  0.5237830000000  0.5204090000000 1.0
C      1  0.5910360000000  0.4732880000000  0.5252760000000 1.0
C      1  0.5731110000000  0.5404220000000  0.4558240000000 1.0
C      1  0.5390650000000  0.4538220000000  0.5772850000000 1.0
C      1  0.4567100000000  0.5789310000000  0.5387700000000 1.0
C      1  0.4241560000000  0.4607150000000  0.4562160000000 1.0
C      1  0.5788190000000  0.4564490000000  0.5457100000000 1.0
C      1  0.4293850000000  0.5374460000000  0.5374330000000 1.0
C      1  0.4640580000000  0.5413040000000  0.5717680000000 1.0
C      1  0.5406100000000  0.5484510000000  0.4162920000000 1.0
C      1  0.4579650000000  0.4567700000000  0.4211270000000 1.0
C      1  0.5442820000000  0.4168330000000  0.5417770000000 1.0
C      1  0.4529390000000  0.4183770000000  0.4555510000000 1.0
C      1  0.5406070000000  0.5773790000000  0.4581710000000 1.0
C      1  0.5390510000000  0.4474370000000  0.4629710000000 1.0
C      1  0.4577270000000  0.4455420000000  0.5474660000000 1.0
C      1  0.4434570000000  0.5564800000000  0.4436370000000 1.0
C      1  0.5525770000000  0.5525350000000  0.5509670000000 1.0
C      1  0.5190500000000  0.4823500000000  0.4920250000000 1.0
END
