TITL C-3577091-527-270 6.34206434151855e-07 125000 -469.153763833114 0 0 76 (C4) n - 1
REM
REM in /home/bkarasulu/work/CARBON/AIRSS/Generating-Clusters/EDIP-Nigel-Params/with-SteepDescent/Higher-Symm/SD-CG/HFTN-CG
REM
REM
REM
REM
REM
REM ./C.cell (12c818d87b63d06a65506943cc24bca4)
REM
REM compiler GCC version 9.2.1 20190827 (Red Hat 9.2.1-1)
REM options -cpp -mtune=generic -march=x86-64 -g -O0 -fpre-include=/usr/include/finclude/math-vector-fortran.h
REM seed -667741581 -762235874 157440893 1623960062 -56402857 -99653614 -1815125286 -1345481932 157114915 529356620 1814312422 1681632247 -1114508136 739941866 466802033 -1216680228 461101448 1044141819 75920250 1617239358 1575159637 343734217 1674786537 -1144123626 1577972016 -498658108 1222506470 -950775485 -315859498 1892820869 -219678867 503463674 62037175
REM
CELL 1.54180   50.00000   50.00000   50.00000   90.00000   90.00000   90.00000
LATT -1
SFAC C  
C      1  0.4541060000000  0.4531850000000  0.4561930000000 1.0
C      1  0.4547120000000  0.5442320000000  0.4529950000000 1.0
C      1  0.5458150000000  0.5436240000000  0.4529380000000 1.0
C      1  0.5452100000000  0.4525770000000  0.4561360000000 1.0
C      1  0.4991190000000  0.5729890000000  0.5470410000000 1.0
C      1  0.5713360000000  0.5026610000000  0.5494490000000 1.0
C      1  0.5009670000000  0.4304900000000  0.5520440000000 1.0
C      1  0.4287490000000  0.5008180000000  0.5496360000000 1.0
C      1  0.4844740000000  0.5181050000000  0.5687750000000 1.0
C      1  0.5157390000000  0.5180100000000  0.5687510000000 1.0
C      1  0.5156460000000  0.4867640000000  0.5698480000000 1.0
C      1  0.4843800000000  0.4868580000000  0.5698720000000 1.0
C      1  0.4264250000000  0.5287820000000  0.5010780000000 1.0
C      1  0.5287280000000  0.5736010000000  0.4994160000000 1.0
C      1  0.5735780000000  0.4713600000000  0.5029670000000 1.0
C      1  0.4712750000000  0.4265410000000  0.5046300000000 1.0
C      1  0.4695010000000  0.5323190000000  0.5479360000000 1.0
C      1  0.5306590000000  0.5322420000000  0.5478860000000 1.0
C      1  0.5305840000000  0.4711210000000  0.5500320000000 1.0
C      1  0.4694250000000  0.4711980000000  0.5500820000000 1.0
C      1  0.5909480000000  0.5139240000000  0.5183260000000 1.0
C      1  0.5132880000000  0.4097870000000  0.5220500000000 1.0
C      1  0.4090850000000  0.4874020000000  0.5194140000000 1.0
C      1  0.4867440000000  0.5915380000000  0.5156900000000 1.0
C      1  0.5335410000000  0.5689440000000  0.4509980000000 1.0
C      1  0.5705810000000  0.4648050000000  0.4546240000000 1.0
C      1  0.4663790000000  0.4277900000000  0.4560130000000 1.0
C      1  0.4293380000000  0.5319300000000  0.4523880000000 1.0
C      1  0.4360290000000  0.5040250000000  0.4508830000000 1.0
C      1  0.5057040000000  0.5621690000000  0.4487810000000 1.0
C      1  0.5638860000000  0.4925360000000  0.4511770000000 1.0
C      1  0.4942120000000  0.4343910000000  0.4532790000000 1.0
C      1  0.5750620000000  0.5382020000000  0.5228170000000 1.0
C      1  0.5373980000000  0.4258540000000  0.5267940000000 1.0
C      1  0.4249800000000  0.4634980000000  0.5255690000000 1.0
C      1  0.4626440000000  0.5758460000000  0.5215920000000 1.0
C      1  0.4970360000000  0.4147730000000  0.4984420000000 1.0
C      1  0.4148770000000  0.5028010000000  0.4954220000000 1.0
C      1  0.5029560000000  0.5849070000000  0.4924620000000 1.0
C      1  0.5851150000000  0.4968800000000  0.4954830000000 1.0
C      1  0.4987930000000  0.4623680000000  0.4439970000000 1.0
C      1  0.4643070000000  0.4991480000000  0.4427350000000 1.0
C      1  0.5011080000000  0.5336110000000  0.4414930000000 1.0
C      1  0.5355940000000  0.4968310000000  0.4427550000000 1.0
C      1  0.4815960000000  0.5155520000000  0.4854050000000 1.0
C      1  0.5160420000000  0.5178860000000  0.4852930000000 1.0
C      1  0.5183790000000  0.4834620000000  0.4865000000000 1.0
C      1  0.4839340000000  0.4811270000000  0.4866120000000 1.0
C      1  0.5239170000000  0.4731710000000  0.4567670000000 1.0
C      1  0.4746670000000  0.4745120000000  0.4567630000000 1.0
C      1  0.4760070000000  0.5237310000000  0.4550330000000 1.0
C      1  0.5252570000000  0.5223910000000  0.4550380000000 1.0
C      1  0.4730190000000  0.5610650000000  0.5449240000000 1.0
C      1  0.5594910000000  0.5286530000000  0.5459880000000 1.0
C      1  0.5270620000000  0.4422350000000  0.5490500000000 1.0
C      1  0.4405900000000  0.4746470000000  0.5479870000000 1.0
C      1  0.5222660000000  0.5582880000000  0.5405720000000 1.0
C      1  0.5568650000000  0.4792780000000  0.5433160000000 1.0
C      1  0.4778070000000  0.4447020000000  0.5445990000000 1.0
C      1  0.4432080000000  0.5237130000000  0.5418540000000 1.0
C      1  0.5660090000000  0.5375390000000  0.4731780000000 1.0
C      1  0.5384360000000  0.4331160000000  0.4768690000000 1.0
C      1  0.4339470000000  0.4606760000000  0.4759910000000 1.0
C      1  0.4615210000000  0.5650990000000  0.4723010000000 1.0
C      1  0.5591750000000  0.5497880000000  0.4994600000000 1.0
C      1  0.5497770000000  0.4409050000000  0.5032920000000 1.0
C      1  0.4408270000000  0.4503010000000  0.5030560000000 1.0
C      1  0.4502250000000  0.5591830000000  0.4992250000000 1.0
C      1  0.5685250000000  0.5087550000000  0.4749470000000 1.0
C      1  0.5096080000000  0.4306300000000  0.4777420000000 1.0
C      1  0.4314320000000  0.4895130000000  0.4757410000000 1.0
C      1  0.4903500000000  0.5676390000000  0.4729470000000 1.0
C      1  0.5430310000000  0.4716160000000  0.5081340000000 1.0
C      1  0.4713540000000  0.4572540000000  0.5087000000000 1.0
C      1  0.4569810000000  0.5288870000000  0.5061970000000 1.0
C      1  0.5286580000000  0.5432490000000  0.5056310000000 1.0
END
