TITL C-3577077-324-627 6.90340968116578e-07 125000 -597.902312822493 0 0 95 (C1) n - 1
REM
REM in /home/bkarasulu/work/CARBON/AIRSS/Generating-Clusters/EDIP-Nigel-Params/with-SteepDescent/Higher-Symm/SD-CG/HFTN-CG
REM
REM
REM
REM
REM
REM ./C.cell (12c818d87b63d06a65506943cc24bca4)
REM
REM compiler GCC version 9.2.1 20190827 (Red Hat 9.2.1-1)
REM options -cpp -mtune=generic -march=x86-64 -g -O0 -fpre-include=/usr/include/finclude/math-vector-fortran.h
REM seed -148620502 1176460201 -2088220296 -238608395 1518126617 1166469229 -1790433275 -1956098186 388540172 -206635074 -270244655 -803788197 -485303763 1675683116 -672446388 1464524755 1182492229 -1419689176 -1361964117 -1966391013 -892918067 1844049870 1093729139 676598492 -1542133241 162478306 372615002 1468800880 -1771983296 -454702355 -1982706219 -273281591 -2041451916
REM
CELL 1.54180   50.00000   50.00000   50.00000   90.00000   90.00000   90.00000
LATT -1
SFAC C  
C      1  0.5467290000000  0.5583280000000  0.4802250000000 1.0
C      1  0.4566300000000  0.5664960000000  0.4808090000000 1.0
C      1  0.4211830000000  0.4790010000000  0.4800270000000 1.0
C      1  0.4944180000000  0.4214120000000  0.4798400000000 1.0
C      1  0.5690140000000  0.4732170000000  0.4781090000000 1.0
C      1  0.4955730000000  0.5271290000000  0.4840320000000 1.0
C      1  0.4801450000000  0.5028950000000  0.4807940000000 1.0
C      1  0.4964650000000  0.4786330000000  0.4833950000000 1.0
C      1  0.5274850000000  0.4868550000000  0.4853700000000 1.0
C      1  0.5261180000000  0.5192130000000  0.4847530000000 1.0
C      1  0.5595490000000  0.5584830000000  0.4523310000000 1.0
C      1  0.4641170000000  0.5732270000000  0.4522540000000 1.0
C      1  0.4203880000000  0.4890540000000  0.4507580000000 1.0
C      1  0.4840560000000  0.4182010000000  0.4516870000000 1.0
C      1  0.5718430000000  0.4609520000000  0.4505650000000 1.0
C      1  0.4302120000000  0.5267600000000  0.5045630000000 1.0
C      1  0.4490940000000  0.4357590000000  0.5027140000000 1.0
C      1  0.5373470000000  0.4387170000000  0.5033080000000 1.0
C      1  0.5664150000000  0.5167580000000  0.5031740000000 1.0
C      1  0.5039450000000  0.5726210000000  0.5048410000000 1.0
C      1  0.4513350000000  0.5512450000000  0.5426990000000 1.0
C      1  0.4413820000000  0.4718840000000  0.5309310000000 1.0
C      1  0.5096480000000  0.4288660000000  0.5434880000000 1.0
C      1  0.5713440000000  0.4868610000000  0.5439900000000 1.0
C      1  0.5343700000000  0.5638090000000  0.5450280000000 1.0
C      1  0.5330430000000  0.5240110000000  0.4532230000000 1.0
C      1  0.4919840000000  0.5400040000000  0.4563970000000 1.0
C      1  0.4602740000000  0.5050600000000  0.4602040000000 1.0
C      1  0.4884620000000  0.4601750000000  0.4594910000000 1.0
C      1  0.5305010000000  0.4726210000000  0.4563850000000 1.0
C      1  0.4642340000000  0.4826910000000  0.5451020000000 1.0
C      1  0.5062370000000  0.4582250000000  0.5475300000000 1.0
C      1  0.5424100000000  0.4923150000000  0.5497890000000 1.0
C      1  0.5210320000000  0.5374130000000  0.5494780000000 1.0
C      1  0.4720710000000  0.5305650000000  0.5470240000000 1.0
C      1  0.4410100000000  0.4424370000000  0.5307240000000 1.0
C      1  0.5358640000000  0.4268100000000  0.5300400000000 1.0
C      1  0.5788890000000  0.5115280000000  0.5294300000000 1.0
C      1  0.5131560000000  0.5801600000000  0.5317190000000 1.0
C      1  0.4275270000000  0.5374170000000  0.5315470000000 1.0
C      1  0.5770810000000  0.5369080000000  0.4452190000000 1.0
C      1  0.4892100000000  0.5858870000000  0.4469510000000 1.0
C      1  0.4165790000000  0.5170130000000  0.4464080000000 1.0
C      1  0.4574660000000  0.4280680000000  0.4468000000000 1.0
C      1  0.5579380000000  0.4362170000000  0.4465460000000 1.0
C      1  0.4155150000000  0.5006940000000  0.5023920000000 1.0
C      1  0.4772010000000  0.4266270000000  0.5037050000000 1.0
C      1  0.5579830000000  0.4595010000000  0.5022980000000 1.0
C      1  0.5571070000000  0.5440950000000  0.5037040000000 1.0
C      1  0.4745890000000  0.5744070000000  0.5037770000000 1.0
C      1  0.5206520000000  0.5719920000000  0.4812620000000 1.0
C      1  0.4373890000000  0.5434950000000  0.4820060000000 1.0
C      1  0.4434360000000  0.4576750000000  0.4834470000000 1.0
C      1  0.5230900000000  0.4288640000000  0.4803100000000 1.0
C      1  0.5709740000000  0.5022960000000  0.4785300000000 1.0
C      1  0.5697540000000  0.5331310000000  0.5471430000000 1.0
C      1  0.4893570000000  0.5765920000000  0.5491920000000 1.0
C      1  0.4259120000000  0.5127800000000  0.5490000000000 1.0
C      1  0.4637200000000  0.4339110000000  0.5491140000000 1.0
C      1  0.5532520000000  0.4437600000000  0.5467160000000 1.0
C      1  0.5698530000000  0.4609470000000  0.5295890000000 1.0
C      1  0.5591420000000  0.5553250000000  0.5311310000000 1.0
C      1  0.4647230000000  0.5755930000000  0.5320210000000 1.0
C      1  0.4178810000000  0.4896850000000  0.5306110000000 1.0
C      1  0.4838800000000  0.4196160000000  0.5316640000000 1.0
C      1  0.5219680000000  0.4845710000000  0.4291880000000 1.0
C      1  0.5149770000000  0.5121360000000  0.4318430000000 1.0
C      1  0.4855790000000  0.5165730000000  0.4261680000000 1.0
C      1  0.4732280000000  0.4888050000000  0.4216000000000 1.0
C      1  0.4956170000000  0.4695800000000  0.4288200000000 1.0
C      1  0.4850970000000  0.5194750000000  0.5213660000000 1.0
C      1  0.4810240000000  0.4904770000000  0.5231520000000 1.0
C      1  0.5058000000000  0.4750560000000  0.5213410000000 1.0
C      1  0.5279660000000  0.4959550000000  0.5229340000000 1.0
C      1  0.5154180000000  0.5236030000000  0.5223660000000 1.0
C      1  0.4787730000000  0.4612650000000  0.5610290000000 1.0
C      1  0.5299820000000  0.4680710000000  0.5642470000000 1.0
C      1  0.5395250000000  0.5187080000000  0.5655440000000 1.0
C      1  0.4941970000000  0.5433470000000  0.5636260000000 1.0
C      1  0.4568490000000  0.5076270000000  0.5606920000000 1.0
C      1  0.5608810000000  0.4854700000000  0.4358020000000 1.0
C      1  0.5333200000000  0.5582310000000  0.4381200000000 1.0
C      1  0.4618330000000  0.5444950000000  0.4400910000000 1.0
C      1  0.4505850000000  0.4812370000000  0.4425620000000 1.0
C      1  0.5060890000000  0.4329310000000  0.4365300000000 1.0
C      1  0.5212520000000  0.5102710000000  0.5890430000000 1.0
C      1  0.4949510000000  0.5245880000000  0.5881830000000 1.0
C      1  0.4730100000000  0.5039220000000  0.5870060000000 1.0
C      1  0.4859700000000  0.4766910000000  0.5871660000000 1.0
C      1  0.5157690000000  0.4808400000000  0.5883930000000 1.0
C      1  0.5620710000000  0.5126600000000  0.4518830000000 1.0
C      1  0.5087450000000  0.5656410000000  0.4546460000000 1.0
C      1  0.4415560000000  0.5283180000000  0.4569310000000 1.0
C      1  0.4584620000000  0.4552000000000  0.4579000000000 1.0
C      1  0.5303270000000  0.4413690000000  0.4545230000000 1.0
END
