TITL C-3577090-796-68 2.08510962924687e-07 125000 -521.169766052547 0 0 83 (C1) n - 1
REM
REM in /home/bkarasulu/work/CARBON/AIRSS/Generating-Clusters/EDIP-Nigel-Params/with-SteepDescent/Higher-Symm/SD-CG/HFTN-CG
REM
REM
REM
REM
REM
REM ./C.cell (12c818d87b63d06a65506943cc24bca4)
REM
REM compiler GCC version 9.2.1 20190827 (Red Hat 9.2.1-1)
REM options -cpp -mtune=generic -march=x86-64 -g -O0 -fpre-include=/usr/include/finclude/math-vector-fortran.h
REM seed -1559500327 -666656341 21465263 -554963417 1079606296 -1052840567 -2019201714 57483865 -1555297489 520662043 1751223280 747165088 -1738369663 -1263403255 658902332 -1988215174 902689955 1146737976 922938031 309477612 968874992 -480236968 -1031435806 694649583 -121607305 -1559936166 432500034 -832728067 1702060066 1220346343 1497597975 1647254700 -1569078905
REM
CELL 1.54180   50.00000   50.00000   50.00000   90.00000   90.00000   90.00000
LATT -1
SFAC C  
C      1  0.5629970000000  0.5369950000000  0.4790180000000 1.0
C      1  0.5397440000000  0.5403340000000  0.5545970000000 1.0
C      1  0.4616790000000  0.5412210000000  0.5539660000000 1.0
C      1  0.4361430000000  0.5439680000000  0.4800800000000 1.0
C      1  0.4992030000000  0.5417240000000  0.4339500000000 1.0
C      1  0.4368810000000  0.4605550000000  0.4779330000000 1.0
C      1  0.4611280000000  0.4643380000000  0.5516490000000 1.0
C      1  0.5388010000000  0.4640320000000  0.5532720000000 1.0
C      1  0.5644530000000  0.4590390000000  0.4789750000000 1.0
C      1  0.5009600000000  0.4579510000000  0.4317480000000 1.0
C      1  0.5262140000000  0.4344550000000  0.5014610000000 1.0
C      1  0.5065200000000  0.4385330000000  0.5236740000000 1.0
C      1  0.4787100000000  0.4366530000000  0.5127610000000 1.0
C      1  0.4815360000000  0.4358150000000  0.4835980000000 1.0
C      1  0.5101470000000  0.4353700000000  0.4768240000000 1.0
C      1  0.4765980000000  0.5678690000000  0.5022490000000 1.0
C      1  0.4959050000000  0.5662910000000  0.5243480000000 1.0
C      1  0.5234640000000  0.5671470000000  0.5134720000000 1.0
C      1  0.5206810000000  0.5658020000000  0.4840200000000 1.0
C      1  0.4918420000000  0.5673100000000  0.4771030000000 1.0
C      1  0.5687880000000  0.5054440000000  0.4367690000000 1.0
C      1  0.5797710000000  0.5106430000000  0.5489070000000 1.0
C      1  0.4800830000000  0.5078090000000  0.5899580000000 1.0
C      1  0.4087960000000  0.5125750000000  0.5105320000000 1.0
C      1  0.4597230000000  0.5120190000000  0.4166540000000 1.0
C      1  0.4311760000000  0.4912340000000  0.4365620000000 1.0
C      1  0.4195260000000  0.4923390000000  0.5440860000000 1.0
C      1  0.5184450000000  0.4956100000000  0.5907530000000 1.0
C      1  0.5923470000000  0.4925300000000  0.5102130000000 1.0
C      1  0.5377880000000  0.4927130000000  0.4153270000000 1.0
C      1  0.4513530000000  0.5450110000000  0.4541450000000 1.0
C      1  0.5280780000000  0.5377330000000  0.4421210000000 1.0
C      1  0.5654630000000  0.5369630000000  0.5084390000000 1.0
C      1  0.5114870000000  0.5379510000000  0.5629600000000 1.0
C      1  0.4418870000000  0.5448660000000  0.5315670000000 1.0
C      1  0.5473320000000  0.4607440000000  0.4545120000000 1.0
C      1  0.4710930000000  0.4576460000000  0.4392220000000 1.0
C      1  0.4327050000000  0.4583680000000  0.5076170000000 1.0
C      1  0.4891350000000  0.4665470000000  0.5618930000000 1.0
C      1  0.5579940000000  0.4620840000000  0.5300140000000 1.0
C      1  0.5852680000000  0.5191510000000  0.5215230000000 1.0
C      1  0.5063000000000  0.5244510000000  0.5886550000000 1.0
C      1  0.4175870000000  0.5289090000000  0.5333900000000 1.0
C      1  0.4408760000000  0.5277160000000  0.4328870000000 1.0
C      1  0.5458260000000  0.5222960000000  0.4237070000000 1.0
C      1  0.4131070000000  0.4761910000000  0.5200000000000 1.0
C      1  0.4925240000000  0.4790160000000  0.5883080000000 1.0
C      1  0.5831440000000  0.4761520000000  0.5326720000000 1.0
C      1  0.5584030000000  0.4759220000000  0.4315070000000 1.0
C      1  0.4532600000000  0.4756340000000  0.4240660000000 1.0
C      1  0.4557570000000  0.5090430000000  0.4992060000000 1.0
C      1  0.4860450000000  0.5073430000000  0.4588510000000 1.0
C      1  0.5297990000000  0.5085120000000  0.4750190000000 1.0
C      1  0.5280140000000  0.5170250000000  0.5190970000000 1.0
C      1  0.4843250000000  0.5052810000000  0.5408220000000 1.0
C      1  0.5446830000000  0.4914020000000  0.4996090000000 1.0
C      1  0.5113380000000  0.4923230000000  0.4581940000000 1.0
C      1  0.4649610000000  0.4937560000000  0.4748620000000 1.0
C      1  0.4717800000000  0.4914900000000  0.5177770000000 1.0
C      1  0.5144960000000  0.4993030000000  0.5407640000000 1.0
C      1  0.4875410000000  0.5143150000000  0.4278730000000 1.0
C      1  0.5680590000000  0.5095580000000  0.4668370000000 1.0
C      1  0.5545010000000  0.5156920000000  0.5621380000000 1.0
C      1  0.4653340000000  0.5113840000000  0.5632150000000 1.0
C      1  0.4280630000000  0.5146980000000  0.4875050000000 1.0
C      1  0.5104030000000  0.4870260000000  0.4278060000000 1.0
C      1  0.4274510000000  0.4874790000000  0.4662290000000 1.0
C      1  0.4449950000000  0.4882320000000  0.5588070000000 1.0
C      1  0.5339370000000  0.4928270000000  0.5644750000000 1.0
C      1  0.5795060000000  0.4858150000000  0.4835790000000 1.0
C      1  0.5454480000000  0.5513080000000  0.5266010000000 1.0
C      1  0.4893890000000  0.5529640000000  0.5499820000000 1.0
C      1  0.4514980000000  0.5528890000000  0.5044500000000 1.0
C      1  0.4807750000000  0.5511990000000  0.4553440000000 1.0
C      1  0.5393380000000  0.5504080000000  0.4667000000000 1.0
C      1  0.4581850000000  0.4553000000000  0.5231340000000 1.0
C      1  0.5119290000000  0.4508830000000  0.5509010000000 1.0
C      1  0.5517640000000  0.4485320000000  0.5039690000000 1.0
C      1  0.5210640000000  0.4462540000000  0.4516810000000 1.0
C      1  0.4630740000000  0.4511050000000  0.4670440000000 1.0
C      1  0.5087260000000  0.5158640000000  0.4958700000000 1.0
C      1  0.5185950000000  0.4752100000000  0.5155030000000 1.0
C      1  0.4953210000000  0.4885320000000  0.4990310000000 1.0
END
