TITL C-3577081-279-138 3.05830280600334e-07 125000 -413.471953339315 0 0 67 (C1) n - 1
REM
REM in /home/bkarasulu/work/CARBON/AIRSS/Generating-Clusters/EDIP-Nigel-Params/with-SteepDescent/Higher-Symm/SD-CG/HFTN-CG
REM
REM
REM
REM
REM
REM ./C.cell (12c818d87b63d06a65506943cc24bca4)
REM
REM compiler GCC version 9.2.1 20190827 (Red Hat 9.2.1-1)
REM options -cpp -mtune=generic -march=x86-64 -g -O0 -fpre-include=/usr/include/finclude/math-vector-fortran.h
REM seed -599164472 -1245505986 -1997069567 1297164940 -412000753 -118580152 -1135366059 252428192 -741414790 2058947966 1654410359 1236344599 -2115393000 -1675384965 321493433 -1844539745 1370806389 -2026731380 1111671481 -381525358 273696434 -1494797340 1477229922 -1255574531 -720908163 -172837942 -410973974 -224415213 2141017929 519069764 2063176664 1643841264 -2042261270
REM
CELL 1.54180   50.00000   50.00000   50.00000   90.00000   90.00000   90.00000
LATT -1
SFAC C  
C      1  0.4508690000000  0.4864120000000  0.5483770000000 1.0
C      1  0.4470620000000  0.5535340000000  0.4865010000000 1.0
C      1  0.4477730000000  0.4613530000000  0.4575490000000 1.0
C      1  0.4849950000000  0.5528960000000  0.5168300000000 1.0
C      1  0.4848630000000  0.4875420000000  0.4450870000000 1.0
C      1  0.4856570000000  0.4584810000000  0.5380480000000 1.0
C      1  0.4873730000000  0.5249850000000  0.5627500000000 1.0
C      1  0.4877370000000  0.5385070000000  0.4483650000000 1.0
C      1  0.4883610000000  0.4347700000000  0.4910820000000 1.0
C      1  0.5372410000000  0.5160200000000  0.5488330000000 1.0
C      1  0.5356650000000  0.5337600000000  0.4644880000000 1.0
C      1  0.5353970000000  0.4517630000000  0.4895860000000 1.0
C      1  0.4278200000000  0.5045610000000  0.4736040000000 1.0
C      1  0.4302520000000  0.4779490000000  0.5031680000000 1.0
C      1  0.4328340000000  0.5160290000000  0.5102430000000 1.0
C      1  0.5306440000000  0.5034360000000  0.4676810000000 1.0
C      1  0.5317490000000  0.4689840000000  0.5149470000000 1.0
C      1  0.5321180000000  0.5288000000000  0.5212900000000 1.0
C      1  0.4944690000000  0.4394640000000  0.4620560000000 1.0
C      1  0.4951090000000  0.4971760000000  0.5705520000000 1.0
C      1  0.4936790000000  0.5610740000000  0.4666370000000 1.0
C      1  0.4994610000000  0.4940080000000  0.4741040000000 1.0
C      1  0.5025420000000  0.4792990000000  0.5213380000000 1.0
C      1  0.5023840000000  0.5274640000000  0.5095690000000 1.0
C      1  0.4749390000000  0.5657060000000  0.4898180000000 1.0
C      1  0.4757090000000  0.4574010000000  0.4456760000000 1.0
C      1  0.4755520000000  0.4754430000000  0.5624120000000 1.0
C      1  0.5604950000000  0.5476820000000  0.4858610000000 1.0
C      1  0.5593280000000  0.4629140000000  0.4702920000000 1.0
C      1  0.5626200000000  0.4880410000000  0.5487530000000 1.0
C      1  0.5067440000000  0.4975850000000  0.4266000000000 1.0
C      1  0.5064570000000  0.4362430000000  0.5388820000000 1.0
C      1  0.5051930000000  0.5654060000000  0.5357690000000 1.0
C      1  0.4610040000000  0.5289460000000  0.5526940000000 1.0
C      1  0.4604570000000  0.5294770000000  0.4462140000000 1.0
C      1  0.4614640000000  0.4405600000000  0.4992400000000 1.0
C      1  0.4477430000000  0.4616070000000  0.4862640000000 1.0
C      1  0.4579820000000  0.5049210000000  0.5235960000000 1.0
C      1  0.4447970000000  0.5293410000000  0.4699220000000 1.0
C      1  0.4594270000000  0.5483180000000  0.5318960000000 1.0
C      1  0.4593080000000  0.5020750000000  0.4371860000000 1.0
C      1  0.4595080000000  0.4472520000000  0.5270020000000 1.0
C      1  0.5156470000000  0.4596010000000  0.4662370000000 1.0
C      1  0.5192720000000  0.4915050000000  0.5544010000000 1.0
C      1  0.5168720000000  0.5510570000000  0.4818210000000 1.0
C      1  0.4370850000000  0.5452600000000  0.5129570000000 1.0
C      1  0.4365150000000  0.4878700000000  0.4498470000000 1.0
C      1  0.4375030000000  0.4667220000000  0.5305600000000 1.0
C      1  0.5075150000000  0.4228170000000  0.5109380000000 1.0
C      1  0.5067100000000  0.5480910000000  0.5615300000000 1.0
C      1  0.5073450000000  0.5284340000000  0.4283220000000 1.0
C      1  0.5340400000000  0.4926550000000  0.4387670000000 1.0
C      1  0.5344950000000  0.4484840000000  0.5382730000000 1.0
C      1  0.5336150000000  0.5595300000000  0.5262060000000 1.0
C      1  0.5553710000000  0.4882300000000  0.5197680000000 1.0
C      1  0.5558400000000  0.5233270000000  0.5026480000000 1.0
C      1  0.5553190000000  0.4907910000000  0.4815820000000 1.0
C      1  0.5501880000000  0.5607530000000  0.5511550000000 1.0
C      1  0.5514300000000  0.5134330000000  0.4259420000000 1.0
C      1  0.5516120000000  0.4272400000000  0.5260200000000 1.0
C      1  0.5393960000000  0.5672700000000  0.4965180000000 1.0
C      1  0.5400630000000  0.4633320000000  0.4460590000000 1.0
C      1  0.5411390000000  0.4700040000000  0.5598830000000 1.0
C      1  0.5358840000000  0.5366960000000  0.4340500000000 1.0
C      1  0.5362650000000  0.4234770000000  0.5016680000000 1.0
C      1  0.5355390000000  0.5408070000000  0.5663880000000 1.0
C      1  0.4881200000000  0.5006180000000  0.5047790000000 1.0
END
