TITL C-3578202-4305-432 -2.99570435859293e-06 125000 -623.704644223276 0 0 103 (C1) n - 1
REM
REM in /home/bkarasulu/work/CARBON/AIRSS/Generating-Clusters/EDIP-Nigel-Params/with-SteepDescent/Higher-Symm/SD-CG/HFTN-CG
REM
REM
REM
REM
REM
REM ./C.cell (12c818d87b63d06a65506943cc24bca4)
REM
REM compiler GCC version 9.2.1 20190827 (Red Hat 9.2.1-1)
REM options -cpp -mtune=generic -march=x86-64 -g -O0 -fpre-include=/usr/include/finclude/math-vector-fortran.h
REM seed -1153965975 -1232978769 -152119630 -1291485735 -1223304954 909171005 -2029826889 -893908690 898557479 -1176857458 338286502 -1550891666 -811572820 -1941834750 1355060324 -2016345960 1860157047 1883927513 -1121661279 -121142239 752033784 1194090461 -1905088602 -897929702 237914488 -1919784520 -1294192482 586102731 398549792 -1164214141 846408179 -1038002164 268927157
REM
CELL 1.54180   50.00000   50.00000   50.00000   90.00000   90.00000   90.00000
LATT -1
SFAC C  
C      1  0.4608560000000  0.5781940000000  0.5363190000000 1.0
C      1  0.5824200000000  0.5026000000000  0.5366070000000 1.0
C      1  0.4642010000000  0.4254450000000  0.5330250000000 1.0
C      1  0.4360510000000  0.5062750000000  0.4719900000000 1.0
C      1  0.5330700000000  0.5500300000000  0.4759380000000 1.0
C      1  0.5251170000000  0.4412030000000  0.4716820000000 1.0
C      1  0.4806160000000  0.4102990000000  0.5140390000000 1.0
C      1  0.4393400000000  0.5669890000000  0.5190520000000 1.0
C      1  0.5876330000000  0.5240590000000  0.5167940000000 1.0
C      1  0.5449440000000  0.5346870000000  0.4244990000000 1.0
C      1  0.5087710000000  0.4424540000000  0.4159540000000 1.0
C      1  0.4453680000000  0.5190800000000  0.4170930000000 1.0
C      1  0.5360550000000  0.5429610000000  0.5494630000000 1.0
C      1  0.5190610000000  0.4483440000000  0.5490640000000 1.0
C      1  0.4375390000000  0.5093680000000  0.5527290000000 1.0
C      1  0.5482160000000  0.5059590000000  0.4307460000000 1.0
C      1  0.4811960000000  0.4508790000000  0.4232580000000 1.0
C      1  0.4670340000000  0.5379040000000  0.4243270000000 1.0
C      1  0.5388930000000  0.5104690000000  0.5780310000000 1.0
C      1  0.4880960000000  0.4612650000000  0.5768400000000 1.0
C      1  0.4697470000000  0.5296540000000  0.5740890000000 1.0
C      1  0.4503280000000  0.4922460000000  0.4102080000000 1.0
C      1  0.5195860000000  0.5444990000000  0.4154710000000 1.0
C      1  0.5289960000000  0.4616700000000  0.4102610000000 1.0
C      1  0.5311660000000  0.5419600000000  0.5192700000000 1.0
C      1  0.5209870000000  0.4539890000000  0.5187980000000 1.0
C      1  0.4488680000000  0.5067030000000  0.5236880000000 1.0
C      1  0.4629400000000  0.4293440000000  0.4683320000000 1.0
C      1  0.4590020000000  0.5659410000000  0.4695360000000 1.0
C      1  0.5786060000000  0.4999000000000  0.4712380000000 1.0
C      1  0.4343970000000  0.5272580000000  0.4524890000000 1.0
C      1  0.5535430000000  0.5379440000000  0.4607800000000 1.0
C      1  0.5080440000000  0.4295200000000  0.4516730000000 1.0
C      1  0.4250490000000  0.5437320000000  0.5297740000000 1.0
C      1  0.5770700000000  0.5499450000000  0.5195460000000 1.0
C      1  0.5080870000000  0.4083130000000  0.5183270000000 1.0
C      1  0.4911290000000  0.5547730000000  0.5445760000000 1.0
C      1  0.5500160000000  0.4824730000000  0.5451250000000 1.0
C      1  0.4595840000000  0.4636610000000  0.5429010000000 1.0
C      1  0.4599120000000  0.4880350000000  0.4660000000000 1.0
C      1  0.5057270000000  0.5403430000000  0.4671950000000 1.0
C      1  0.5288870000000  0.4708980000000  0.4643290000000 1.0
C      1  0.4094720000000  0.4727490000000  0.4999450000000 1.0
C      1  0.5237210000000  0.5914480000000  0.4966360000000 1.0
C      1  0.5682960000000  0.4386360000000  0.4969200000000 1.0
C      1  0.4183150000000  0.4386230000000  0.5440290000000 1.0
C      1  0.5061350000000  0.6007170000000  0.5393360000000 1.0
C      1  0.5837080000000  0.4497210000000  0.5385430000000 1.0
C      1  0.4358710000000  0.4317850000000  0.5229770000000 1.0
C      1  0.4830230000000  0.5939820000000  0.5228010000000 1.0
C      1  0.5880640000000  0.4744180000000  0.5235910000000 1.0
C      1  0.5633900000000  0.4574300000000  0.5565040000000 1.0
C      1  0.4307690000000  0.4619520000000  0.5543460000000 1.0
C      1  0.5074420000000  0.5781040000000  0.5565000000000 1.0
C      1  0.5417200000000  0.5870030000000  0.5302080000000 1.0
C      1  0.5561240000000  0.4234490000000  0.5294800000000 1.0
C      1  0.4062880000000  0.4951040000000  0.5206530000000 1.0
C      1  0.4423270000000  0.5669270000000  0.4915550000000 1.0
C      1  0.5910750000000  0.5143850000000  0.4912320000000 1.0
C      1  0.4723870000000  0.4121780000000  0.4879070000000 1.0
C      1  0.5276090000000  0.4893260000000  0.4179520000000 1.0
C      1  0.4747460000000  0.4790070000000  0.4158390000000 1.0
C      1  0.4947540000000  0.5297150000000  0.4170910000000 1.0
C      1  0.5296140000000  0.5787780000000  0.4706260000000 1.0
C      1  0.5544450000000  0.4352720000000  0.4710940000000 1.0
C      1  0.4154940000000  0.4846240000000  0.4720250000000 1.0
C      1  0.5359770000000  0.5722940000000  0.5563240000000 1.0
C      1  0.5451860000000  0.4346810000000  0.5559220000000 1.0
C      1  0.4160420000000  0.4877100000000  0.5502710000000 1.0
C      1  0.5408900000000  0.4764360000000  0.5123930000000 1.0
C      1  0.4565600000000  0.4779740000000  0.5144340000000 1.0
C      1  0.5022370000000  0.5494360000000  0.5140000000000 1.0
C      1  0.4958520000000  0.5308720000000  0.5625260000000 1.0
C      1  0.5273630000000  0.4887560000000  0.5639550000000 1.0
C      1  0.4751350000000  0.4813530000000  0.5611990000000 1.0
C      1  0.5619230000000  0.4592190000000  0.4552160000000 1.0
C      1  0.4321260000000  0.4648980000000  0.4571720000000 1.0
C      1  0.5046400000000  0.5762960000000  0.4547150000000 1.0
C      1  0.4509560000000  0.5459720000000  0.5559980000000 1.0
C      1  0.5581490000000  0.5220400000000  0.5588110000000 1.0
C      1  0.4900710000000  0.4384260000000  0.5579030000000 1.0
C      1  0.4240590000000  0.5195580000000  0.5120670000000 1.0
C      1  0.5523210000000  0.5624630000000  0.5133490000000 1.0
C      1  0.5295010000000  0.4258550000000  0.5126000000000 1.0
C      1  0.4587150000000  0.5019910000000  0.5731690000000 1.0
C      1  0.5178310000000  0.5302290000000  0.5808860000000 1.0
C      1  0.5155150000000  0.4691910000000  0.5811140000000 1.0
C      1  0.4844380000000  0.5783630000000  0.4745160000000 1.0
C      1  0.5842240000000  0.4729160000000  0.4665010000000 1.0
C      1  0.4398270000000  0.4449460000000  0.4758140000000 1.0
C      1  0.4350050000000  0.4556570000000  0.5036890000000 1.0
C      1  0.4974780000000  0.5782770000000  0.5017090000000 1.0
C      1  0.5692730000000  0.4680960000000  0.5009350000000 1.0
C      1  0.5281230000000  0.4922450000000  0.4878840000000 1.0
C      1  0.4768540000000  0.4815310000000  0.4913700000000 1.0
C      1  0.4921110000000  0.5293070000000  0.4925200000000 1.0
C      1  0.4588310000000  0.5424710000000  0.4522970000000 1.0
C      1  0.5521290000000  0.5084410000000  0.4617810000000 1.0
C      1  0.4824730000000  0.4426500000000  0.4515340000000 1.0
C      1  0.5110410000000  0.4784990000000  0.4406770000000 1.0
C      1  0.4759550000000  0.4976620000000  0.4409250000000 1.0
C      1  0.5081590000000  0.5195850000000  0.4435960000000 1.0
C      1  0.4994300000000  0.5006410000000  0.4966450000000 1.0
END
