TITL C-3577091-527-166 -3.59802340757831e-07 125000 -792.328808049587 0 0 128 (C1) n - 1
REM
REM in /home/bkarasulu/work/CARBON/AIRSS/Generating-Clusters/EDIP-Nigel-Params/with-SteepDescent/Higher-Symm/SD-CG/HFTN-CG
REM
REM
REM
REM
REM
REM ./C.cell (12c818d87b63d06a65506943cc24bca4)
REM
REM compiler GCC version 9.2.1 20190827 (Red Hat 9.2.1-1)
REM options -cpp -mtune=generic -march=x86-64 -g -O0 -fpre-include=/usr/include/finclude/math-vector-fortran.h
REM seed 880290082 1648665636 -13509277 -1273833856 667862025 1876266901 1236786323 -638479701 -601949757 -1060540557 276234858 -1553627716 1816006622 -1879451204 1827517227 -1343245554 -976230339 -1437264641 441557141 -2034688160 -1995077310 1088831044 -1464628231 1902764924 -518768958 -934960694 1522421307 398801158 2424464 -354897967 1370728656 -1610413867 1920657919
REM
CELL 1.54180   50.00000   50.00000   50.00000   90.00000   90.00000   90.00000
LATT -1
SFAC C  
C      1  0.4699630000000  0.5768050000000  0.5319890000000 1.0
C      1  0.4413290000000  0.4894100000000  0.5219270000000 1.0
C      1  0.4776180000000  0.4390380000000  0.5126000000000 1.0
C      1  0.5387250000000  0.4768150000000  0.5313610000000 1.0
C      1  0.5550810000000  0.5476340000000  0.5227640000000 1.0
C      1  0.5208400000000  0.5607510000000  0.4876690000000 1.0
C      1  0.5558620000000  0.4913350000000  0.4668010000000 1.0
C      1  0.5182850000000  0.4334100000000  0.4599290000000 1.0
C      1  0.4220410000000  0.4598350000000  0.4653890000000 1.0
C      1  0.4566450000000  0.5431230000000  0.4684330000000 1.0
C      1  0.5941120000000  0.5352080000000  0.5074150000000 1.0
C      1  0.5014500000000  0.6003490000000  0.5119020000000 1.0
C      1  0.4092320000000  0.5264780000000  0.5187720000000 1.0
C      1  0.4399820000000  0.4102540000000  0.5107610000000 1.0
C      1  0.5498300000000  0.4300610000000  0.5204160000000 1.0
C      1  0.4080560000000  0.5308060000000  0.4889090000000 1.0
C      1  0.5046310000000  0.6032400000000  0.4828740000000 1.0
C      1  0.5811750000000  0.5289480000000  0.4814100000000 1.0
C      1  0.5548420000000  0.4206750000000  0.4922740000000 1.0
C      1  0.4358840000000  0.4144470000000  0.4811660000000 1.0
C      1  0.4835260000000  0.3978780000000  0.4776230000000 1.0
C      1  0.5908240000000  0.4559270000000  0.4860140000000 1.0
C      1  0.5725610000000  0.5747350000000  0.4720590000000 1.0
C      1  0.4589730000000  0.5851320000000  0.4792570000000 1.0
C      1  0.4041700000000  0.4806270000000  0.4786460000000 1.0
C      1  0.5080610000000  0.4050510000000  0.5230340000000 1.0
C      1  0.4131690000000  0.4503290000000  0.5162100000000 1.0
C      1  0.4409750000000  0.5685420000000  0.5224610000000 1.0
C      1  0.5522530000000  0.5855010000000  0.5165200000000 1.0
C      1  0.5813260000000  0.4891940000000  0.5158960000000 1.0
C      1  0.4144510000000  0.5071620000000  0.4729240000000 1.0
C      1  0.4627980000000  0.4176660000000  0.4689340000000 1.0
C      1  0.5706140000000  0.4395580000000  0.4757000000000 1.0
C      1  0.5785240000000  0.5496320000000  0.4607060000000 1.0
C      1  0.4841290000000  0.5888150000000  0.4665770000000 1.0
C      1  0.5870830000000  0.5145030000000  0.5284830000000 1.0
C      1  0.5319110000000  0.4151660000000  0.5379630000000 1.0
C      1  0.4327930000000  0.4337020000000  0.5283080000000 1.0
C      1  0.4316490000000  0.5418850000000  0.5315020000000 1.0
C      1  0.5242190000000  0.5902250000000  0.5279770000000 1.0
C      1  0.4870680000000  0.5714230000000  0.5590680000000 1.0
C      1  0.4294920000000  0.5157000000000  0.5748460000000 1.0
C      1  0.4756690000000  0.4367890000000  0.5623920000000 1.0
C      1  0.5471700000000  0.4439980000000  0.5774510000000 1.0
C      1  0.5610990000000  0.5373290000000  0.5701390000000 1.0
C      1  0.5193310000000  0.5625320000000  0.4373340000000 1.0
C      1  0.5711240000000  0.5217390000000  0.4172290000000 1.0
C      1  0.5370650000000  0.4377330000000  0.4372700000000 1.0
C      1  0.4474660000000  0.4559140000000  0.4358040000000 1.0
C      1  0.4395440000000  0.5363980000000  0.4430440000000 1.0
C      1  0.4710710000000  0.5309500000000  0.5583770000000 1.0
C      1  0.4595310000000  0.4756140000000  0.5424110000000 1.0
C      1  0.5043000000000  0.4480780000000  0.5614030000000 1.0
C      1  0.5448090000000  0.4993530000000  0.5492630000000 1.0
C      1  0.5268310000000  0.5483540000000  0.5553260000000 1.0
C      1  0.5348210000000  0.5363110000000  0.4400110000000 1.0
C      1  0.5652360000000  0.4745200000000  0.4421060000000 1.0
C      1  0.4914700000000  0.4506130000000  0.4481250000000 1.0
C      1  0.4531720000000  0.4936760000000  0.4433960000000 1.0
C      1  0.4849490000000  0.5400700000000  0.4562200000000 1.0
C      1  0.4164530000000  0.4333120000000  0.4735370000000 1.0
C      1  0.5307170000000  0.4099240000000  0.4773350000000 1.0
C      1  0.5834020000000  0.5016350000000  0.4721380000000 1.0
C      1  0.5307930000000  0.5959160000000  0.4739630000000 1.0
C      1  0.4210780000000  0.5547390000000  0.4789860000000 1.0
C      1  0.5590600000000  0.4549630000000  0.5310160000000 1.0
C      1  0.4701510000000  0.4090470000000  0.5113690000000 1.0
C      1  0.4120600000000  0.4968690000000  0.5266820000000 1.0
C      1  0.4757210000000  0.6036440000000  0.5230560000000 1.0
C      1  0.5819360000000  0.5602690000000  0.5176190000000 1.0
C      1  0.4736710000000  0.4966190000000  0.4661800000000 1.0
C      1  0.4849770000000  0.4694960000000  0.4713960000000 1.0
C      1  0.5103360000000  0.4759760000000  0.4819220000000 1.0
C      1  0.5311810000000  0.5176630000000  0.4649740000000 1.0
C      1  0.4986030000000  0.5151580000000  0.4643880000000 1.0
C      1  0.5277150000000  0.5157120000000  0.5118700000000 1.0
C      1  0.5096210000000  0.4652470000000  0.5363130000000 1.0
C      1  0.4868860000000  0.4866550000000  0.5369450000000 1.0
C      1  0.4847830000000  0.5173510000000  0.5342420000000 1.0
C      1  0.5113080000000  0.5333760000000  0.5291620000000 1.0
C      1  0.4551790000000  0.5054950000000  0.4891000000000 1.0
C      1  0.4673460000000  0.4560260000000  0.4906960000000 1.0
C      1  0.5242110000000  0.4521520000000  0.4887660000000 1.0
C      1  0.5386870000000  0.5345820000000  0.4903960000000 1.0
C      1  0.4735220000000  0.5510210000000  0.5024360000000 1.0
C      1  0.5522220000000  0.4743940000000  0.4949670000000 1.0
C      1  0.5079230000000  0.4432710000000  0.5150000000000 1.0
C      1  0.4436280000000  0.4729230000000  0.4946500000000 1.0
C      1  0.4667440000000  0.5235560000000  0.5111800000000 1.0
C      1  0.5020960000000  0.5560870000000  0.5107950000000 1.0
C      1  0.5037250000000  0.5543220000000  0.4137860000000 1.0
C      1  0.4556670000000  0.5356710000000  0.4187400000000 1.0
C      1  0.4638590000000  0.4674320000000  0.4113690000000 1.0
C      1  0.5275670000000  0.4578250000000  0.4170780000000 1.0
C      1  0.5478770000000  0.5071120000000  0.4091230000000 1.0
C      1  0.4887190000000  0.5525520000000  0.5843570000000 1.0
C      1  0.5422990000000  0.5250140000000  0.5894660000000 1.0
C      1  0.5353300000000  0.4664840000000  0.5902970000000 1.0
C      1  0.4671630000000  0.4538370000000  0.5849670000000 1.0
C      1  0.4512220000000  0.5007170000000  0.5853860000000 1.0
C      1  0.4685160000000  0.4989960000000  0.4168380000000 1.0
C      1  0.4981840000000  0.4664720000000  0.4214190000000 1.0
C      1  0.5488400000000  0.4789940000000  0.4182230000000 1.0
C      1  0.5201850000000  0.5193280000000  0.4149500000000 1.0
C      1  0.4826780000000  0.5395970000000  0.4268530000000 1.0
C      1  0.5343320000000  0.4978530000000  0.5772230000000 1.0
C      1  0.5039880000000  0.4668520000000  0.5859910000000 1.0
C      1  0.4519730000000  0.4747370000000  0.5721500000000 1.0
C      1  0.4786600000000  0.5146210000000  0.5834390000000 1.0
C      1  0.5158290000000  0.5382510000000  0.5816210000000 1.0
C      1  0.4666650000000  0.4345630000000  0.4449620000000 1.0
C      1  0.5633220000000  0.4457810000000  0.4479230000000 1.0
C      1  0.5635940000000  0.5419480000000  0.4352860000000 1.0
C      1  0.5022230000000  0.5638320000000  0.4619470000000 1.0
C      1  0.4278520000000  0.5101660000000  0.4471360000000 1.0
C      1  0.5268210000000  0.4288810000000  0.5644410000000 1.0
C      1  0.4606920000000  0.4456240000000  0.5371530000000 1.0
C      1  0.4417550000000  0.5340310000000  0.5577110000000 1.0
C      1  0.5164980000000  0.5765750000000  0.5534660000000 1.0
C      1  0.5620290000000  0.5239220000000  0.5434120000000 1.0
C      1  0.5953060000000  0.4829180000000  0.4920450000000 1.0
C      1  0.5089830000000  0.3981620000000  0.4934570000000 1.0
C      1  0.4371200000000  0.5738010000000  0.4932960000000 1.0
C      1  0.4014210000000  0.4750730000000  0.5083190000000 1.0
C      1  0.5541920000000  0.5892070000000  0.4874850000000 1.0
C      1  0.4986140000000  0.4982490000000  0.4235680000000 1.0
C      1  0.5024300000000  0.4961060000000  0.5772740000000 1.0
C      1  0.5133710000000  0.4951950000000  0.5008690000000 1.0
END
