TITL C-3578198-8939-677 -1.6383497317229e-06 125000 -712.578704015998 0 0 115 (C1) n - 1
REM
REM in /home/bkarasulu/work/CARBON/AIRSS/Generating-Clusters/EDIP-Nigel-Params/with-SteepDescent/Higher-Symm/SD-CG/HFTN-CG
REM
REM
REM
REM
REM
REM ./C.cell (12c818d87b63d06a65506943cc24bca4)
REM
REM compiler GCC version 9.2.1 20190827 (Red Hat 9.2.1-1)
REM options -cpp -mtune=generic -march=x86-64 -g -O0 -fpre-include=/usr/include/finclude/math-vector-fortran.h
REM seed -701683820 -1785956959 -1649736335 -1238750794 1804840947 -1717318258 2007731819 1171675894 -1528054163 1570220766 -751982255 1169074531 115058267 -2046544239 -899972935 -2102297491 2047746098 567911150 44804765 -971382698 150013862 -257964416 -229169074 378135249 399778868 -1931548714 -2088366190 389102262 -1129280005 -258320075 -214777 988148524 -1279661632
REM
CELL 1.54180   50.00000   50.00000   50.00000   90.00000   90.00000   90.00000
LATT -1
SFAC C  
C      1  0.4261320000000  0.5429060000000  0.5347930000000 1.0
C      1  0.4330910000000  0.5523360000000  0.4800260000000 1.0
C      1  0.5883080000000  0.4674260000000  0.5149860000000 1.0
C      1  0.5582300000000  0.4684990000000  0.5588340000000 1.0
C      1  0.5668230000000  0.5047750000000  0.5677370000000 1.0
C      1  0.5666060000000  0.4359220000000  0.4800300000000 1.0
C      1  0.4212240000000  0.4951710000000  0.5490690000000 1.0
C      1  0.4541580000000  0.5090050000000  0.5322670000000 1.0
C      1  0.5461850000000  0.5713620000000  0.5305570000000 1.0
C      1  0.5515820000000  0.5081930000000  0.4945470000000 1.0
C      1  0.5019760000000  0.4720090000000  0.4819230000000 1.0
C      1  0.4516280000000  0.5376220000000  0.4382930000000 1.0
C      1  0.5657500000000  0.4539060000000  0.4561050000000 1.0
C      1  0.4293760000000  0.4457170000000  0.5357700000000 1.0
C      1  0.5123540000000  0.5225490000000  0.5679260000000 1.0
C      1  0.4718650000000  0.4070530000000  0.5238440000000 1.0
C      1  0.5409750000000  0.5167530000000  0.5781920000000 1.0
C      1  0.5489000000000  0.5500260000000  0.5499710000000 1.0
C      1  0.5175860000000  0.4404530000000  0.5704230000000 1.0
C      1  0.4939410000000  0.5283450000000  0.4263450000000 1.0
C      1  0.5089740000000  0.4675890000000  0.5787820000000 1.0
C      1  0.4596240000000  0.4865290000000  0.4505800000000 1.0
C      1  0.4099070000000  0.4528560000000  0.4928360000000 1.0
C      1  0.4357900000000  0.4435580000000  0.5068270000000 1.0
C      1  0.4257860000000  0.5641590000000  0.5153860000000 1.0
C      1  0.4614110000000  0.5142970000000  0.5826990000000 1.0
C      1  0.4300560000000  0.4850080000000  0.4544710000000 1.0
C      1  0.4286490000000  0.5339050000000  0.4577110000000 1.0
C      1  0.5851990000000  0.5183870000000  0.5203270000000 1.0
C      1  0.4998530000000  0.4059360000000  0.4874970000000 1.0
C      1  0.5197900000000  0.4240940000000  0.4753060000000 1.0
C      1  0.4755590000000  0.4586330000000  0.4604150000000 1.0
C      1  0.4748730000000  0.4236140000000  0.5464950000000 1.0
C      1  0.5629730000000  0.4976830000000  0.4552190000000 1.0
C      1  0.4671450000000  0.5635780000000  0.4386720000000 1.0
C      1  0.4411490000000  0.4904490000000  0.5739680000000 1.0
C      1  0.4273520000000  0.4592920000000  0.4679780000000 1.0
C      1  0.4637870000000  0.4907380000000  0.4208970000000 1.0
C      1  0.4837920000000  0.4750340000000  0.5619290000000 1.0
C      1  0.4512020000000  0.4184840000000  0.4818340000000 1.0
C      1  0.4924390000000  0.5572070000000  0.4233840000000 1.0
C      1  0.5575750000000  0.5582690000000  0.5044970000000 1.0
C      1  0.4930780000000  0.5168590000000  0.5140730000000 1.0
C      1  0.5606010000000  0.5526280000000  0.4585630000000 1.0
C      1  0.4112330000000  0.4695600000000  0.5372750000000 1.0
C      1  0.5282910000000  0.4629700000000  0.4948290000000 1.0
C      1  0.5020920000000  0.4356620000000  0.5448420000000 1.0
C      1  0.4674870000000  0.5362490000000  0.5208800000000 1.0
C      1  0.5381480000000  0.5340140000000  0.5040880000000 1.0
C      1  0.5234750000000  0.5813560000000  0.4808600000000 1.0
C      1  0.4844280000000  0.4801050000000  0.5058690000000 1.0
C      1  0.4337810000000  0.5507600000000  0.5610460000000 1.0
C      1  0.4117630000000  0.5181320000000  0.5301040000000 1.0
C      1  0.5513510000000  0.5719980000000  0.4793750000000 1.0
C      1  0.5923240000000  0.4492350000000  0.4911840000000 1.0
C      1  0.5934160000000  0.4677350000000  0.4650480000000 1.0
C      1  0.5067690000000  0.5337980000000  0.4919670000000 1.0
C      1  0.4539330000000  0.4698950000000  0.4969190000000 1.0
C      1  0.5205310000000  0.4184810000000  0.5294720000000 1.0
C      1  0.4742450000000  0.5036760000000  0.5576000000000 1.0
C      1  0.5924740000000  0.4946360000000  0.5049590000000 1.0
C      1  0.4959370000000  0.4671200000000  0.5328750000000 1.0
C      1  0.5370020000000  0.5422220000000  0.4439100000000 1.0
C      1  0.4536500000000  0.4439120000000  0.5516840000000 1.0
C      1  0.5306960000000  0.4822770000000  0.5637520000000 1.0
C      1  0.4940420000000  0.5637620000000  0.5422280000000 1.0
C      1  0.5466510000000  0.4400750000000  0.5608660000000 1.0
C      1  0.5613670000000  0.4640870000000  0.5274870000000 1.0
C      1  0.5168850000000  0.5651670000000  0.4370120000000 1.0
C      1  0.5396130000000  0.4753560000000  0.4189400000000 1.0
C      1  0.4617740000000  0.5855680000000  0.4857580000000 1.0
C      1  0.5156360000000  0.5161270000000  0.4102450000000 1.0
C      1  0.5378570000000  0.5277880000000  0.5320310000000 1.0
C      1  0.5955090000000  0.4960970000000  0.4755440000000 1.0
C      1  0.4952560000000  0.5481150000000  0.5683530000000 1.0
C      1  0.5423820000000  0.5242320000000  0.4198130000000 1.0
C      1  0.4505580000000  0.5731640000000  0.5608780000000 1.0
C      1  0.4870400000000  0.4753350000000  0.4092720000000 1.0
C      1  0.4506170000000  0.4410400000000  0.4642180000000 1.0
C      1  0.4671160000000  0.5434420000000  0.5792820000000 1.0
C      1  0.5172330000000  0.5784950000000  0.5292640000000 1.0
C      1  0.4862360000000  0.4475240000000  0.4120000000000 1.0
C      1  0.5409300000000  0.4545720000000  0.4400740000000 1.0
C      1  0.4520410000000  0.5767610000000  0.5118720000000 1.0
C      1  0.4655080000000  0.5126370000000  0.4715120000000 1.0
C      1  0.4910660000000  0.4428370000000  0.4391630000000 1.0
C      1  0.4453250000000  0.4993340000000  0.5018210000000 1.0
C      1  0.5184590000000  0.4363070000000  0.4478190000000 1.0
C      1  0.4578950000000  0.4640880000000  0.5719670000000 1.0
C      1  0.4742080000000  0.4156530000000  0.4973510000000 1.0
C      1  0.5135970000000  0.4876440000000  0.4122720000000 1.0
C      1  0.4013430000000  0.4756830000000  0.5095520000000 1.0
C      1  0.5403080000000  0.4356270000000  0.4950540000000 1.0
C      1  0.5113350000000  0.4958430000000  0.4656390000000 1.0
C      1  0.5410380000000  0.4815520000000  0.5129930000000 1.0
C      1  0.5579390000000  0.4985850000000  0.4254160000000 1.0
C      1  0.5777110000000  0.5310910000000  0.4723950000000 1.0
C      1  0.5482350000000  0.4276800000000  0.5321440000000 1.0
C      1  0.4949420000000  0.5199420000000  0.4643850000000 1.0
C      1  0.4664060000000  0.5197610000000  0.4186410000000 1.0
C      1  0.5827130000000  0.5409420000000  0.5014160000000 1.0
C      1  0.5380280000000  0.5102710000000  0.4667470000000 1.0
C      1  0.5205000000000  0.4860370000000  0.5359020000000 1.0
C      1  0.5116200000000  0.5914100000000  0.5046630000000 1.0
C      1  0.4183400000000  0.5079560000000  0.4678630000000 1.0
C      1  0.4771530000000  0.5772830000000  0.4626590000000 1.0
C      1  0.5061050000000  0.5809290000000  0.4586100000000 1.0
C      1  0.5833280000000  0.5221460000000  0.5504300000000 1.0
C      1  0.4589450000000  0.5391090000000  0.4895310000000 1.0
C      1  0.4906180000000  0.5591600000000  0.5000430000000 1.0
C      1  0.5761690000000  0.5484710000000  0.5578600000000 1.0
C      1  0.5117190000000  0.3981500000000  0.5121580000000 1.0
C      1  0.5128280000000  0.5147010000000  0.5381260000000 1.0
C      1  0.4139560000000  0.5027480000000  0.5024480000000 1.0
C      1  0.4676400000000  0.5771090000000  0.5377630000000 1.0
END
