TITL C-3578207-9274-472 -7.41569017483248e-06 125000 -1043.13592374522 0 0 165 (C1) n - 1
REM
REM in /home/bkarasulu/work/CARBON/AIRSS/Generating-Clusters/EDIP-Nigel-Params/with-SteepDescent/Higher-Symm/SD-CG/HFTN-CG
REM
REM
REM
REM
REM
REM ./C.cell (12c818d87b63d06a65506943cc24bca4)
REM
REM compiler GCC version 9.2.1 20190827 (Red Hat 9.2.1-1)
REM options -cpp -mtune=generic -march=x86-64 -g -O0 -fpre-include=/usr/include/finclude/math-vector-fortran.h
REM seed -745967564 -148938984 1323755717 790869829 -966245105 1074754137 290560782 148281322 1801256616 -2126436308 -1699562189 1369975728 -129871119 325348801 787389723 910939324 -656525012 1916481371 -101596666 -1202388235 1430743679 1498147976 1539169727 -642563853 193358243 1142844298 -332060849 1872560084 2055953681 1558997579 -1047117710 -729396641 -458033926
REM
CELL 1.54180   50.00000   50.00000   50.00000   90.00000   90.00000   90.00000
LATT -1
SFAC C  
C      1  0.5485950000000  0.4667720000000  0.4757920000000 1.0
C      1  0.5309890000000  0.5505100000000  0.5212650000000 1.0
C      1  0.5503250000000  0.5313200000000  0.4752520000000 1.0
C      1  0.5304150000000  0.4489950000000  0.5212800000000 1.0
C      1  0.4417800000000  0.4260030000000  0.4401890000000 1.0
C      1  0.4412670000000  0.5743130000000  0.5613410000000 1.0
C      1  0.4425120000000  0.5737140000000  0.4400260000000 1.0
C      1  0.4409860000000  0.4254350000000  0.5615410000000 1.0
C      1  0.5570120000000  0.4581940000000  0.5634080000000 1.0
C      1  0.5629290000000  0.5428790000000  0.4305820000000 1.0
C      1  0.5572970000000  0.5415780000000  0.5636650000000 1.0
C      1  0.5616820000000  0.4540480000000  0.4296280000000 1.0
C      1  0.4368960000000  0.5480590000000  0.5146590000000 1.0
C      1  0.4365770000000  0.4520930000000  0.4866600000000 1.0
C      1  0.4366500000000  0.4516730000000  0.5147600000000 1.0
C      1  0.4370460000000  0.5477490000000  0.4865630000000 1.0
C      1  0.4147620000000  0.4852140000000  0.5372760000000 1.0
C      1  0.4165350000000  0.5147190000000  0.4645430000000 1.0
C      1  0.4148230000000  0.5145850000000  0.5372230000000 1.0
C      1  0.4163700000000  0.4853250000000  0.4645770000000 1.0
C      1  0.5052110000000  0.4371260000000  0.4098830000000 1.0
C      1  0.5034730000000  0.5640710000000  0.5947280000000 1.0
C      1  0.5062740000000  0.5617980000000  0.4102680000000 1.0
C      1  0.5033560000000  0.4355710000000  0.5948530000000 1.0
C      1  0.4744040000000  0.4437030000000  0.5954610000000 1.0
C      1  0.4774320000000  0.5552570000000  0.4087690000000 1.0
C      1  0.4745370000000  0.5559980000000  0.5953090000000 1.0
C      1  0.4764780000000  0.4441380000000  0.4085870000000 1.0
C      1  0.5012990000000  0.6002960000000  0.4864260000000 1.0
C      1  0.5000310000000  0.3991860000000  0.5163450000000 1.0
C      1  0.5008480000000  0.3990860000000  0.4865780000000 1.0
C      1  0.5002010000000  0.6003390000000  0.5162040000000 1.0
C      1  0.4475310000000  0.4841090000000  0.6044650000000 1.0
C      1  0.4495040000000  0.5157690000000  0.3974000000000 1.0
C      1  0.4475910000000  0.5157240000000  0.6044240000000 1.0
C      1  0.4491910000000  0.4840740000000  0.3973280000000 1.0
C      1  0.5881500000000  0.4590500000000  0.4436520000000 1.0
C      1  0.5833890000000  0.5437350000000  0.5484560000000 1.0
C      1  0.5900680000000  0.5435410000000  0.4453840000000 1.0
C      1  0.5827210000000  0.4567180000000  0.5474820000000 1.0
C      1  0.5252850000000  0.4776800000000  0.5164800000000 1.0
C      1  0.5282500000000  0.5149810000000  0.4881820000000 1.0
C      1  0.5259820000000  0.5217930000000  0.5164140000000 1.0
C      1  0.5274480000000  0.4840850000000  0.4882330000000 1.0
C      1  0.5854150000000  0.4893910000000  0.4544800000000 1.0
C      1  0.5920080000000  0.5194560000000  0.5351730000000 1.0
C      1  0.5960350000000  0.5159790000000  0.4592180000000 1.0
C      1  0.5910650000000  0.4810370000000  0.5342060000000 1.0
C      1  0.4954550000000  0.4757400000000  0.5220120000000 1.0
C      1  0.5013880000000  0.5236770000000  0.4779580000000 1.0
C      1  0.4960330000000  0.5237580000000  0.5219020000000 1.0
C      1  0.5005490000000  0.4757780000000  0.4780320000000 1.0
C      1  0.5499520000000  0.4647330000000  0.4041820000000 1.0
C      1  0.5479470000000  0.5335940000000  0.5910280000000 1.0
C      1  0.5508690000000  0.5341020000000  0.4045030000000 1.0
C      1  0.5477650000000  0.4663400000000  0.5907740000000 1.0
C      1  0.4750490000000  0.4700670000000  0.3934270000000 1.0
C      1  0.4737120000000  0.5291890000000  0.6087850000000 1.0
C      1  0.4756110000000  0.5294290000000  0.3935460000000 1.0
C      1  0.4736220000000  0.4705850000000  0.6088290000000 1.0
C      1  0.5041770000000  0.5825710000000  0.5704810000000 1.0
C      1  0.5062480000000  0.4215030000000  0.4359600000000 1.0
C      1  0.5040860000000  0.4169860000000  0.5706410000000 1.0
C      1  0.5074810000000  0.5771890000000  0.4364120000000 1.0
C      1  0.5006880000000  0.4847780000000  0.3954680000000 1.0
C      1  0.4988020000000  0.5145750000000  0.6032890000000 1.0
C      1  0.5010930000000  0.5144100000000  0.3953980000000 1.0
C      1  0.4987110000000  0.4851570000000  0.6032450000000 1.0
C      1  0.5602930000000  0.5132070000000  0.6048810000000 1.0
C      1  0.5622310000000  0.4861490000000  0.3914140000000 1.0
C      1  0.5602580000000  0.4865830000000  0.6047080000000 1.0
C      1  0.5623060000000  0.5128540000000  0.3908030000000 1.0
C      1  0.4751340000000  0.4093300000000  0.4726130000000 1.0
C      1  0.4756360000000  0.5890690000000  0.5297370000000 1.0
C      1  0.4758050000000  0.5900110000000  0.4724620000000 1.0
C      1  0.4753920000000  0.4102360000000  0.5300720000000 1.0
C      1  0.5182000000000  0.4718660000000  0.4375010000000 1.0
C      1  0.5113610000000  0.5345510000000  0.5622540000000 1.0
C      1  0.5191390000000  0.5266250000000  0.4374670000000 1.0
C      1  0.5110740000000  0.4649870000000  0.5622910000000 1.0
C      1  0.4466080000000  0.4057680000000  0.5388110000000 1.0
C      1  0.4473100000000  0.5941930000000  0.4624040000000 1.0
C      1  0.4469980000000  0.5939280000000  0.5385800000000 1.0
C      1  0.4465120000000  0.4055590000000  0.4626160000000 1.0
C      1  0.5859970000000  0.5153310000000  0.5067650000000 1.0
C      1  0.5778880000000  0.4725820000000  0.4787650000000 1.0
C      1  0.5852730000000  0.4869100000000  0.5056620000000 1.0
C      1  0.5805690000000  0.5311000000000  0.4811470000000 1.0
C      1  0.4421740000000  0.4772110000000  0.5271320000000 1.0
C      1  0.4438370000000  0.5221490000000  0.4747810000000 1.0
C      1  0.4422660000000  0.5224800000000  0.5270390000000 1.0
C      1  0.4435700000000  0.4776200000000  0.4748240000000 1.0
C      1  0.5891110000000  0.5663550000000  0.5305990000000 1.0
C      1  0.5942870000000  0.4356480000000  0.4637500000000 1.0
C      1  0.5891850000000  0.4341170000000  0.5300800000000 1.0
C      1  0.5951000000000  0.5682300000000  0.4636970000000 1.0
C      1  0.4608200000000  0.4720400000000  0.5541180000000 1.0
C      1  0.4629440000000  0.5266740000000  0.4477750000000 1.0
C      1  0.4609810000000  0.5276020000000  0.5539890000000 1.0
C      1  0.4625960000000  0.4729180000000  0.4477620000000 1.0
C      1  0.4648800000000  0.4431860000000  0.5654470000000 1.0
C      1  0.4662910000000  0.5555330000000  0.4378490000000 1.0
C      1  0.4650730000000  0.5564370000000  0.5652740000000 1.0
C      1  0.4656520000000  0.4439780000000  0.4378310000000 1.0
C      1  0.5202090000000  0.5339090000000  0.4093200000000 1.0
C      1  0.5167980000000  0.4639070000000  0.5908470000000 1.0
C      1  0.5193710000000  0.4649840000000  0.4092470000000 1.0
C      1  0.5169400000000  0.5357970000000  0.5908310000000 1.0
C      1  0.4870260000000  0.5678050000000  0.4565430000000 1.0
C      1  0.4872470000000  0.4299800000000  0.5492110000000 1.0
C      1  0.4863700000000  0.4314520000000  0.4564600000000 1.0
C      1  0.4874950000000  0.5694630000000  0.5489940000000 1.0
C      1  0.4158380000000  0.5648570000000  0.5262800000000 1.0
C      1  0.4156830000000  0.4352060000000  0.4747230000000 1.0
C      1  0.4155720000000  0.4349600000000  0.5264810000000 1.0
C      1  0.4162880000000  0.5647660000000  0.4745410000000 1.0
C      1  0.4995740000000  0.5559400000000  0.5145240000000 1.0
C      1  0.4946110000000  0.4480050000000  0.4828160000000 1.0
C      1  0.4989300000000  0.4435150000000  0.5145880000000 1.0
C      1  0.4953590000000  0.5513860000000  0.4827540000000 1.0
C      1  0.6099390000000  0.4439640000000  0.4849740000000 1.0
C      1  0.6094630000000  0.5631190000000  0.5121580000000 1.0
C      1  0.6108500000000  0.5612760000000  0.4854110000000 1.0
C      1  0.6089340000000  0.4383890000000  0.5111910000000 1.0
C      1  0.5756880000000  0.5906490000000  0.5312800000000 1.0
C      1  0.5749310000000  0.4167470000000  0.4721690000000 1.0
C      1  0.5758630000000  0.4097860000000  0.5307160000000 1.0
C      1  0.5751490000000  0.5861690000000  0.4718590000000 1.0
C      1  0.4150640000000  0.4717220000000  0.4378990000000 1.0
C      1  0.4138510000000  0.5284950000000  0.5637550000000 1.0
C      1  0.4153920000000  0.5282990000000  0.4378350000000 1.0
C      1  0.4137260000000  0.4713930000000  0.5638580000000 1.0
C      1  0.4404350000000  0.5158520000000  0.5737560000000 1.0
C      1  0.4418100000000  0.4840400000000  0.4279150000000 1.0
C      1  0.4403520000000  0.4839430000000  0.5738250000000 1.0
C      1  0.4420320000000  0.5158060000000  0.4279250000000 1.0
C      1  0.4156220000000  0.4407750000000  0.4443830000000 1.0
C      1  0.4151710000000  0.5594940000000  0.5566940000000 1.0
C      1  0.4162170000000  0.5592010000000  0.4442260000000 1.0
C      1  0.4149590000000  0.4403690000000  0.5568800000000 1.0
C      1  0.5318190000000  0.5744280000000  0.4509770000000 1.0
C      1  0.5293140000000  0.4167380000000  0.5567510000000 1.0
C      1  0.5304660000000  0.4242090000000  0.4506630000000 1.0
C      1  0.5294220000000  0.5828390000000  0.5566840000000 1.0
C      1  0.5277600000000  0.5881390000000  0.4766690000000 1.0
C      1  0.5270420000000  0.4052530000000  0.5291190000000 1.0
C      1  0.5272520000000  0.4109900000000  0.4764710000000 1.0
C      1  0.5270720000000  0.5942290000000  0.5290760000000 1.0
C      1  0.5533890000000  0.5943360000000  0.4875950000000 1.0
C      1  0.5532790000000  0.4027170000000  0.5159370000000 1.0
C      1  0.5533670000000  0.4066520000000  0.4873830000000 1.0
C      1  0.5532480000000  0.5976980000000  0.5162510000000 1.0
C      1  0.4233680000000  0.4071480000000  0.4817300000000 1.0
C      1  0.4240710000000  0.5927220000000  0.5191450000000 1.0
C      1  0.4241060000000  0.5927860000000  0.4814950000000 1.0
C      1  0.4236680000000  0.4070500000000  0.5193750000000 1.0
C      1  0.4897740000000  0.5163010000000  0.5495860000000 1.0
C      1  0.4936850000000  0.4842520000000  0.4510770000000 1.0
C      1  0.4895730000000  0.4832740000000  0.5496730000000 1.0
C      1  0.4941150000000  0.5150250000000  0.4510320000000 1.0
C      1  0.5395500000000  0.4537880000000  0.4497990000000 1.0
C      1  0.5330690000000  0.5532860000000  0.5505270000000 1.0
C      1  0.5406890000000  0.5444070000000  0.4499670000000 1.0
C      1  0.5327470000000  0.4463000000000  0.5505050000000 1.0
C      1  0.4524270000000  0.4998360000000  0.5017110000000 1.0
END
