TITL C-3577079-311-311 -3.0196321881544e-07 125000 -541.546136549868 0 0 87 (C1) n - 1
REM
REM in /home/bkarasulu/work/CARBON/AIRSS/Generating-Clusters/EDIP-Nigel-Params/with-SteepDescent/Higher-Symm/SD-CG/HFTN-CG
REM
REM
REM
REM
REM
REM ./C.cell (12c818d87b63d06a65506943cc24bca4)
REM
REM compiler GCC version 9.2.1 20190827 (Red Hat 9.2.1-1)
REM options -cpp -mtune=generic -march=x86-64 -g -O0 -fpre-include=/usr/include/finclude/math-vector-fortran.h
REM seed 1032174416 -770923987 -1123442727 325734721 -826456848 -69050209 1159583262 1944609313 469237900 1845381200 -1230533187 116474348 -1768861236 1184135528 -1090736643 -1701331957 563842046 2034627011 -631338542 1219136074 -382952357 51137370 365101365 -1342690577 1601101573 -365200636 -71621724 219292695 -445107465 1411782866 -1287429012 1801402669 -57523921
REM
CELL 1.54180   50.00000   50.00000   50.00000   90.00000   90.00000   90.00000
LATT -1
SFAC C  
C      1  0.5618270000000  0.5304410000000  0.5406390000000 1.0
C      1  0.4309590000000  0.4694430000000  0.4524510000000 1.0
C      1  0.5459320000000  0.5544190000000  0.5410500000000 1.0
C      1  0.4705550000000  0.4947390000000  0.5135890000000 1.0
C      1  0.4676990000000  0.5627020000000  0.5183750000000 1.0
C      1  0.5652340000000  0.4833390000000  0.5466680000000 1.0
C      1  0.5217390000000  0.5867560000000  0.5214070000000 1.0
C      1  0.4734980000000  0.4913960000000  0.4112190000000 1.0
C      1  0.4751550000000  0.4521670000000  0.4437170000000 1.0
C      1  0.5301650000000  0.5322490000000  0.4859140000000 1.0
C      1  0.4456000000000  0.4633360000000  0.5534270000000 1.0
C      1  0.4775390000000  0.4442470000000  0.4957230000000 1.0
C      1  0.4626420000000  0.5333690000000  0.4299690000000 1.0
C      1  0.5487310000000  0.4577610000000  0.5481980000000 1.0
C      1  0.4496620000000  0.4500330000000  0.4577560000000 1.0
C      1  0.5522550000000  0.5079400000000  0.5562200000000 1.0
C      1  0.4581100000000  0.5189970000000  0.4766820000000 1.0
C      1  0.4610160000000  0.5254110000000  0.5625920000000 1.0
C      1  0.5247320000000  0.4086350000000  0.5009570000000 1.0
C      1  0.4722040000000  0.4793300000000  0.5902670000000 1.0
C      1  0.5581830000000  0.5268060000000  0.4740890000000 1.0
C      1  0.4571940000000  0.5428970000000  0.4576770000000 1.0
C      1  0.4834190000000  0.5252350000000  0.5016470000000 1.0
C      1  0.4796580000000  0.4757750000000  0.4915560000000 1.0
C      1  0.5592750000000  0.4854450000000  0.4989760000000 1.0
C      1  0.4338570000000  0.4956000000000  0.4457730000000 1.0
C      1  0.5317160000000  0.5579270000000  0.4498060000000 1.0
C      1  0.5070320000000  0.4494820000000  0.5685790000000 1.0
C      1  0.5111800000000  0.5783260000000  0.4954440000000 1.0
C      1  0.5652410000000  0.4989340000000  0.4732280000000 1.0
C      1  0.4710540000000  0.4964320000000  0.5640280000000 1.0
C      1  0.4803750000000  0.4632350000000  0.4171680000000 1.0
C      1  0.4463840000000  0.4711630000000  0.5798080000000 1.0
C      1  0.5073000000000  0.5279960000000  0.5231850000000 1.0
C      1  0.4876010000000  0.4867810000000  0.5392110000000 1.0
C      1  0.5169500000000  0.5488060000000  0.5442190000000 1.0
C      1  0.5710710000000  0.4604290000000  0.4954090000000 1.0
C      1  0.5789840000000  0.4918140000000  0.5198620000000 1.0
C      1  0.4990170000000  0.4291760000000  0.4793150000000 1.0
C      1  0.4502410000000  0.4445480000000  0.5329170000000 1.0
C      1  0.4335460000000  0.4468580000000  0.5079460000000 1.0
C      1  0.4251570000000  0.5429060000000  0.4994680000000 1.0
C      1  0.5032960000000  0.5249520000000  0.4726150000000 1.0
C      1  0.5095760000000  0.4657420000000  0.4157970000000 1.0
C      1  0.5265690000000  0.5095640000000  0.5698590000000 1.0
C      1  0.5283830000000  0.4561310000000  0.5262610000000 1.0
C      1  0.4912060000000  0.4593270000000  0.5888950000000 1.0
C      1  0.4323250000000  0.5171700000000  0.4909490000000 1.0
C      1  0.5571460000000  0.4876040000000  0.4471630000000 1.0
C      1  0.5609080000000  0.5686520000000  0.4954960000000 1.0
C      1  0.4784340000000  0.4393100000000  0.5255860000000 1.0
C      1  0.5178600000000  0.4833040000000  0.4671290000000 1.0
C      1  0.5137130000000  0.5356650000000  0.5711570000000 1.0
C      1  0.4836720000000  0.5684020000000  0.4931700000000 1.0
C      1  0.5028630000000  0.4011850000000  0.4859850000000 1.0
C      1  0.4796090000000  0.5478030000000  0.5658210000000 1.0
C      1  0.4785570000000  0.5698680000000  0.5450740000000 1.0
C      1  0.5516170000000  0.4457840000000  0.4804490000000 1.0
C      1  0.4426100000000  0.5479240000000  0.5210170000000 1.0
C      1  0.4674480000000  0.4900840000000  0.4645110000000 1.0
C      1  0.4988700000000  0.4563770000000  0.5403060000000 1.0
C      1  0.5347160000000  0.4524070000000  0.5720060000000 1.0
C      1  0.5810610000000  0.5243630000000  0.5195500000000 1.0
C      1  0.5089000000000  0.4783920000000  0.4924610000000 1.0
C      1  0.4924430000000  0.5330650000000  0.4253220000000 1.0
C      1  0.5140950000000  0.5019850000000  0.5350940000000 1.0
C      1  0.4965000000000  0.4992120000000  0.4543350000000 1.0
C      1  0.5510800000000  0.5772240000000  0.5231520000000 1.0
C      1  0.5286290000000  0.4831620000000  0.5134490000000 1.0
C      1  0.5485640000000  0.5108010000000  0.4319980000000 1.0
C      1  0.4980060000000  0.4354730000000  0.4500290000000 1.0
C      1  0.5334580000000  0.5636360000000  0.4812370000000 1.0
C      1  0.5035660000000  0.5847640000000  0.5443630000000 1.0
C      1  0.5533220000000  0.5360370000000  0.4454000000000 1.0
C      1  0.4245820000000  0.5066760000000  0.5378750000000 1.0
C      1  0.4995440000000  0.5027940000000  0.4229020000000 1.0
C      1  0.5351200000000  0.4354710000000  0.5033840000000 1.0
C      1  0.5217020000000  0.4483750000000  0.4360790000000 1.0
C      1  0.4394920000000  0.5296110000000  0.5435710000000 1.0
C      1  0.4792740000000  0.5614780000000  0.4644160000000 1.0
C      1  0.4240560000000  0.4728950000000  0.5053060000000 1.0
C      1  0.4368320000000  0.4973970000000  0.5128890000000 1.0
C      1  0.5769670000000  0.5418900000000  0.4934690000000 1.0
C      1  0.5383830000000  0.4641880000000  0.4566000000000 1.0
C      1  0.4521170000000  0.5060320000000  0.4261020000000 1.0
C      1  0.5023820000000  0.5466190000000  0.4506050000000 1.0
C      1  0.4508620000000  0.4379250000000  0.4850330000000 1.0
END
