TITL C-3577083-591-279 -8.83528721225668e-07 125000 -510.560300849263 0 0 81 (C1) n - 1
REM
REM in /home/bkarasulu/work/CARBON/AIRSS/Generating-Clusters/EDIP-Nigel-Params/with-SteepDescent/Higher-Symm/SD-CG/HFTN-CG
REM
REM
REM
REM
REM
REM ./C.cell (12c818d87b63d06a65506943cc24bca4)
REM
REM compiler GCC version 9.2.1 20190827 (Red Hat 9.2.1-1)
REM options -cpp -mtune=generic -march=x86-64 -g -O0 -fpre-include=/usr/include/finclude/math-vector-fortran.h
REM seed 969094284 1491349951 696964265 -754529593 380831509 589034097 -1383244301 2062384856 1444518435 -320431184 130945168 86461038 951908217 -1156147735 -600521347 1114788076 -714561595 -89334880 1028055324 -2064871897 -804681237 796447482 1165682486 782861722 940986201 2013307899 -1514897822 -1392633744 1170107871 88486671 -1218545033 1584393341 1630882485
REM
CELL 1.54180   50.00000   50.00000   50.00000   90.00000   90.00000   90.00000
LATT -1
SFAC C  
C      1  0.5496230000000  0.4865570000000  0.4464770000000 1.0
C      1  0.4299630000000  0.5694260000000  0.4858740000000 1.0
C      1  0.4802890000000  0.4399070000000  0.5589350000000 1.0
C      1  0.5495710000000  0.5212670000000  0.5564070000000 1.0
C      1  0.4378750000000  0.5142720000000  0.4233260000000 1.0
C      1  0.4505710000000  0.4801110000000  0.5544790000000 1.0
C      1  0.4458720000000  0.4454780000000  0.5204560000000 1.0
C      1  0.5597210000000  0.4450780000000  0.4759590000000 1.0
C      1  0.5473200000000  0.5495240000000  0.5152930000000 1.0
C      1  0.4962800000000  0.5682820000000  0.4371640000000 1.0
C      1  0.5195780000000  0.5611910000000  0.5542800000000 1.0
C      1  0.5212000000000  0.4475100000000  0.4457300000000 1.0
C      1  0.4371380000000  0.4876920000000  0.4258480000000 1.0
C      1  0.5484160000000  0.5502460000000  0.4858380000000 1.0
C      1  0.5063520000000  0.4303530000000  0.5628360000000 1.0
C      1  0.4462800000000  0.5058880000000  0.5631310000000 1.0
C      1  0.5496300000000  0.5160080000000  0.4476510000000 1.0
C      1  0.5555600000000  0.4964110000000  0.5671310000000 1.0
C      1  0.5685990000000  0.4397070000000  0.5020740000000 1.0
C      1  0.4370770000000  0.4400170000000  0.4948440000000 1.0
C      1  0.4330670000000  0.5667080000000  0.5124970000000 1.0
C      1  0.5201900000000  0.5561840000000  0.4452410000000 1.0
C      1  0.4957190000000  0.5733020000000  0.5623050000000 1.0
C      1  0.4972680000000  0.4348430000000  0.4383610000000 1.0
C      1  0.4734520000000  0.4379030000000  0.5285400000000 1.0
C      1  0.5250920000000  0.4743680000000  0.4372930000000 1.0
C      1  0.4316110000000  0.5485710000000  0.4672070000000 1.0
C      1  0.4736590000000  0.5717850000000  0.4534880000000 1.0
C      1  0.5245050000000  0.5632500000000  0.5264540000000 1.0
C      1  0.5302510000000  0.4422970000000  0.4738500000000 1.0
C      1  0.5279070000000  0.5373370000000  0.5676630000000 1.0
C      1  0.4569050000000  0.5339880000000  0.4264900000000 1.0
C      1  0.4785390000000  0.4705870000000  0.5580210000000 1.0
C      1  0.4418950000000  0.4730780000000  0.5278490000000 1.0
C      1  0.5665930000000  0.4721260000000  0.4664920000000 1.0
C      1  0.5516350000000  0.5211390000000  0.5267820000000 1.0
C      1  0.5265730000000  0.4305780000000  0.5431420000000 1.0
C      1  0.4570040000000  0.4689900000000  0.4299320000000 1.0
C      1  0.5544870000000  0.5222300000000  0.4769100000000 1.0
C      1  0.5249480000000  0.5615310000000  0.4730050000000 1.0
C      1  0.4741700000000  0.5715880000000  0.5441080000000 1.0
C      1  0.4780800000000  0.4344490000000  0.4588270000000 1.0
C      1  0.4653480000000  0.5258180000000  0.5657130000000 1.0
C      1  0.5250090000000  0.5287850000000  0.4373280000000 1.0
C      1  0.5416510000000  0.4725540000000  0.5657090000000 1.0
C      1  0.5665240000000  0.4570060000000  0.5241390000000 1.0
C      1  0.4352440000000  0.4579700000000  0.4736640000000 1.0
C      1  0.4383390000000  0.5426270000000  0.5256540000000 1.0
C      1  0.5188050000000  0.4743560000000  0.5814760000000 1.0
C      1  0.5812840000000  0.5128960000000  0.4883250000000 1.0
C      1  0.4805960000000  0.5842760000000  0.5183050000000 1.0
C      1  0.5059820000000  0.5159310000000  0.4195030000000 1.0
C      1  0.4910380000000  0.5145880000000  0.5764450000000 1.0
C      1  0.4810370000000  0.4737570000000  0.4164310000000 1.0
C      1  0.5828460000000  0.4807730000000  0.5195650000000 1.0
C      1  0.4252740000000  0.4843760000000  0.4816700000000 1.0
C      1  0.4331910000000  0.5197060000000  0.5073480000000 1.0
C      1  0.4899370000000  0.4210750000000  0.4833960000000 1.0
C      1  0.5172410000000  0.4156850000000  0.5195830000000 1.0
C      1  0.5092070000000  0.5831560000000  0.4843820000000 1.0
C      1  0.4935690000000  0.4856240000000  0.5785370000000 1.0
C      1  0.4248170000000  0.5231380000000  0.4795750000000 1.0
C      1  0.5093440000000  0.5842200000000  0.5131730000000 1.0
C      1  0.4817830000000  0.5292340000000  0.4146230000000 1.0
C      1  0.5116850000000  0.5293980000000  0.5892910000000 1.0
C      1  0.5053680000000  0.4870250000000  0.4205360000000 1.0
C      1  0.4280010000000  0.4911490000000  0.5099040000000 1.0
C      1  0.5872950000000  0.4855190000000  0.4813900000000 1.0
C      1  0.5785710000000  0.5098410000000  0.5175750000000 1.0
C      1  0.5193920000000  0.4158590000000  0.4816900000000 1.0
C      1  0.4885470000000  0.4176380000000  0.5130380000000 1.0
C      1  0.4804440000000  0.5829010000000  0.4795640000000 1.0
C      1  0.5330570000000  0.5068350000000  0.4887250000000 1.0
C      1  0.5394730000000  0.4583370000000  0.5387640000000 1.0
C      1  0.4615730000000  0.5450690000000  0.5436040000000 1.0
C      1  0.4557530000000  0.5491340000000  0.4509880000000 1.0
C      1  0.4917880000000  0.4721560000000  0.5306540000000 1.0
C      1  0.5195660000000  0.4615710000000  0.4933610000000 1.0
C      1  0.4576030000000  0.4552200000000  0.4552850000000 1.0
C      1  0.5288650000000  0.5027130000000  0.5156740000000 1.0
C      1  0.5197260000000  0.4739770000000  0.5199470000000 1.0
END
