TITL C-3577080-309-525 5.20607686903515e-07 125000 -590.858281468379 0 0 95 (C1) n - 1
REM
REM in /home/bkarasulu/work/CARBON/AIRSS/Generating-Clusters/EDIP-Nigel-Params/with-SteepDescent/Higher-Symm/SD-CG/HFTN-CG
REM
REM
REM
REM
REM
REM ./C.cell (12c818d87b63d06a65506943cc24bca4)
REM
REM compiler GCC version 9.2.1 20190827 (Red Hat 9.2.1-1)
REM options -cpp -mtune=generic -march=x86-64 -g -O0 -fpre-include=/usr/include/finclude/math-vector-fortran.h
REM seed -1680554698 -847015201 -1809417311 1803224790 710941975 1891419833 1303397087 -2073936265 1823568018 -528464617 -1686044790 -1770594322 222636096 1891788075 -1890291208 -565336596 311824315 1222665521 -113792938 -1148799315 834911058 1211372255 -1064356568 -334840848 1866625642 72038045 -972376182 -371928957 767269564 973360317 -2068705396 1054468646 975108737
REM
CELL 1.54180   50.00000   50.00000   50.00000   90.00000   90.00000   90.00000
LATT -1
SFAC C  
C      1  0.4709720000000  0.4745320000000  0.5182040000000 1.0
C      1  0.5226030000000  0.4624700000000  0.5244340000000 1.0
C      1  0.5325200000000  0.5161910000000  0.5228760000000 1.0
C      1  0.4862200000000  0.5358920000000  0.5253780000000 1.0
C      1  0.5272600000000  0.4776610000000  0.4857710000000 1.0
C      1  0.4780620000000  0.4628590000000  0.4750020000000 1.0
C      1  0.4656490000000  0.5107620000000  0.4831300000000 1.0
C      1  0.5089630000000  0.5318540000000  0.4770210000000 1.0
C      1  0.5619330000000  0.5175700000000  0.4501880000000 1.0
C      1  0.4785270000000  0.5629560000000  0.4444870000000 1.0
C      1  0.4366990000000  0.4814790000000  0.4519530000000 1.0
C      1  0.5166120000000  0.4344320000000  0.4495200000000 1.0
C      1  0.4375820000000  0.5190890000000  0.5544340000000 1.0
C      1  0.5198360000000  0.5636160000000  0.5535640000000 1.0
C      1  0.5636560000000  0.4814410000000  0.5513200000000 1.0
C      1  0.4802610000000  0.4334260000000  0.5547990000000 1.0
C      1  0.5493190000000  0.5692680000000  0.5084310000000 1.0
C      1  0.4405960000000  0.5424150000000  0.5089780000000 1.0
C      1  0.4541800000000  0.4330720000000  0.5090740000000 1.0
C      1  0.5680340000000  0.4483200000000  0.5098320000000 1.0
C      1  0.4548810000000  0.5665600000000  0.4928130000000 1.0
C      1  0.5599910000000  0.5443030000000  0.4926040000000 1.0
C      1  0.5442930000000  0.4364990000000  0.4959410000000 1.0
C      1  0.4313130000000  0.4463630000000  0.4938650000000 1.0
C      1  0.5351920000000  0.4451970000000  0.5467080000000 1.0
C      1  0.5501240000000  0.5318610000000  0.5433110000000 1.0
C      1  0.4693540000000  0.5518840000000  0.5468770000000 1.0
C      1  0.4510390000000  0.4667680000000  0.5427760000000 1.0
C      1  0.4643600000000  0.4445850000000  0.4558450000000 1.0
C      1  0.4513680000000  0.5285370000000  0.4589650000000 1.0
C      1  0.5360840000000  0.5555140000000  0.4515270000000 1.0
C      1  0.5460900000000  0.4684870000000  0.4628550000000 1.0
C      1  0.5437620000000  0.5605790000000  0.5372580000000 1.0
C      1  0.4403700000000  0.5447820000000  0.5400810000000 1.0
C      1  0.4548050000000  0.4372980000000  0.5394110000000 1.0
C      1  0.5634930000000  0.4537100000000  0.5397260000000 1.0
C      1  0.4550110000000  0.5583670000000  0.4616650000000 1.0
C      1  0.5611940000000  0.5446690000000  0.4621060000000 1.0
C      1  0.5407370000000  0.4398670000000  0.4665040000000 1.0
C      1  0.4362700000000  0.4532140000000  0.4634950000000 1.0
C      1  0.5232830000000  0.5783080000000  0.4650870000000 1.0
C      1  0.4213990000000  0.5266060000000  0.4622920000000 1.0
C      1  0.4714480000000  0.4157990000000  0.4632440000000 1.0
C      1  0.5753730000000  0.4746920000000  0.4668820000000 1.0
C      1  0.4750950000000  0.5808640000000  0.5408580000000 1.0
C      1  0.5793600000000  0.5267360000000  0.5371840000000 1.0
C      1  0.5247650000000  0.4180330000000  0.5372720000000 1.0
C      1  0.4234270000000  0.4750960000000  0.5362350000000 1.0
C      1  0.4712510000000  0.5874270000000  0.5114020000000 1.0
C      1  0.4182810000000  0.4699050000000  0.5076320000000 1.0
C      1  0.5294630000000  0.4147430000000  0.5081680000000 1.0
C      1  0.5801880000000  0.5256780000000  0.5067180000000 1.0
C      1  0.5296260000000  0.5867110000000  0.4932610000000 1.0
C      1  0.5833930000000  0.4702750000000  0.4951160000000 1.0
C      1  0.4704450000000  0.4126680000000  0.4941970000000 1.0
C      1  0.4189140000000  0.5261680000000  0.4933340000000 1.0
C      1  0.4186040000000  0.5010570000000  0.5446490000000 1.0
C      1  0.4961960000000  0.4173210000000  0.5374300000000 1.0
C      1  0.5856320000000  0.4994720000000  0.5458950000000 1.0
C      1  0.5029160000000  0.5859650000000  0.5466940000000 1.0
C      1  0.5823930000000  0.4995560000000  0.4565400000000 1.0
C      1  0.4996530000000  0.4114270000000  0.4557530000000 1.0
C      1  0.4143330000000  0.4996070000000  0.4537290000000 1.0
C      1  0.4959450000000  0.5827270000000  0.4573610000000 1.0
C      1  0.4577710000000  0.4807980000000  0.4905230000000 1.0
C      1  0.5036770000000  0.4526910000000  0.4873530000000 1.0
C      1  0.5337110000000  0.5298530000000  0.4965150000000 1.0
C      1  0.4908030000000  0.5575610000000  0.4862150000000 1.0
C      1  0.5425790000000  0.4894640000000  0.5130850000000 1.0
C      1  0.4943120000000  0.4501990000000  0.5167770000000 1.0
C      1  0.4642110000000  0.5261280000000  0.5075350000000 1.0
C      1  0.5077200000000  0.5538700000000  0.5123210000000 1.0
C      1  0.4816710000000  0.5345330000000  0.5697620000000 1.0
C      1  0.4672920000000  0.4798070000000  0.5659910000000 1.0
C      1  0.5207030000000  0.4637190000000  0.5680720000000 1.0
C      1  0.5324570000000  0.5167730000000  0.5730560000000 1.0
C      1  0.5197710000000  0.5341900000000  0.4378430000000 1.0
C      1  0.5289760000000  0.4809120000000  0.4412430000000 1.0
C      1  0.4776620000000  0.4618840000000  0.4309060000000 1.0
C      1  0.4700050000000  0.5151890000000  0.4287870000000 1.0
C      1  0.4908520000000  0.4605040000000  0.5640750000000 1.0
C      1  0.5379110000000  0.4886740000000  0.5648750000000 1.0
C      1  0.5114880000000  0.5374480000000  0.5663820000000 1.0
C      1  0.4639760000000  0.5098080000000  0.5649240000000 1.0
C      1  0.5081410000000  0.4594870000000  0.4343620000000 1.0
C      1  0.4615780000000  0.4875220000000  0.4358080000000 1.0
C      1  0.4895120000000  0.5360710000000  0.4375750000000 1.0
C      1  0.5366500000000  0.5094260000000  0.4370300000000 1.0
C      1  0.5728630000000  0.4937790000000  0.5101310000000 1.0
C      1  0.5031170000000  0.5925190000000  0.5089810000000 1.0
C      1  0.4215590000000  0.4944080000000  0.4912930000000 1.0
C      1  0.5025480000000  0.4141660000000  0.4938230000000 1.0
C      1  0.5037240000000  0.5124890000000  0.5306910000000 1.0
C      1  0.4945880000000  0.5064000000000  0.4817040000000 1.0
C      1  0.4971750000000  0.4927760000000  0.5098900000000 1.0
END
