TITL C-3577078-809-666 -4.23793921740227e-06 125000 -1156.30229840149 0 0 186 (C1) n - 1
REM
REM in /home/bkarasulu/work/CARBON/AIRSS/Generating-Clusters/EDIP-Nigel-Params/with-SteepDescent/Higher-Symm/SD-CG/HFTN-CG
REM
REM
REM
REM
REM
REM ./C.cell (12c818d87b63d06a65506943cc24bca4)
REM
REM compiler GCC version 9.2.1 20190827 (Red Hat 9.2.1-1)
REM options -cpp -mtune=generic -march=x86-64 -g -O0 -fpre-include=/usr/include/finclude/math-vector-fortran.h
REM seed -383363452 -1570595412 -194772805 342473521 1836878836 -2109308644 575744750 113997858 1770162334 1293516570 -1081393757 -2047004410 1675257966 -2102991076 940652216 1993584586 1134214506 1097673401 -427787078 -1529757047 1594369763 1600143598 -2140471467 1657092230 -647049549 -1383499905 -1738913780 -683448756 -1420710643 362464491 -1628909286 -1157710902 795349895
REM
CELL 1.54180   50.00000   50.00000   50.00000   90.00000   90.00000   90.00000
LATT -1
SFAC C  
C      1  0.5375020000000  0.5509300000000  0.5473310000000 1.0
C      1  0.5103130000000  0.4487300000000  0.5534790000000 1.0
C      1  0.4631370000000  0.5159090000000  0.5569070000000 1.0
C      1  0.3920110000000  0.5374690000000  0.4941890000000 1.0
C      1  0.5915500000000  0.5824690000000  0.4924530000000 1.0
C      1  0.5231190000000  0.3830030000000  0.4962720000000 1.0
C      1  0.4629760000000  0.5547750000000  0.4943810000000 1.0
C      1  0.5723470000000  0.5079160000000  0.4997020000000 1.0
C      1  0.4699570000000  0.4340170000000  0.4941250000000 1.0
C      1  0.4857000000000  0.5500740000000  0.4168400000000 1.0
C      1  0.5527730000000  0.4841050000000  0.4061090000000 1.0
C      1  0.4599300000000  0.4626880000000  0.4115240000000 1.0
C      1  0.6015730000000  0.5334760000000  0.5052390000000 1.0
C      1  0.4757350000000  0.4029620000000  0.5012530000000 1.0
C      1  0.4339970000000  0.5656140000000  0.5000690000000 1.0
C      1  0.5446170000000  0.4313380000000  0.5569050000000 1.0
C      1  0.4173000000000  0.4907610000000  0.5472370000000 1.0
C      1  0.5439730000000  0.5809570000000  0.5561250000000 1.0
C      1  0.5509950000000  0.3863660000000  0.5002500000000 1.0
C      1  0.3819240000000  0.5119280000000  0.4980940000000 1.0
C      1  0.5741590000000  0.6044130000000  0.4964700000000 1.0
C      1  0.5148670000000  0.4074050000000  0.5645010000000 1.0
C      1  0.4169710000000  0.5275020000000  0.5609000000000 1.0
C      1  0.5792280000000  0.5674570000000  0.5643430000000 1.0
C      1  0.4551120000000  0.4773700000000  0.4783040000000 1.0
C      1  0.5125970000000  0.5437100000000  0.4791560000000 1.0
C      1  0.5301220000000  0.4693100000000  0.4808770000000 1.0
C      1  0.4713440000000  0.4135430000000  0.5498610000000 1.0
C      1  0.4436870000000  0.5618590000000  0.5456170000000 1.0
C      1  0.5860270000000  0.5237000000000  0.5493400000000 1.0
C      1  0.5322930000000  0.4992750000000  0.4808590000000 1.0
C      1  0.4859950000000  0.4757090000000  0.4795720000000 1.0
C      1  0.4934620000000  0.5193240000000  0.4788070000000 1.0
C      1  0.4454690000000  0.4501230000000  0.4876820000000 1.0
C      1  0.4829380000000  0.5748480000000  0.4892780000000 1.0
C      1  0.5716980000000  0.4814580000000  0.4889260000000 1.0
C      1  0.5288710000000  0.4633710000000  0.5919370000000 1.0
C      1  0.4423790000000  0.4882370000000  0.5929200000000 1.0
C      1  0.5178940000000  0.5533990000000  0.5883560000000 1.0
C      1  0.5183560000000  0.4916990000000  0.5920910000000 1.0
C      1  0.4663260000000  0.4752090000000  0.6055000000000 1.0
C      1  0.4902780000000  0.4973290000000  0.6069980000000 1.0
C      1  0.4747400000000  0.4126660000000  0.4472600000000 1.0
C      1  0.4372510000000  0.5655960000000  0.4489180000000 1.0
C      1  0.5880520000000  0.5259450000000  0.4438310000000 1.0
C      1  0.4826050000000  0.4552230000000  0.3957530000000 1.0
C      1  0.4688170000000  0.5363660000000  0.3983620000000 1.0
C      1  0.5443760000000  0.5086510000000  0.3929520000000 1.0
C      1  0.4192470000000  0.5676360000000  0.4716100000000 1.0
C      1  0.5946700000000  0.5417590000000  0.4676870000000 1.0
C      1  0.4837960000000  0.3951980000000  0.4698450000000 1.0
C      1  0.5098250000000  0.5522220000000  0.5260690000000 1.0
C      1  0.5414690000000  0.4631840000000  0.5269020000000 1.0
C      1  0.4415930000000  0.4844020000000  0.5264120000000 1.0
C      1  0.3805710000000  0.4336250000000  0.5103150000000 1.0
C      1  0.5113550000000  0.6320250000000  0.5051660000000 1.0
C      1  0.6065060000000  0.4282090000000  0.5065080000000 1.0
C      1  0.4582420000000  0.5351400000000  0.4715900000000 1.0
C      1  0.5609500000000  0.5257640000000  0.4778260000000 1.0
C      1  0.4928420000000  0.4416690000000  0.4738930000000 1.0
C      1  0.5686640000000  0.5384340000000  0.4257160000000 1.0
C      1  0.4958320000000  0.4192840000000  0.4270880000000 1.0
C      1  0.4304590000000  0.5449400000000  0.4283770000000 1.0
C      1  0.5194300000000  0.5807490000000  0.5751240000000 1.0
C      1  0.5534500000000  0.4539880000000  0.5752010000000 1.0
C      1  0.4289380000000  0.4735670000000  0.5696800000000 1.0
C      1  0.4658600000000  0.4863390000000  0.5491330000000 1.0
C      1  0.4907030000000  0.5428960000000  0.5824440000000 1.0
C      1  0.5483060000000  0.4871450000000  0.5446430000000 1.0
C      1  0.5025650000000  0.4777900000000  0.3938540000000 1.0
C      1  0.4769590000000  0.5071640000000  0.3946540000000 1.0
C      1  0.5146780000000  0.5143760000000  0.3965850000000 1.0
C      1  0.4920880000000  0.5878070000000  0.5637850000000 1.0
C      1  0.5712990000000  0.4751460000000  0.5611320000000 1.0
C      1  0.4336890000000  0.4453860000000  0.5622080000000 1.0
C      1  0.4815480000000  0.4702630000000  0.5805700000000 1.0
C      1  0.4766260000000  0.5238850000000  0.6014770000000 1.0
C      1  0.5284760000000  0.5065460000000  0.5676300000000 1.0
C      1  0.4781270000000  0.5121040000000  0.5038510000000 1.0
C      1  0.5263090000000  0.5122730000000  0.5102780000000 1.0
C      1  0.4941650000000  0.4715010000000  0.5122020000000 1.0
C      1  0.5940400000000  0.4338390000000  0.5316770000000 1.0
C      1  0.3934740000000  0.4451740000000  0.5329350000000 1.0
C      1  0.5138180000000  0.6178890000000  0.5297230000000 1.0
C      1  0.5548310000000  0.5496650000000  0.4965400000000 1.0
C      1  0.5151530000000  0.4306010000000  0.4955760000000 1.0
C      1  0.4344390000000  0.5197250000000  0.4865540000000 1.0
C      1  0.4828920000000  0.5752400000000  0.4316280000000 1.0
C      1  0.5642190000000  0.4839500000000  0.4355660000000 1.0
C      1  0.4407090000000  0.4483560000000  0.4294640000000 1.0
C      1  0.4304760000000  0.4586190000000  0.5125780000000 1.0
C      1  0.5024170000000  0.5788730000000  0.5119250000000 1.0
C      1  0.5664410000000  0.4609350000000  0.5101280000000 1.0
C      1  0.5512020000000  0.5921560000000  0.5081390000000 1.0
C      1  0.5527890000000  0.4130350000000  0.5103690000000 1.0
C      1  0.3868260000000  0.4855220000000  0.5063830000000 1.0
C      1  0.5354830000000  0.5356340000000  0.5733970000000 1.0
C      1  0.5040430000000  0.4511000000000  0.5818170000000 1.0
C      1  0.4518510000000  0.5164650000000  0.5857920000000 1.0
C      1  0.6087120000000  0.4855200000000  0.5196970000000 1.0
C      1  0.4318700000000  0.4095860000000  0.5211020000000 1.0
C      1  0.4605530000000  0.6042800000000  0.5205270000000 1.0
C      1  0.4208370000000  0.4701040000000  0.4371940000000 1.0
C      1  0.5093960000000  0.5857680000000  0.4422320000000 1.0
C      1  0.5644760000000  0.4531780000000  0.4440610000000 1.0
C      1  0.4601060000000  0.6131390000000  0.4931770000000 1.0
C      1  0.6159670000000  0.4822390000000  0.4919300000000 1.0
C      1  0.4318190000000  0.4081270000000  0.4929530000000 1.0
C      1  0.5825360000000  0.4945370000000  0.5797250000000 1.0
C      1  0.4456650000000  0.4277360000000  0.5804790000000 1.0
C      1  0.4741000000000  0.5670470000000  0.5759080000000 1.0
C      1  0.4583810000000  0.4912460000000  0.4154970000000 1.0
C      1  0.5133340000000  0.5409340000000  0.4157660000000 1.0
C      1  0.5283160000000  0.4682910000000  0.4129100000000 1.0
C      1  0.5662590000000  0.4195850000000  0.5367280000000 1.0
C      1  0.3922950000000  0.4761350000000  0.5342650000000 1.0
C      1  0.5407320000000  0.6027010000000  0.5338960000000 1.0
C      1  0.3983760000000  0.5472690000000  0.4684360000000 1.0
C      1  0.5890420000000  0.5707590000000  0.4658700000000 1.0
C      1  0.5134290000000  0.3889400000000  0.4690100000000 1.0
C      1  0.4003340000000  0.4270940000000  0.4657210000000 1.0
C      1  0.4991400000000  0.6109260000000  0.4611730000000 1.0
C      1  0.5937240000000  0.4488960000000  0.4607480000000 1.0
C      1  0.5908460000000  0.4288600000000  0.4828280000000 1.0
C      1  0.3884620000000  0.4432360000000  0.4850580000000 1.0
C      1  0.5183620000000  0.6166980000000  0.4826660000000 1.0
C      1  0.5939590000000  0.5434090000000  0.5716250000000 1.0
C      1  0.4874000000000  0.3993120000000  0.5719250000000 1.0
C      1  0.4227300000000  0.5560340000000  0.5682700000000 1.0
C      1  0.5284120000000  0.5671720000000  0.4233280000000 1.0
C      1  0.5415000000000  0.4421670000000  0.4238480000000 1.0
C      1  0.4283290000000  0.4949850000000  0.4216140000000 1.0
C      1  0.4387890000000  0.5837220000000  0.5247040000000 1.0
C      1  0.6055520000000  0.5144470000000  0.5277630000000 1.0
C      1  0.4583920000000  0.3984190000000  0.5272460000000 1.0
C      1  0.4094310000000  0.5304570000000  0.5344470000000 1.0
C      1  0.5817070000000  0.5708370000000  0.5368190000000 1.0
C      1  0.5191540000000  0.4017960000000  0.5374730000000 1.0
C      1  0.5258400000000  0.5896930000000  0.4921710000000 1.0
C      1  0.5636490000000  0.4352510000000  0.4925080000000 1.0
C      1  0.4045380000000  0.4672040000000  0.4909880000000 1.0
C      1  0.5204260000000  0.4588700000000  0.5064120000000 1.0
C      1  0.4516280000000  0.4985240000000  0.4998520000000 1.0
C      1  0.5263250000000  0.5406850000000  0.5040590000000 1.0
C      1  0.5456740000000  0.4449220000000  0.4680540000000 1.0
C      1  0.4178970000000  0.4809140000000  0.4658670000000 1.0
C      1  0.5260570000000  0.5701500000000  0.4667400000000 1.0
C      1  0.5129550000000  0.5238790000000  0.4396930000000 1.0
C      1  0.5201840000000  0.4801790000000  0.4392780000000 1.0
C      1  0.4728370000000  0.4932490000000  0.4411490000000 1.0
C      1  0.4470860000000  0.4249630000000  0.4473600000000 1.0
C      1  0.4603010000000  0.5840020000000  0.4480360000000 1.0
C      1  0.5898030000000  0.4963900000000  0.4455350000000 1.0
C      1  0.4219020000000  0.5186280000000  0.4376480000000 1.0
C      1  0.5546450000000  0.5622270000000  0.4337660000000 1.0
C      1  0.5229210000000  0.4236540000000  0.4363280000000 1.0
C      1  0.5529060000000  0.5086270000000  0.5228520000000 1.0
C      1  0.4773530000000  0.4485130000000  0.5181150000000 1.0
C      1  0.4747530000000  0.5381110000000  0.5167280000000 1.0
C      1  0.4456360000000  0.5671790000000  0.5841170000000 1.0
C      1  0.5867030000000  0.5206030000000  0.5887540000000 1.0
C      1  0.4679700000000  0.4133120000000  0.5892380000000 1.0
C      1  0.5306340000000  0.4105780000000  0.4597550000000 1.0
C      1  0.4131620000000  0.5116680000000  0.4654000000000 1.0
C      1  0.5625300000000  0.5763330000000  0.4566000000000 1.0
C      1  0.4825360000000  0.5199810000000  0.4492010000000 1.0
C      1  0.5351950000000  0.5055420000000  0.4505940000000 1.0
C      1  0.4929040000000  0.4711950000000  0.4486010000000 1.0
C      1  0.4903450000000  0.4295750000000  0.4019190000000 1.0
C      1  0.4425470000000  0.5436970000000  0.4032240000000 1.0
C      1  0.5621830000000  0.5279770000000  0.4011010000000 1.0
C      1  0.4905810000000  0.5272680000000  0.5565740000000 1.0
C      1  0.5092880000000  0.5081890000000  0.5439590000000 1.0
C      1  0.4951930000000  0.4821370000000  0.5408110000000 1.0
C      1  0.4740730000000  0.5975990000000  0.4727180000000 1.0
C      1  0.5952910000000  0.4776670000000  0.4713720000000 1.0
C      1  0.4260680000000  0.4162710000000  0.4667710000000 1.0
C      1  0.4903690000000  0.5986150000000  0.5337880000000 1.0
C      1  0.5889890000000  0.4642090000000  0.5326300000000 1.0
C      1  0.4230990000000  0.4370750000000  0.5342290000000 1.0
C      1  0.5077520000000  0.4044780000000  0.5105460000000 1.0
C      1  0.4184180000000  0.5384900000000  0.5076770000000 1.0
C      1  0.5829500000000  0.5592150000000  0.5096450000000 1.0
C      1  0.5600860000000  0.5326120000000  0.5368680000000 1.0
C      1  0.4889830000000  0.4338830000000  0.5388290000000 1.0
C      1  0.4527240000000  0.5350530000000  0.5358220000000 1.0
END
