TITL C-3577081-279-214 -1.1868814096162e-06 125000 -830.705477394486 0 0 135 (C2) n - 1
REM
REM in /home/bkarasulu/work/CARBON/AIRSS/Generating-Clusters/EDIP-Nigel-Params/with-SteepDescent/Higher-Symm/SD-CG/HFTN-CG
REM
REM
REM
REM
REM
REM ./C.cell (12c818d87b63d06a65506943cc24bca4)
REM
REM compiler GCC version 9.2.1 20190827 (Red Hat 9.2.1-1)
REM options -cpp -mtune=generic -march=x86-64 -g -O0 -fpre-include=/usr/include/finclude/math-vector-fortran.h
REM seed -2035857344 731001944 -230495642 -685850433 -80431199 -233531065 -1120014125 -679453981 -39850486 450870997 -334542706 -699032083 -1733200092 1172311476 -1432497138 286886831 1205529830 -842118106 1843078617 714587777 -1152907907 -1974394193 783298900 -718642668 523862782 76360597 1953612413 -2132639181 -1581893721 1380727735 -551533127 487893449 1909658305
REM
CELL 1.54180   50.00000   50.00000   50.00000   90.00000   90.00000   90.00000
LATT -1
SFAC C  
C      1  0.4499050000000  0.4806140000000  0.4443190000000 1.0
C      1  0.4483870000000  0.4390660000000  0.5027660000000 1.0
C      1  0.4512040000000  0.4853960000000  0.5533960000000 1.0
C      1  0.4478460000000  0.5468800000000  0.5322250000000 1.0
C      1  0.4544000000000  0.5426470000000  0.4655440000000 1.0
C      1  0.5435670000000  0.4804140000000  0.5512100000000 1.0
C      1  0.5480630000000  0.4410550000000  0.4987750000000 1.0
C      1  0.5495820000000  0.4837970000000  0.4411960000000 1.0
C      1  0.5467630000000  0.5462690000000  0.4696080000000 1.0
C      1  0.5501190000000  0.5451390000000  0.5346250000000 1.0
C      1  0.5929900000000  0.4829790000000  0.4803000000000 1.0
C      1  0.5943480000000  0.4757980000000  0.5088090000000 1.0
C      1  0.5949170000000  0.5011210000000  0.5252460000000 1.0
C      1  0.5962540000000  0.5244220000000  0.5054960000000 1.0
C      1  0.5959070000000  0.5131540000000  0.4774030000000 1.0
C      1  0.4020600000000  0.4825730000000  0.5194930000000 1.0
C      1  0.4049780000000  0.4760020000000  0.4899010000000 1.0
C      1  0.4036200000000  0.5008950000000  0.4742590000000 1.0
C      1  0.4030500000000  0.5243540000000  0.4932620000000 1.0
C      1  0.4017130000000  0.5127740000000  0.5215260000000 1.0
C      1  0.5773420000000  0.4769350000000  0.4339180000000 1.0
C      1  0.5757200000000  0.4304860000000  0.5026370000000 1.0
C      1  0.5710410000000  0.4786580000000  0.5647550000000 1.0
C      1  0.5777550000000  0.5558750000000  0.5377000000000 1.0
C      1  0.5735200000000  0.5558360000000  0.4590070000000 1.0
C      1  0.4244470000000  0.4782710000000  0.5657720000000 1.0
C      1  0.4206270000000  0.4300230000000  0.4984890000000 1.0
C      1  0.4222490000000  0.4810200000000  0.4330740000000 1.0
C      1  0.4269250000000  0.5549860000000  0.4596870000000 1.0
C      1  0.4202110000000  0.5531220000000  0.5414840000000 1.0
C      1  0.5491880000000  0.5202180000000  0.5150080000000 1.0
C      1  0.5582770000000  0.5213410000000  0.4840230000000 1.0
C      1  0.5510700000000  0.4939810000000  0.4707530000000 1.0
C      1  0.5495810000000  0.4720320000000  0.4998120000000 1.0
C      1  0.5569100000000  0.4916170000000  0.5244920000000 1.0
C      1  0.4410570000000  0.5207000000000  0.4844570000000 1.0
C      1  0.4487790000000  0.5205210000000  0.5145890000000 1.0
C      1  0.4396900000000  0.4914010000000  0.5252340000000 1.0
C      1  0.4468980000000  0.4703240000000  0.5033140000000 1.0
C      1  0.4483870000000  0.4911750000000  0.4734590000000 1.0
C      1  0.5421700000000  0.5243040000000  0.4253010000000 1.0
C      1  0.5418340000000  0.4364140000000  0.4551180000000 1.0
C      1  0.5425680000000  0.4362930000000  0.5481160000000 1.0
C      1  0.5420770000000  0.5253240000000  0.5729420000000 1.0
C      1  0.5439350000000  0.5789250000000  0.4991300000000 1.0
C      1  0.4540310000000  0.5235670000000  0.5753280000000 1.0
C      1  0.4557980000000  0.4364710000000  0.5462020000000 1.0
C      1  0.4561350000000  0.4376610000000  0.4534000000000 1.0
C      1  0.4554000000000  0.5260670000000  0.4245400000000 1.0
C      1  0.4558890000000  0.5771960000000  0.5015370000000 1.0
C      1  0.4970640000000  0.5497990000000  0.4077520000000 1.0
C      1  0.4959740000000  0.4281150000000  0.4251580000000 1.0
C      1  0.4957200000000  0.4065880000000  0.5452600000000 1.0
C      1  0.4953360000000  0.5176160000000  0.6021990000000 1.0
C      1  0.4947110000000  0.6014360000000  0.5175070000000 1.0
C      1  0.5032540000000  0.5480030000000  0.5910580000000 1.0
C      1  0.5009040000000  0.4276620000000  0.5758730000000 1.0
C      1  0.5019960000000  0.4066040000000  0.4547690000000 1.0
C      1  0.5022480000000  0.5141710000000  0.3971730000000 1.0
C      1  0.5026290000000  0.6026390000000  0.4851640000000 1.0
C      1  0.5261840000000  0.5000330000000  0.5707330000000 1.0
C      1  0.5297210000000  0.5688320000000  0.5239740000000 1.0
C      1  0.5272090000000  0.5434470000000  0.4434660000000 1.0
C      1  0.5280510000000  0.4588990000000  0.4404420000000 1.0
C      1  0.5276890000000  0.4311590000000  0.5220850000000 1.0
C      1  0.4702790000000  0.4997240000000  0.4277030000000 1.0
C      1  0.4717820000000  0.5672790000000  0.4781680000000 1.0
C      1  0.4682440000000  0.5440750000000  0.5580510000000 1.0
C      1  0.4707580000000  0.4596630000000  0.5587930000000 1.0
C      1  0.4699180000000  0.4306530000000  0.4793200000000 1.0
C      1  0.5698570000000  0.4511270000000  0.5479610000000 1.0
C      1  0.5709300000000  0.5283870000000  0.5630650000000 1.0
C      1  0.5719640000000  0.5682870000000  0.4897830000000 1.0
C      1  0.5710950000000  0.5146630000000  0.4306380000000 1.0
C      1  0.5700750000000  0.4391790000000  0.4663960000000 1.0
C      1  0.4278940000000  0.4492410000000  0.4525430000000 1.0
C      1  0.4281110000000  0.5305050000000  0.4386940000000 1.0
C      1  0.4270360000000  0.5687490000000  0.5075020000000 1.0
C      1  0.4260020000000  0.5113890000000  0.5681000000000 1.0
C      1  0.4268730000000  0.4385650000000  0.5353840000000 1.0
C      1  0.4777950000000  0.4484710000000  0.4367960000000 1.0
C      1  0.4785620000000  0.4257640000000  0.5309770000000 1.0
C      1  0.4761620000000  0.5059290000000  0.5824040000000 1.0
C      1  0.4768260000000  0.5777880000000  0.5222160000000 1.0
C      1  0.4757000000000  0.5469710000000  0.4278520000000 1.0
C      1  0.5222670000000  0.4459040000000  0.5669720000000 1.0
C      1  0.5201740000000  0.4239640000000  0.4705300000000 1.0
C      1  0.5194060000000  0.5065140000000  0.4198250000000 1.0
C      1  0.5218030000000  0.5802020000000  0.4801690000000 1.0
C      1  0.5211400000000  0.5451730000000  0.5671130000000 1.0
C      1  0.5218210000000  0.4956570000000  0.4735080000000 1.0
C      1  0.5194890000000  0.4750980000000  0.4955250000000 1.0
C      1  0.5132940000000  0.4902540000000  0.5212570000000 1.0
C      1  0.5210380000000  0.5177030000000  0.5147240000000 1.0
C      1  0.5143030000000  0.5215180000000  0.4867000000000 1.0
C      1  0.4836640000000  0.4940020000000  0.5245750000000 1.0
C      1  0.4761470000000  0.4734630000000  0.5040580000000 1.0
C      1  0.4784790000000  0.4880470000000  0.4777000000000 1.0
C      1  0.4846730000000  0.5172030000000  0.4841600000000 1.0
C      1  0.4769280000000  0.5194740000000  0.5122850000000 1.0
C      1  0.5152650000000  0.4027160000000  0.5225170000000 1.0
C      1  0.5151930000000  0.4933070000000  0.5988400000000 1.0
C      1  0.5152290000000  0.5922900000000  0.5386410000000 1.0
C      1  0.5153720000000  0.5662710000000  0.4257970000000 1.0
C      1  0.5156370000000  0.4484320000000  0.4141410000000 1.0
C      1  0.4823320000000  0.4024060000000  0.4774960000000 1.0
C      1  0.4827040000000  0.4913440000000  0.4005200000000 1.0
C      1  0.4827720000000  0.5919310000000  0.4630830000000 1.0
C      1  0.4827360000000  0.5652750000000  0.5758260000000 1.0
C      1  0.4825950000000  0.4499140000000  0.5859610000000 1.0
C      1  0.5858110000000  0.5029610000000  0.5554840000000 1.0
C      1  0.5868760000000  0.5517510000000  0.5107860000000 1.0
C      1  0.5869000000000  0.5299640000000  0.4518050000000 1.0
C      1  0.5851760000000  0.4643800000000  0.4589850000000 1.0
C      1  0.5849210000000  0.4508020000000  0.5212200000000 1.0
C      1  0.4130460000000  0.5049730000000  0.4466510000000 1.0
C      1  0.4121550000000  0.5536800000000  0.4856650000000 1.0
C      1  0.4110900000000  0.5262520000000  0.5458820000000 1.0
C      1  0.4110680000000  0.4634250000000  0.5433920000000 1.0
C      1  0.4127920000000  0.4499820000000  0.4788000000000 1.0
C      1  0.4947410000000  0.5356280000000  0.4500000000000 1.0
C      1  0.4980540000000  0.4639790000000  0.4545010000000 1.0
C      1  0.4993430000000  0.4473200000000  0.5228510000000 1.0
C      1  0.4971090000000  0.5050770000000  0.5593990000000 1.0
C      1  0.5001680000000  0.5562980000000  0.5176820000000 1.0
C      1  0.4977980000000  0.5342180000000  0.5480760000000 1.0
C      1  0.5032270000000  0.4634610000000  0.5493380000000 1.0
C      1  0.4999150000000  0.4455950000000  0.4798060000000 1.0
C      1  0.4986250000000  0.5054480000000  0.4428370000000 1.0
C      1  0.5008570000000  0.5580590000000  0.4864680000000 1.0
C      1  0.4994710000000  0.3964570000000  0.4995620000000 1.0
C      1  0.4992430000000  0.4695490000000  0.5985060000000 1.0
C      1  0.4989820000000  0.5833190000000  0.5605300000000 1.0
C      1  0.4984990000000  0.4675790000000  0.4016620000000 1.0
C      1  0.4987240000000  0.5842700000000  0.4405930000000 1.0
END
