TITL C-3577076-40-7 -2.15529459651872e-06 125000 -1207.27122881718 0 0 192 (C1) n - 1
REM
REM in /home/bkarasulu/work/CARBON/AIRSS/Generating-Clusters/EDIP-Nigel-Params/with-SteepDescent/Higher-Symm/SD-CG/HFTN-CG
REM
REM
REM
REM
REM
REM ./C.cell (12c818d87b63d06a65506943cc24bca4)
REM
REM compiler GCC version 9.2.1 20190827 (Red Hat 9.2.1-1)
REM options -cpp -mtune=generic -march=x86-64 -g -O0 -fpre-include=/usr/include/finclude/math-vector-fortran.h
REM seed 363073449 -1493843068 838465063 -2088208890 875717665 1577874616 -1991823010 -15009359 -408394145 -686256289 -1459623545 -736700519 -2106452526 1193385482 -1824039892 1832160674 -332175082 1506666709 3627642 335418672 -805550743 -422109828 742207459 -608444908 -1188181999 482060941 -704996115 2005816881 -229685176 417780695 -2108947346 80187938 -1325195359
REM
CELL 1.54180   50.00000   50.00000   50.00000   90.00000   90.00000   90.00000
LATT -1
SFAC C  
C      1  0.5921210000000  0.5012300000000  0.4682600000000 1.0
C      1  0.5804840000000  0.4754360000000  0.4806430000000 1.0
C      1  0.5898020000000  0.4636220000000  0.5070310000000 1.0
C      1  0.5789790000000  0.4821410000000  0.5285540000000 1.0
C      1  0.5901550000000  0.5095660000000  0.5341280000000 1.0
C      1  0.5783550000000  0.5284430000000  0.5122550000000 1.0
C      1  0.5825130000000  0.5264980000000  0.4832290000000 1.0
C      1  0.4873850000000  0.5454340000000  0.5779680000000 1.0
C      1  0.4915400000000  0.5947750000000  0.5172000000000 1.0
C      1  0.4867410000000  0.5734430000000  0.4352260000000 1.0
C      1  0.4881750000000  0.4890690000000  0.3963070000000 1.0
C      1  0.4878820000000  0.4202400000000  0.4437370000000 1.0
C      1  0.4845280000000  0.4039200000000  0.5333310000000 1.0
C      1  0.4994180000000  0.4560160000000  0.5916200000000 1.0
C      1  0.5688680000000  0.4383040000000  0.5631560000000 1.0
C      1  0.5426860000000  0.4994600000000  0.5969700000000 1.0
C      1  0.5503810000000  0.5773300000000  0.5544800000000 1.0
C      1  0.5448270000000  0.5856110000000  0.4798690000000 1.0
C      1  0.5430360000000  0.5280660000000  0.4192970000000 1.0
C      1  0.5515680000000  0.4452900000000  0.4075350000000 1.0
C      1  0.5401130000000  0.4087340000000  0.4875210000000 1.0
C      1  0.5277800000000  0.5253630000000  0.5971170000000 1.0
C      1  0.5348670000000  0.5951370000000  0.5364030000000 1.0
C      1  0.5313370000000  0.5859230000000  0.4537280000000 1.0
C      1  0.5340840000000  0.5051290000000  0.4041930000000 1.0
C      1  0.5334210000000  0.4300250000000  0.4259050000000 1.0
C      1  0.5302890000000  0.3978560000000  0.5126960000000 1.0
C      1  0.5485840000000  0.4431700000000  0.5844010000000 1.0
C      1  0.3829150000000  0.5303840000000  0.4877400000000 1.0
C      1  0.3761120000000  0.5098330000000  0.4688130000000 1.0
C      1  0.4099280000000  0.4804480000000  0.4879600000000 1.0
C      1  0.3855930000000  0.4705050000000  0.4985990000000 1.0
C      1  0.3813520000000  0.4795640000000  0.5263770000000 1.0
C      1  0.3842340000000  0.5070730000000  0.5335630000000 1.0
C      1  0.3801230000000  0.5297460000000  0.5164430000000 1.0
C      1  0.4519240000000  0.5389480000000  0.4101880000000 1.0
C      1  0.4471640000000  0.4467930000000  0.4041230000000 1.0
C      1  0.4499430000000  0.4015220000000  0.4813370000000 1.0
C      1  0.4502830000000  0.4262460000000  0.5701510000000 1.0
C      1  0.4515660000000  0.5066620000000  0.6017280000000 1.0
C      1  0.4503940000000  0.5823870000000  0.5571930000000 1.0
C      1  0.4471780000000  0.6019140000000  0.4718910000000 1.0
C      1  0.5427930000000  0.5561760000000  0.4896720000000 1.0
C      1  0.5169270000000  0.5411680000000  0.4342230000000 1.0
C      1  0.5416320000000  0.4749320000000  0.4508290000000 1.0
C      1  0.5138870000000  0.4347350000000  0.4756910000000 1.0
C      1  0.5380080000000  0.4540010000000  0.5271430000000 1.0
C      1  0.5307900000000  0.4855400000000  0.5746890000000 1.0
C      1  0.5438740000000  0.5502510000000  0.5412700000000 1.0
C      1  0.5889870000000  0.5949800000000  0.5291020000000 1.0
C      1  0.5880420000000  0.5767000000000  0.4573320000000 1.0
C      1  0.5817600000000  0.5034040000000  0.4381520000000 1.0
C      1  0.5850800000000  0.4378770000000  0.4421230000000 1.0
C      1  0.5776360000000  0.4348320000000  0.5109300000000 1.0
C      1  0.6009790000000  0.4591060000000  0.5855310000000 1.0
C      1  0.5797090000000  0.5178710000000  0.5627160000000 1.0
C      1  0.5460150000000  0.4815170000000  0.3926690000000 1.0
C      1  0.5448900000000  0.4092830000000  0.4433750000000 1.0
C      1  0.5423000000000  0.4053610000000  0.5381390000000 1.0
C      1  0.5576460000000  0.4588840000000  0.6091480000000 1.0
C      1  0.5410180000000  0.5495470000000  0.5878860000000 1.0
C      1  0.5462910000000  0.6119580000000  0.5146280000000 1.0
C      1  0.5454250000000  0.5742440000000  0.4317650000000 1.0
C      1  0.5719270000000  0.5304730000000  0.4278930000000 1.0
C      1  0.5767520000000  0.4549720000000  0.4217070000000 1.0
C      1  0.5672820000000  0.4203880000000  0.4864860000000 1.0
C      1  0.5960970000000  0.4377540000000  0.5697290000000 1.0
C      1  0.5725330000000  0.5006100000000  0.5888390000000 1.0
C      1  0.5783640000000  0.5843360000000  0.5516780000000 1.0
C      1  0.5742670000000  0.5904960000000  0.4784750000000 1.0
C      1  0.4971530000000  0.4628050000000  0.3899660000000 1.0
C      1  0.4957210000000  0.3941150000000  0.4518470000000 1.0
C      1  0.4948400000000  0.4002440000000  0.5599210000000 1.0
C      1  0.4994460000000  0.4758300000000  0.6129550000000 1.0
C      1  0.4974890000000  0.5718800000000  0.5789650000000 1.0
C      1  0.4964780000000  0.6114350000000  0.4949180000000 1.0
C      1  0.4969380000000  0.5713580000000  0.4085550000000 1.0
C      1  0.4522670000000  0.4528470000000  0.5823750000000 1.0
C      1  0.4484070000000  0.5355070000000  0.5960040000000 1.0
C      1  0.4489400000000  0.5919460000000  0.5291670000000 1.0
C      1  0.4463590000000  0.5898160000000  0.4445520000000 1.0
C      1  0.4491980000000  0.5099150000000  0.4015210000000 1.0
C      1  0.4448480000000  0.4239340000000  0.4231380000000 1.0
C      1  0.4466080000000  0.4001130000000  0.5109250000000 1.0
C      1  0.3884600000000  0.5129100000000  0.4436480000000 1.0
C      1  0.4128530000000  0.4736970000000  0.4617170000000 1.0
C      1  0.3877640000000  0.4417410000000  0.4966170000000 1.0
C      1  0.3894850000000  0.4614050000000  0.5454460000000 1.0
C      1  0.3889120000000  0.5125810000000  0.5602840000000 1.0
C      1  0.3872110000000  0.5534460000000  0.5290200000000 1.0
C      1  0.3890170000000  0.5548240000000  0.4767540000000 1.0
C      1  0.5827240000000  0.4746200000000  0.6002520000000 1.0
C      1  0.5507480000000  0.5265340000000  0.5597150000000 1.0
C      1  0.5746210000000  0.6041250000000  0.5065960000000 1.0
C      1  0.5687640000000  0.5577480000000  0.4451180000000 1.0
C      1  0.5618410000000  0.4809870000000  0.4284510000000 1.0
C      1  0.5702600000000  0.4191870000000  0.4567230000000 1.0
C      1  0.5582190000000  0.4317400000000  0.5354470000000 1.0
C      1  0.4781660000000  0.4655500000000  0.5728220000000 1.0
C      1  0.4634670000000  0.5402870000000  0.5608330000000 1.0
C      1  0.4692090000000  0.5766510000000  0.5133220000000 1.0
C      1  0.4608170000000  0.5627380000000  0.4448700000000 1.0
C      1  0.4678770000000  0.4912200000000  0.4174860000000 1.0
C      1  0.4607870000000  0.4306830000000  0.4497250000000 1.0
C      1  0.4666050000000  0.4275490000000  0.5295200000000 1.0
C      1  0.5004470000000  0.5214410000000  0.5866250000000 1.0
C      1  0.5134610000000  0.5797540000000  0.5258300000000 1.0
C      1  0.5043880000000  0.5769520000000  0.4566740000000 1.0
C      1  0.5066120000000  0.5101870000000  0.4003040000000 1.0
C      1  0.5062410000000  0.4391000000000  0.4326190000000 1.0
C      1  0.5019280000000  0.4025940000000  0.5108580000000 1.0
C      1  0.5235070000000  0.4569940000000  0.5742560000000 1.0
C      1  0.4119450000000  0.5163940000000  0.5753870000000 1.0
C      1  0.4110440000000  0.5662620000000  0.5351200000000 1.0
C      1  0.4098520000000  0.5709170000000  0.4687990000000 1.0
C      1  0.4122410000000  0.5182170000000  0.4295240000000 1.0
C      1  0.4143890000000  0.4573250000000  0.4395580000000 1.0
C      1  0.4115320000000  0.4267000000000  0.4968470000000 1.0
C      1  0.4131590000000  0.4527600000000  0.5567140000000 1.0
C      1  0.5132900000000  0.5456550000000  0.4870340000000 1.0
C      1  0.5120800000000  0.5234990000000  0.4603000000000 1.0
C      1  0.5128650000000  0.4851330000000  0.4538430000000 1.0
C      1  0.5051140000000  0.4662370000000  0.4790290000000 1.0
C      1  0.5060700000000  0.4785710000000  0.5085450000000 1.0
C      1  0.5084440000000  0.5030330000000  0.5409440000000 1.0
C      1  0.5114490000000  0.5287910000000  0.5216710000000 1.0
C      1  0.4266670000000  0.5857980000000  0.4869890000000 1.0
C      1  0.4266700000000  0.5440970000000  0.4263960000000 1.0
C      1  0.4304910000000  0.4686800000000  0.4182660000000 1.0
C      1  0.4266910000000  0.4184830000000  0.4726510000000 1.0
C      1  0.4279910000000  0.4288580000000  0.5488830000000 1.0
C      1  0.4286500000000  0.4952340000000  0.5865780000000 1.0
C      1  0.4269740000000  0.5638460000000  0.5596150000000 1.0
C      1  0.4240060000000  0.5847340000000  0.5164280000000 1.0
C      1  0.4219020000000  0.5707720000000  0.4415640000000 1.0
C      1  0.4247630000000  0.4976690000000  0.4121250000000 1.0
C      1  0.4221110000000  0.4287110000000  0.4436860000000 1.0
C      1  0.4249540000000  0.4163960000000  0.5213150000000 1.0
C      1  0.4285520000000  0.4679110000000  0.5762910000000 1.0
C      1  0.4246750000000  0.5423210000000  0.5803490000000 1.0
C      1  0.6281100000000  0.4809640000000  0.5288500000000 1.0
C      1  0.6201630000000  0.5076900000000  0.5318260000000 1.0
C      1  0.6316200000000  0.5242250000000  0.5124250000000 1.0
C      1  0.6330910000000  0.5203670000000  0.4856810000000 1.0
C      1  0.6220110000000  0.4991030000000  0.4712920000000 1.0
C      1  0.6288790000000  0.4743140000000  0.4825320000000 1.0
C      1  0.6196980000000  0.4650320000000  0.5073800000000 1.0
C      1  0.5353660000000  0.4791510000000  0.6183470000000 1.0
C      1  0.5264120000000  0.5741100000000  0.5838250000000 1.0
C      1  0.5260090000000  0.6158730000000  0.4927510000000 1.0
C      1  0.5270160000000  0.5680370000000  0.4088890000000 1.0
C      1  0.5262350000000  0.4610170000000  0.3841420000000 1.0
C      1  0.5248390000000  0.3920430000000  0.4571360000000 1.0
C      1  0.5233650000000  0.4011390000000  0.5591890000000 1.0
C      1  0.5591870000000  0.5402790000000  0.4694880000000 1.0
C      1  0.5413620000000  0.5176600000000  0.4625130000000 1.0
C      1  0.5511060000000  0.4747150000000  0.4788790000000 1.0
C      1  0.5372380000000  0.4514240000000  0.4949820000000 1.0
C      1  0.5508410000000  0.4802250000000  0.5329080000000 1.0
C      1  0.5361450000000  0.4992890000000  0.5506140000000 1.0
C      1  0.5569580000000  0.5479330000000  0.5153920000000 1.0
C      1  0.4685240000000  0.4607170000000  0.4486270000000 1.0
C      1  0.4690680000000  0.4363400000000  0.5003720000000 1.0
C      1  0.4835770000000  0.4545290000000  0.5432410000000 1.0
C      1  0.4648590000000  0.5106830000000  0.5551240000000 1.0
C      1  0.4739820000000  0.5509070000000  0.5308440000000 1.0
C      1  0.4671010000000  0.5560290000000  0.4745140000000 1.0
C      1  0.4754090000000  0.5129350000000  0.4372480000000 1.0
C      1  0.4722040000000  0.6136490000000  0.4798840000000 1.0
C      1  0.4752160000000  0.5540410000000  0.3969210000000 1.0
C      1  0.4727470000000  0.4477060000000  0.3908340000000 1.0
C      1  0.4740500000000  0.3874350000000  0.4705140000000 1.0
C      1  0.4731320000000  0.4097650000000  0.5756880000000 1.0
C      1  0.4761020000000  0.4931880000000  0.6101450000000 1.0
C      1  0.4751540000000  0.5875320000000  0.5708820000000 1.0
C      1  0.5054190000000  0.5545790000000  0.5390420000000 1.0
C      1  0.4928190000000  0.5688740000000  0.4830610000000 1.0
C      1  0.4938610000000  0.5291550000000  0.4189110000000 1.0
C      1  0.4944580000000  0.4680180000000  0.4335980000000 1.0
C      1  0.4903670000000  0.4177590000000  0.4878460000000 1.0
C      1  0.5141750000000  0.4503580000000  0.5459860000000 1.0
C      1  0.4890470000000  0.4992060000000  0.5668240000000 1.0
C      1  0.4716290000000  0.5068850000000  0.4657450000000 1.0
C      1  0.4641170000000  0.4787770000000  0.4711410000000 1.0
C      1  0.4652990000000  0.4651660000000  0.4975710000000 1.0
C      1  0.4783990000000  0.4769080000000  0.5211070000000 1.0
C      1  0.4644990000000  0.5031150000000  0.5275650000000 1.0
C      1  0.4686210000000  0.5271570000000  0.5127880000000 1.0
C      1  0.4651180000000  0.5285740000000  0.4841410000000 1.0
C      1  0.3693560000000  0.4841070000000  0.4791530000000 1.0
C      1  0.5150200000000  0.5043980000000  0.4990260000000 1.0
C      1  0.5411900000000  0.5014290000000  0.4865850000000 1.0
END
