TITL C-3578204-4308-143 -7.74057893709416e-07 125000 -999.929142189503 0 0 160 (C1) n - 1
REM
REM in /home/bkarasulu/work/CARBON/AIRSS/Generating-Clusters/EDIP-Nigel-Params/with-SteepDescent/Higher-Symm/SD-CG/HFTN-CG
REM
REM
REM
REM
REM
REM ./C.cell (12c818d87b63d06a65506943cc24bca4)
REM
REM compiler GCC version 9.2.1 20190827 (Red Hat 9.2.1-1)
REM options -cpp -mtune=generic -march=x86-64 -g -O0 -fpre-include=/usr/include/finclude/math-vector-fortran.h
REM seed 1107684472 1849316214 -1405174570 -378436718 -1569900936 -1918087053 167760257 -1227972144 767324336 -171878490 -646824688 1299089042 -1132696542 1288315844 -51115815 1224963433 -1704569099 -1556334580 -1760106873 50798240 1624183703 1193968813 -1338231185 -287783097 -507713965 -581244355 -1700032188 -118571356 -985303954 645956415 1861439496 130322462 -1742593551
REM
CELL 1.54180   50.00000   50.00000   50.00000   90.00000   90.00000   90.00000
LATT -1
SFAC C  
C      1  0.4998630000000  0.4001190000000  0.4703850000000 1.0
C      1  0.5509190000000  0.4125400000000  0.4675600000000 1.0
C      1  0.5901660000000  0.4570370000000  0.4637660000000 1.0
C      1  0.6053670000000  0.5191460000000  0.4673790000000 1.0
C      1  0.5769200000000  0.5602460000000  0.4646510000000 1.0
C      1  0.5313970000000  0.5993710000000  0.4689320000000 1.0
C      1  0.4673110000000  0.5972790000000  0.4703490000000 1.0
C      1  0.4310380000000  0.5635280000000  0.4687910000000 1.0
C      1  0.3984040000000  0.5099060000000  0.4716010000000 1.0
C      1  0.4097430000000  0.4599090000000  0.4725530000000 1.0
C      1  0.4495740000000  0.4089010000000  0.4711100000000 1.0
C      1  0.4630590000000  0.5323630000000  0.3883960000000 1.0
C      1  0.4426300000000  0.5243920000000  0.4062880000000 1.0
C      1  0.4426050000000  0.4774090000000  0.3914110000000 1.0
C      1  0.4476880000000  0.4566400000000  0.4101840000000 1.0
C      1  0.4840810000000  0.4350700000000  0.3885010000000 1.0
C      1  0.5104480000000  0.4390040000000  0.3837980000000 1.0
C      1  0.5661440000000  0.4651500000000  0.4055790000000 1.0
C      1  0.5792460000000  0.5115140000000  0.4062920000000 1.0
C      1  0.5546820000000  0.5285930000000  0.4066160000000 1.0
C      1  0.5256580000000  0.5694180000000  0.4081850000000 1.0
C      1  0.5056200000000  0.5533370000000  0.3980050000000 1.0
C      1  0.5220440000000  0.4315710000000  0.5336990000000 1.0
C      1  0.5619480000000  0.4487060000000  0.5340310000000 1.0
C      1  0.5798030000000  0.4884740000000  0.5301780000000 1.0
C      1  0.5719790000000  0.5317110000000  0.5317090000000 1.0
C      1  0.5459030000000  0.5672030000000  0.5347920000000 1.0
C      1  0.5028490000000  0.5769650000000  0.5336900000000 1.0
C      1  0.4541820000000  0.5728170000000  0.5384780000000 1.0
C      1  0.4123480000000  0.5401200000000  0.5395290000000 1.0
C      1  0.4093830000000  0.4874100000000  0.5414700000000 1.0
C      1  0.4303420000000  0.4374140000000  0.5405260000000 1.0
C      1  0.4758420000000  0.4199910000000  0.5386050000000 1.0
C      1  0.5440110000000  0.4909700000000  0.5945670000000 1.0
C      1  0.5359700000000  0.5188250000000  0.5937790000000 1.0
C      1  0.5177490000000  0.5332960000000  0.6090410000000 1.0
C      1  0.4953690000000  0.5367710000000  0.5929150000000 1.0
C      1  0.4702530000000  0.5382490000000  0.6051400000000 1.0
C      1  0.4547550000000  0.5188350000000  0.5916960000000 1.0
C      1  0.4488470000000  0.4944260000000  0.6049790000000 1.0
C      1  0.4651340000000  0.4757360000000  0.5914910000000 1.0
C      1  0.4837550000000  0.4601360000000  0.6055240000000 1.0
C      1  0.5081290000000  0.4648900000000  0.5926910000000 1.0
C      1  0.5302850000000  0.4710140000000  0.6081770000000 1.0
C      1  0.5447690000000  0.5240760000000  0.5047410000000 1.0
C      1  0.5183350000000  0.5287210000000  0.5199730000000 1.0
C      1  0.4978940000000  0.5494160000000  0.5067960000000 1.0
C      1  0.4718360000000  0.5382360000000  0.5171660000000 1.0
C      1  0.4521430000000  0.5201260000000  0.5008510000000 1.0
C      1  0.4445390000000  0.4925720000000  0.5152490000000 1.0
C      1  0.4601540000000  0.4685590000000  0.5018950000000 1.0
C      1  0.4842740000000  0.4586770000000  0.5184150000000 1.0
C      1  0.5117180000000  0.4569980000000  0.5058940000000 1.0
C      1  0.5259540000000  0.4811680000000  0.5192990000000 1.0
C      1  0.5512650000000  0.4935790000000  0.5046080000000 1.0
C      1  0.4095280000000  0.4871350000000  0.5695790000000 1.0
C      1  0.4312330000000  0.4390320000000  0.5685290000000 1.0
C      1  0.4769830000000  0.4165440000000  0.5666130000000 1.0
C      1  0.5268370000000  0.4210210000000  0.5607380000000 1.0
C      1  0.5714390000000  0.4434430000000  0.5604280000000 1.0
C      1  0.5944680000000  0.4874420000000  0.5552630000000 1.0
C      1  0.5859580000000  0.5364490000000  0.5565610000000 1.0
C      1  0.5509500000000  0.5711800000000  0.5624280000000 1.0
C      1  0.5034300000000  0.5856620000000  0.5617250000000 1.0
C      1  0.4533600000000  0.5748600000000  0.5666500000000 1.0
C      1  0.4144140000000  0.5396320000000  0.5676100000000 1.0
C      1  0.4498980000000  0.5807940000000  0.4552000000000 1.0
C      1  0.4002970000000  0.5313010000000  0.4542550000000 1.0
C      1  0.4023300000000  0.4848580000000  0.4568340000000 1.0
C      1  0.4285000000000  0.4185680000000  0.4559770000000 1.0
C      1  0.4744560000000  0.4051670000000  0.4548820000000 1.0
C      1  0.5230570000000  0.4092460000000  0.4542000000000 1.0
C      1  0.5758240000000  0.4350540000000  0.4521580000000 1.0
C      1  0.6137370000000  0.4968510000000  0.4530720000000 1.0
C      1  0.5831800000000  0.5327460000000  0.4540390000000 1.0
C      1  0.5545800000000  0.5904830000000  0.4546340000000 1.0
C      1  0.4875070000000  0.6094390000000  0.4559760000000 1.0
C      1  0.5473410000000  0.5086220000000  0.4285460000000 1.0
C      1  0.5506020000000  0.5564790000000  0.4170670000000 1.0
C      1  0.5154590000000  0.5862030000000  0.4276330000000 1.0
C      1  0.4788410000000  0.5497490000000  0.4042360000000 1.0
C      1  0.4394360000000  0.5432970000000  0.4278590000000 1.0
C      1  0.4315330000000  0.4977980000000  0.4083590000000 1.0
C      1  0.4291090000000  0.4593440000000  0.4315550000000 1.0
C      1  0.4681630000000  0.4361330000000  0.4113000000000 1.0
C      1  0.5234590000000  0.4370960000000  0.4085650000000 1.0
C      1  0.5493760000000  0.4457190000000  0.4156470000000 1.0
C      1  0.5820890000000  0.4845740000000  0.4177270000000 1.0
C      1  0.5580030000000  0.5138270000000  0.4569490000000 1.0
C      1  0.5499980000000  0.5620960000000  0.4478800000000 1.0
C      1  0.5078170000000  0.5890500000000  0.4548700000000 1.0
C      1  0.4662910000000  0.5552630000000  0.4318800000000 1.0
C      1  0.4282720000000  0.5383570000000  0.4548320000000 1.0
C      1  0.4263000000000  0.4880070000000  0.4371130000000 1.0
C      1  0.4321150000000  0.4474350000000  0.4580250000000 1.0
C      1  0.4826640000000  0.4298990000000  0.4378870000000 1.0
C      1  0.5109040000000  0.4235210000000  0.4310390000000 1.0
C      1  0.5478670000000  0.4434190000000  0.4450810000000 1.0
C      1  0.5889420000000  0.4830640000000  0.4479970000000 1.0
C      1  0.4985750000000  0.5568320000000  0.4735960000000 1.0
C      1  0.4785030000000  0.5381180000000  0.4563820000000 1.0
C      1  0.4511410000000  0.5206670000000  0.4687460000000 1.0
C      1  0.4504370000000  0.4927120000000  0.4559050000000 1.0
C      1  0.4584780000000  0.4652550000000  0.4691900000000 1.0
C      1  0.4843320000000  0.4539040000000  0.4578400000000 1.0
C      1  0.5086050000000  0.4663630000000  0.4734710000000 1.0
C      1  0.5368150000000  0.4675370000000  0.4604280000000 1.0
C      1  0.5581990000000  0.4860300000000  0.4720750000000 1.0
C      1  0.5377670000000  0.5256850000000  0.4750180000000 1.0
C      1  0.5268700000000  0.5496690000000  0.4639350000000 1.0
C      1  0.4612290000000  0.4711150000000  0.5625070000000 1.0
C      1  0.4836510000000  0.4563400000000  0.5491270000000 1.0
C      1  0.5098090000000  0.4620720000000  0.5634010000000 1.0
C      1  0.5338550000000  0.4717110000000  0.5475590000000 1.0
C      1  0.5523600000000  0.4896390000000  0.5647070000000 1.0
C      1  0.5451340000000  0.5245870000000  0.5655880000000 1.0
C      1  0.5235240000000  0.5388110000000  0.5487740000000 1.0
C      1  0.4972410000000  0.5417740000000  0.5638150000000 1.0
C      1  0.4710440000000  0.5393780000000  0.5482960000000 1.0
C      1  0.4532540000000  0.5193480000000  0.5616340000000 1.0
C      1  0.4470700000000  0.4932700000000  0.5476150000000 1.0
C      1  0.5980710000000  0.5130750000000  0.5661420000000 1.0
C      1  0.5696710000000  0.5524600000000  0.5742050000000 1.0
C      1  0.5281500000000  0.5816090000000  0.5749640000000 1.0
C      1  0.4793840000000  0.5805620000000  0.5760000000000 1.0
C      1  0.4349890000000  0.5564350000000  0.5778950000000 1.0
C      1  0.4125800000000  0.5136260000000  0.5791900000000 1.0
C      1  0.4211080000000  0.4632610000000  0.5796350000000 1.0
C      1  0.4542370000000  0.4267630000000  0.5797260000000 1.0
C      1  0.5034210000000  0.4163730000000  0.5761030000000 1.0
C      1  0.5512790000000  0.4285670000000  0.5729920000000 1.0
C      1  0.5823620000000  0.4674530000000  0.5723150000000 1.0
C      1  0.5521730000000  0.5761520000000  0.5084690000000 1.0
C      1  0.5017060000000  0.5922810000000  0.5093920000000 1.0
C      1  0.4512040000000  0.5771010000000  0.5107350000000 1.0
C      1  0.4140160000000  0.5388990000000  0.5114270000000 1.0
C      1  0.4045560000000  0.4859690000000  0.5132950000000 1.0
C      1  0.4304790000000  0.4378840000000  0.5124890000000 1.0
C      1  0.4742370000000  0.4096930000000  0.5123270000000 1.0
C      1  0.5249840000000  0.4158340000000  0.5103240000000 1.0
C      1  0.5693680000000  0.4398760000000  0.5076670000000 1.0
C      1  0.5941960000000  0.4859760000000  0.5055400000000 1.0
C      1  0.5859190000000  0.5372830000000  0.5078100000000 1.0
C      1  0.5709900000000  0.5581450000000  0.4938510000000 1.0
C      1  0.5285730000000  0.5889400000000  0.4957420000000 1.0
C      1  0.4751400000000  0.5863170000000  0.4957700000000 1.0
C      1  0.4318930000000  0.5593150000000  0.4974840000000 1.0
C      1  0.4086500000000  0.5119940000000  0.4987210000000 1.0
C      1  0.4166420000000  0.4617880000000  0.5003260000000 1.0
C      1  0.4510900000000  0.4200610000000  0.4981520000000 1.0
C      1  0.4995580000000  0.4093430000000  0.4976050000000 1.0
C      1  0.5487790000000  0.4226700000000  0.4951470000000 1.0
C      1  0.5856350000000  0.4600280000000  0.4927030000000 1.0
C      1  0.5929220000000  0.5130090000000  0.4926570000000 1.0
C      1  0.4906620000000  0.5106590000000  0.4513190000000 1.0
C      1  0.4838840000000  0.4990250000000  0.5009510000000 1.0
C      1  0.5052780000000  0.5024120000000  0.5214680000000 1.0
C      1  0.4976360000000  0.4945530000000  0.4749300000000 1.0
C      1  0.4960260000000  0.5010020000000  0.4257610000000 1.0
C      1  0.5221300000000  0.4967780000000  0.4232780000000 1.0
END
