TITL C-3578203-1966-57 -1.67644964279342e-06 125000 -556.942983644768 0 0 90 (C1) n - 1
REM
REM in /home/bkarasulu/work/CARBON/AIRSS/Generating-Clusters/EDIP-Nigel-Params/with-SteepDescent/Higher-Symm/SD-CG/HFTN-CG
REM
REM
REM
REM
REM
REM ./C.cell (12c818d87b63d06a65506943cc24bca4)
REM
REM compiler GCC version 9.2.1 20190827 (Red Hat 9.2.1-1)
REM options -cpp -mtune=generic -march=x86-64 -g -O0 -fpre-include=/usr/include/finclude/math-vector-fortran.h
REM seed -420228040 1171712796 24267144 -810363647 265796276 -1046875133 1576919373 -401140639 2125896743 1352392945 567463781 1798643963 -317856001 -1825661860 1522020990 854336145 -1828288377 -1333595644 -404962772 1681550841 -533668377 504607605 -614415505 -263573986 1030114758 861062169 1777095772 -1538896024 530448667 1433006501 -449816897 -1560372726 673875653
REM
CELL 1.54180   50.00000   50.00000   50.00000   90.00000   90.00000   90.00000
LATT -1
SFAC C  
C      1  0.5229340000000  0.4934750000000  0.5893450000000 1.0
C      1  0.5387030000000  0.5605310000000  0.5592290000000 1.0
C      1  0.5347460000000  0.5873490000000  0.4876170000000 1.0
C      1  0.5301040000000  0.5411320000000  0.4267040000000 1.0
C      1  0.5228210000000  0.4667470000000  0.4122750000000 1.0
C      1  0.5409400000000  0.4274530000000  0.4773710000000 1.0
C      1  0.5386590000000  0.4318460000000  0.5516230000000 1.0
C      1  0.4968880000000  0.5464310000000  0.5588430000000 1.0
C      1  0.5037730000000  0.5716100000000  0.5015800000000 1.0
C      1  0.5003530000000  0.5397550000000  0.4507740000000 1.0
C      1  0.4990640000000  0.4842770000000  0.4360490000000 1.0
C      1  0.4997870000000  0.4278080000000  0.4671240000000 1.0
C      1  0.5004550000000  0.4506350000000  0.5254980000000 1.0
C      1  0.4958400000000  0.4824370000000  0.5848180000000 1.0
C      1  0.5416120000000  0.5539600000000  0.4506990000000 1.0
C      1  0.5385250000000  0.4915700000000  0.4170460000000 1.0
C      1  0.5436930000000  0.4420800000000  0.4526460000000 1.0
C      1  0.5480280000000  0.4326220000000  0.5253910000000 1.0
C      1  0.5434100000000  0.4754460000000  0.5754760000000 1.0
C      1  0.5436790000000  0.5346850000000  0.5692120000000 1.0
C      1  0.5474850000000  0.5717480000000  0.5090590000000 1.0
C      1  0.4872930000000  0.5310230000000  0.5825030000000 1.0
C      1  0.5007960000000  0.5820120000000  0.5302110000000 1.0
C      1  0.4971110000000  0.5706580000000  0.4577710000000 1.0
C      1  0.4919190000000  0.5088890000000  0.4203630000000 1.0
C      1  0.4959210000000  0.4313020000000  0.4378300000000 1.0
C      1  0.4999380000000  0.4241060000000  0.5109830000000 1.0
C      1  0.5011990000000  0.4588780000000  0.5685280000000 1.0
C      1  0.5805210000000  0.4689290000000  0.4738710000000 1.0
C      1  0.5751850000000  0.4759680000000  0.5121780000000 1.0
C      1  0.5832040000000  0.4897690000000  0.5393760000000 1.0
C      1  0.5793220000000  0.5205100000000  0.5392180000000 1.0
C      1  0.5841500000000  0.5348030000000  0.5140160000000 1.0
C      1  0.5660820000000  0.5129190000000  0.4562950000000 1.0
C      1  0.5831220000000  0.4978330000000  0.4745510000000 1.0
C      1  0.5145640000000  0.4626070000000  0.4775250000000 1.0
C      1  0.5210180000000  0.4671520000000  0.5073980000000 1.0
C      1  0.5086100000000  0.5051890000000  0.5337520000000 1.0
C      1  0.5146780000000  0.5336850000000  0.5358660000000 1.0
C      1  0.5059880000000  0.5413700000000  0.5057970000000 1.0
C      1  0.5067850000000  0.5179580000000  0.4736440000000 1.0
C      1  0.5182290000000  0.4900820000000  0.4601680000000 1.0
C      1  0.4811170000000  0.5769610000000  0.4819300000000 1.0
C      1  0.4763960000000  0.5283960000000  0.4366040000000 1.0
C      1  0.4719250000000  0.4447400000000  0.4313360000000 1.0
C      1  0.4790540000000  0.4209870000000  0.4884370000000 1.0
C      1  0.4826510000000  0.4405760000000  0.5572110000000 1.0
C      1  0.4754450000000  0.5041360000000  0.5793120000000 1.0
C      1  0.4794250000000  0.5676120000000  0.5468710000000 1.0
C      1  0.4765010000000  0.5339200000000  0.5027270000000 1.0
C      1  0.4774610000000  0.5101960000000  0.4834530000000 1.0
C      1  0.4745670000000  0.4693160000000  0.4468510000000 1.0
C      1  0.4834010000000  0.4625520000000  0.4751260000000 1.0
C      1  0.4770650000000  0.4699350000000  0.5241990000000 1.0
C      1  0.4841900000000  0.4916390000000  0.5439200000000 1.0
C      1  0.4649250000000  0.5355350000000  0.5312300000000 1.0
C      1  0.4345240000000  0.4966210000000  0.5289290000000 1.0
C      1  0.4267510000000  0.5455650000000  0.5116820000000 1.0
C      1  0.4351360000000  0.5540620000000  0.4835900000000 1.0
C      1  0.4312660000000  0.5297470000000  0.4653900000000 1.0
C      1  0.4312730000000  0.4804160000000  0.4722170000000 1.0
C      1  0.4373030000000  0.4587280000000  0.4933430000000 1.0
C      1  0.4328010000000  0.4670220000000  0.5220500000000 1.0
C      1  0.5493610000000  0.5181880000000  0.5453130000000 1.0
C      1  0.5622420000000  0.5474470000000  0.4982900000000 1.0
C      1  0.5574620000000  0.5384540000000  0.4693070000000 1.0
C      1  0.5466930000000  0.4909720000000  0.4463290000000 1.0
C      1  0.5609110000000  0.4655080000000  0.4533530000000 1.0
C      1  0.5483190000000  0.4614720000000  0.5192820000000 1.0
C      1  0.5520990000000  0.4863800000000  0.5483930000000 1.0
C      1  0.4647230000000  0.5532060000000  0.4831460000000 1.0
C      1  0.4582150000000  0.5148370000000  0.4574670000000 1.0
C      1  0.4501020000000  0.4866480000000  0.4492570000000 1.0
C      1  0.4538800000000  0.4350510000000  0.4899480000000 1.0
C      1  0.4541440000000  0.4537390000000  0.5369480000000 1.0
C      1  0.4578440000000  0.5090650000000  0.5449550000000 1.0
C      1  0.4446210000000  0.5564540000000  0.5330910000000 1.0
C      1  0.5232210000000  0.5227900000000  0.5859420000000 1.0
C      1  0.5314740000000  0.5746970000000  0.5356160000000 1.0
C      1  0.5262840000000  0.5769260000000  0.4612620000000 1.0
C      1  0.5208900000000  0.5163230000000  0.4133460000000 1.0
C      1  0.5213100000000  0.4461970000000  0.4330910000000 1.0
C      1  0.5305180000000  0.4207040000000  0.5037000000000 1.0
C      1  0.5286610000000  0.4500150000000  0.5706420000000 1.0
C      1  0.4234540000000  0.5155050000000  0.5093680000000 1.0
C      1  0.4748370000000  0.4820400000000  0.4954760000000 1.0
C      1  0.5693200000000  0.5037080000000  0.4997380000000 1.0
C      1  0.5191930000000  0.4955130000000  0.5096310000000 1.0
C      1  0.5408410000000  0.5084990000000  0.4976290000000 1.0
C      1  0.4196510000000  0.5070520000000  0.4813660000000 1.0
END
