TITL C-3577080-309-24 -4.91425398966254e-06 125000 -656.303601130593 0 0 105 (C2) n - 1
REM
REM in /home/bkarasulu/work/CARBON/AIRSS/Generating-Clusters/EDIP-Nigel-Params/with-SteepDescent/Higher-Symm/SD-CG/HFTN-CG
REM
REM
REM
REM
REM
REM ./C.cell (12c818d87b63d06a65506943cc24bca4)
REM
REM compiler GCC version 9.2.1 20190827 (Red Hat 9.2.1-1)
REM options -cpp -mtune=generic -march=x86-64 -g -O0 -fpre-include=/usr/include/finclude/math-vector-fortran.h
REM seed -1255178304 1459346381 1274449588 826631039 15532363 -1520354542 -1017752692 -1684851003 729205831 100441621 1177905354 1331340818 -1479960942 -2038516104 1874918580 -117215306 -1811712458 1735529448 755903403 -2044161581 -1064669914 1085903590 1345392351 -122533807 735785197 -1190332758 1201776082 1674192028 426314827 1798936724 397097979 1040967700 -162977450
REM
CELL 1.54180   50.00000   50.00000   50.00000   90.00000   90.00000   90.00000
LATT -1
SFAC C  
C      1  0.4943350000000  0.5638150000000  0.5472590000000 1.0
C      1  0.5054570000000  0.5457970000000  0.4341880000000 1.0
C      1  0.4943450000000  0.4363700000000  0.4536950000000 1.0
C      1  0.5054620000000  0.4543900000000  0.5667660000000 1.0
C      1  0.5250140000000  0.5264990000000  0.5316020000000 1.0
C      1  0.4760540000000  0.5279410000000  0.4701700000000 1.0
C      1  0.5250190000000  0.4736910000000  0.4693520000000 1.0
C      1  0.4760570000000  0.4722420000000  0.5307830000000 1.0
C      1  0.5329060000000  0.4508550000000  0.4961190000000 1.0
C      1  0.4622460000000  0.4971830000000  0.5564910000000 1.0
C      1  0.5328990000000  0.5493350000000  0.5048350000000 1.0
C      1  0.4622470000000  0.5029980000000  0.4444620000000 1.0
C      1  0.5355460000000  0.4483160000000  0.5687960000000 1.0
C      1  0.4647240000000  0.5691260000000  0.5537810000000 1.0
C      1  0.5355400000000  0.5518750000000  0.4321590000000 1.0
C      1  0.4647340000000  0.4310560000000  0.4471730000000 1.0
C      1  0.5523210000000  0.4281630000000  0.4863870000000 1.0
C      1  0.4441010000000  0.4840210000000  0.5776740000000 1.0
C      1  0.5523110000000  0.5720300000000  0.5145680000000 1.0
C      1  0.4441000000000  0.5161580000000  0.4232790000000 1.0
C      1  0.5040420000000  0.4457900000000  0.4992920000000 1.0
C      1  0.4908040000000  0.5004440000000  0.5618700000000 1.0
C      1  0.5040340000000  0.5543970000000  0.5016620000000 1.0
C      1  0.4908050000000  0.4997410000000  0.4390840000000 1.0
C      1  0.5682940000000  0.5260230000000  0.4864940000000 1.0
C      1  0.4346880000000  0.4862610000000  0.4745890000000 1.0
C      1  0.5682980000000  0.4741720000000  0.5144610000000 1.0
C      1  0.4346850000000  0.5139160000000  0.5263640000000 1.0
C      1  0.4526900000000  0.5232020000000  0.5482890000000 1.0
C      1  0.5417590000000  0.5379570000000  0.4788340000000 1.0
C      1  0.4526940000000  0.4769780000000  0.4526650000000 1.0
C      1  0.5417640000000  0.4622350000000  0.5221210000000 1.0
C      1  0.5017290000000  0.4784540000000  0.5470870000000 1.0
C      1  0.4952130000000  0.5397280000000  0.5256840000000 1.0
C      1  0.5017270000000  0.5217320000000  0.4538670000000 1.0
C      1  0.4952190000000  0.4604580000000  0.4752700000000 1.0
C      1  0.4468820000000  0.4443540000000  0.5589470000000 1.0
C      1  0.5538840000000  0.5576180000000  0.5560290000000 1.0
C      1  0.4468750000000  0.5558250000000  0.4420070000000 1.0
C      1  0.5538930000000  0.4425760000000  0.4449260000000 1.0
C      1  0.5245780000000  0.5054760000000  0.5951860000000 1.0
C      1  0.4745850000000  0.5935120000000  0.4938500000000 1.0
C      1  0.5245810000000  0.4947130000000  0.4057690000000 1.0
C      1  0.4745980000000  0.4066710000000  0.5071040000000 1.0
C      1  0.5669070000000  0.4763850000000  0.4839930000000 1.0
C      1  0.4339220000000  0.4838120000000  0.5253900000000 1.0
C      1  0.5669040000000  0.5238100000000  0.5169620000000 1.0
C      1  0.4339200000000  0.5163650000000  0.4755630000000 1.0
C      1  0.5422200000000  0.5837890000000  0.5412100000000 1.0
C      1  0.4568480000000  0.5427400000000  0.4150770000000 1.0
C      1  0.5422320000000  0.4164030000000  0.4597450000000 1.0
C      1  0.4568520000000  0.4574410000000  0.5858760000000 1.0
C      1  0.4874370000000  0.5402440000000  0.4090330000000 1.0
C      1  0.5122550000000  0.4116670000000  0.4617520000000 1.0
C      1  0.4874410000000  0.4599410000000  0.5919210000000 1.0
C      1  0.5122420000000  0.5885210000000  0.5392020000000 1.0
C      1  0.4932570000000  0.5154460000000  0.3947390000000 1.0
C      1  0.5074620000000  0.3991960000000  0.4874790000000 1.0
C      1  0.4932570000000  0.4847400000000  0.6062150000000 1.0
C      1  0.5074470000000  0.6009910000000  0.5134760000000 1.0
C      1  0.4865310000000  0.4624200000000  0.4146960000000 1.0
C      1  0.5140720000000  0.4186260000000  0.5365310000000 1.0
C      1  0.4865240000000  0.5377640000000  0.5862580000000 1.0
C      1  0.5140610000000  0.5815620000000  0.4644240000000 1.0
C      1  0.5426380000000  0.4855750000000  0.4259190000000 1.0
C      1  0.4578410000000  0.4276090000000  0.5155500000000 1.0
C      1  0.5426350000000  0.5146170000000  0.5750360000000 1.0
C      1  0.4578320000000  0.5725710000000  0.4854030000000 1.0
C      1  0.5538610000000  0.4690900000000  0.5703230000000 1.0
C      1  0.4472490000000  0.5685980000000  0.5318720000000 1.0
C      1  0.5538580000000  0.5311030000000  0.4306320000000 1.0
C      1  0.4472590000000  0.4315810000000  0.4690810000000 1.0
C      1  0.5385010000000  0.5630670000000  0.4591940000000 1.0
C      1  0.4607860000000  0.4562580000000  0.4320200000000 1.0
C      1  0.5385090000000  0.4371240000000  0.5417610000000 1.0
C      1  0.4607790000000  0.5439220000000  0.5689340000000 1.0
C      1  0.5693980000000  0.5506640000000  0.5300010000000 1.0
C      1  0.4296870000000  0.5311440000000  0.4486730000000 1.0
C      1  0.5694060000000  0.4495320000000  0.4709540000000 1.0
C      1  0.4296910000000  0.4690320000000  0.5522800000000 1.0
C      1  0.5238150000000  0.5105790000000  0.4726440000000 1.0
C      1  0.4788430000000  0.4822560000000  0.5005030000000 1.0
C      1  0.5238160000000  0.4896110000000  0.5283100000000 1.0
C      1  0.4788410000000  0.5179270000000  0.5004510000000 1.0
C      1  0.4448400000000  0.4426650000000  0.4946360000000 1.0
C      1  0.5555920000000  0.4942340000000  0.5587670000000 1.0
C      1  0.4448310000000  0.5575130000000  0.5063180000000 1.0
C      1  0.5555920000000  0.5059600000000  0.4421890000000 1.0
C      1  0.5076480000000  0.5520800000000  0.5712060000000 1.0
C      1  0.4929470000000  0.5690300000000  0.4480900000000 1.0
C      1  0.5076560000000  0.4481070000000  0.4297480000000 1.0
C      1  0.4929560000000  0.4311550000000  0.5528640000000 1.0
C      1  0.5321940000000  0.4626330000000  0.4412410000000 1.0
C      1  0.4685930000000  0.4428120000000  0.5387460000000 1.0
C      1  0.5321880000000  0.5375570000000  0.5597140000000 1.0
C      1  0.4685860000000  0.5573700000000  0.4622080000000 1.0
C      1  0.5012180000000  0.4181710000000  0.5085960000000 1.0
C      1  0.4964450000000  0.5082660000000  0.5890470000000 1.0
C      1  0.5012060000000  0.5820150000000  0.4923590000000 1.0
C      1  0.4964480000000  0.4919200000000  0.4119070000000 1.0
C      1  0.5672170000000  0.5017990000000  0.4694540000000 1.0
C      1  0.4363290000000  0.4704340000000  0.4990280000000 1.0
C      1  0.5672160000000  0.4983970000000  0.5315010000000 1.0
C      1  0.4363250000000  0.5297440000000  0.5019250000000 1.0
C      1  0.5085090000000  0.5000940000000  0.5004770000000 1.0
END
