TITL C-3577080-309-263 -1.1090475984362e-06 125000 -420.20400021245 0 0 68 (C1) n - 1
REM
REM in /home/bkarasulu/work/CARBON/AIRSS/Generating-Clusters/EDIP-Nigel-Params/with-SteepDescent/Higher-Symm/SD-CG/HFTN-CG
REM
REM
REM
REM
REM
REM ./C.cell (12c818d87b63d06a65506943cc24bca4)
REM
REM compiler GCC version 9.2.1 20190827 (Red Hat 9.2.1-1)
REM options -cpp -mtune=generic -march=x86-64 -g -O0 -fpre-include=/usr/include/finclude/math-vector-fortran.h
REM seed 1352096777 -1344678038 1841105888 -1370205363 981834107 1213410427 2033629642 1571017908 -1354754304 -1668957350 1773982327 -66323322 931954054 -906516598 -2041803263 712435580 430558475 1214885048 179309749 -366660337 -876464677 760583170 1144917995 -564570352 -330435806 -1036981047 735969535 1251367386 -1689494561 912496166 2006705154 -1610763426 1490849801
REM
CELL 1.54180   50.00000   50.00000   50.00000   90.00000   90.00000   90.00000
LATT -1
SFAC C  
C      1  0.5459290000000  0.5238690000000  0.5057620000000 1.0
C      1  0.4574990000000  0.5259020000000  0.5010370000000 1.0
C      1  0.4965840000000  0.4605280000000  0.4915780000000 1.0
C      1  0.5226110000000  0.4358390000000  0.4688110000000 1.0
C      1  0.5470280000000  0.5579290000000  0.4724570000000 1.0
C      1  0.4238390000000  0.5103320000000  0.4710950000000 1.0
C      1  0.4297960000000  0.4909410000000  0.5217940000000 1.0
C      1  0.5407130000000  0.4511990000000  0.5112450000000 1.0
C      1  0.5274240000000  0.5664740000000  0.5216580000000 1.0
C      1  0.4734460000000  0.4634770000000  0.5625950000000 1.0
C      1  0.5526410000000  0.4925080000000  0.5718790000000 1.0
C      1  0.4840230000000  0.5497320000000  0.5629290000000 1.0
C      1  0.4483220000000  0.4470680000000  0.5197100000000 1.0
C      1  0.5715110000000  0.4813020000000  0.5211330000000 1.0
C      1  0.4803640000000  0.5707970000000  0.5164040000000 1.0
C      1  0.4930240000000  0.5148990000000  0.4890310000000 1.0
C      1  0.4770020000000  0.4876240000000  0.4920300000000 1.0
C      1  0.5237050000000  0.5016370000000  0.4954570000000 1.0
C      1  0.4373350000000  0.4675640000000  0.4561990000000 1.0
C      1  0.5526650000000  0.4682920000000  0.4553940000000 1.0
C      1  0.5026610000000  0.5597950000000  0.4531690000000 1.0
C      1  0.5208670000000  0.5080790000000  0.4231400000000 1.0
C      1  0.4754730000000  0.4988780000000  0.4217550000000 1.0
C      1  0.5010270000000  0.4886530000000  0.4242390000000 1.0
C      1  0.4957580000000  0.4256260000000  0.4661300000000 1.0
C      1  0.5700140000000  0.5374900000000  0.4695960000000 1.0
C      1  0.4335040000000  0.5388850000000  0.4656980000000 1.0
C      1  0.4589730000000  0.4551150000000  0.4686590000000 1.0
C      1  0.5587840000000  0.4913070000000  0.4698410000000 1.0
C      1  0.4803040000000  0.5500830000000  0.4666210000000 1.0
C      1  0.4590790000000  0.5364820000000  0.4506470000000 1.0
C      1  0.4824140000000  0.4481740000000  0.4519090000000 1.0
C      1  0.5589000000000  0.5152470000000  0.4535480000000 1.0
C      1  0.4753680000000  0.4864660000000  0.5227430000000 1.0
C      1  0.5232360000000  0.4805690000000  0.5417820000000 1.0
C      1  0.5033510000000  0.5294950000000  0.5229610000000 1.0
C      1  0.5269890000000  0.4684430000000  0.4897990000000 1.0
C      1  0.5337010000000  0.5499250000000  0.4980800000000 1.0
C      1  0.4404730000000  0.5013590000000  0.4952340000000 1.0
C      1  0.4819480000000  0.4227720000000  0.4921760000000 1.0
C      1  0.5748930000000  0.5237080000000  0.4958770000000 1.0
C      1  0.4432070000000  0.5507560000000  0.4910970000000 1.0
C      1  0.5054340000000  0.5833560000000  0.5182150000000 1.0
C      1  0.4258340000000  0.4635260000000  0.5214700000000 1.0
C      1  0.5677140000000  0.4538450000000  0.5184550000000 1.0
C      1  0.5039810000000  0.4673370000000  0.4437180000000 1.0
C      1  0.5338810000000  0.5238690000000  0.4420990000000 1.0
C      1  0.4592400000000  0.5084660000000  0.4420650000000 1.0
C      1  0.4798000000000  0.5457370000000  0.5342510000000 1.0
C      1  0.4729320000000  0.4586620000000  0.5334600000000 1.0
C      1  0.5511420000000  0.4946470000000  0.5425700000000 1.0
C      1  0.5767790000000  0.4941560000000  0.4936940000000 1.0
C      1  0.4681330000000  0.5670560000000  0.4883990000000 1.0
C      1  0.4560400000000  0.4369920000000  0.4920890000000 1.0
C      1  0.4744810000000  0.4916880000000  0.5670370000000 1.0
C      1  0.5253630000000  0.4883260000000  0.5792580000000 1.0
C      1  0.5069410000000  0.5338780000000  0.5673390000000 1.0
C      1  0.4346470000000  0.4944060000000  0.4488870000000 1.0
C      1  0.5296230000000  0.4543200000000  0.4484030000000 1.0
C      1  0.5291230000000  0.5519920000000  0.4489280000000 1.0
C      1  0.4960810000000  0.4454170000000  0.5202640000000 1.0
C      1  0.5477040000000  0.5229780000000  0.5352460000000 1.0
C      1  0.4564120000000  0.5291950000000  0.5300540000000 1.0
C      1  0.4535290000000  0.5015620000000  0.5396360000000 1.0
C      1  0.5221670000000  0.4519760000000  0.5330420000000 1.0
C      1  0.5259540000000  0.5417960000000  0.5428270000000 1.0
C      1  0.5024750000000  0.4982530000000  0.5281810000000 1.0
C      1  0.5017500000000  0.5045350000000  0.5717470000000 1.0
END
