TITL C-3577088-510-589 -2.62667816015557e-06 125000 -769.341066020503 0 0 126 (C1) n - 1
REM
REM in /home/bkarasulu/work/CARBON/AIRSS/Generating-Clusters/EDIP-Nigel-Params/with-SteepDescent/Higher-Symm/SD-CG/HFTN-CG
REM
REM
REM
REM
REM
REM ./C.cell (12c818d87b63d06a65506943cc24bca4)
REM
REM compiler GCC version 9.2.1 20190827 (Red Hat 9.2.1-1)
REM options -cpp -mtune=generic -march=x86-64 -g -O0 -fpre-include=/usr/include/finclude/math-vector-fortran.h
REM seed 1414747945 421210430 734503386 737126401 -156069432 -917036615 -1186034549 60055454 1036912725 -590332560 -858160224 182751484 -1025780501 -2031649671 363199699 -1756287472 -1040485586 -1137666927 -928253299 -1559703484 -1399335833 -757627769 859160675 -1576983049 1242571893 945379124 -1586047528 1903921565 1748217540 1096018326 252785563 942294173 462320642
REM
CELL 1.54180   50.00000   50.00000   50.00000   90.00000   90.00000   90.00000
LATT -1
SFAC C  
C      1  0.5053030000000  0.5846000000000  0.4663750000000 1.0
C      1  0.5040990000000  0.4617880000000  0.4138270000000 1.0
C      1  0.5045050000000  0.4108570000000  0.5335870000000 1.0
C      1  0.5037650000000  0.5395300000000  0.5861460000000 1.0
C      1  0.4959290000000  0.5927380000000  0.5359800000000 1.0
C      1  0.4985530000000  0.4671990000000  0.5772900000000 1.0
C      1  0.4959210000000  0.4071730000000  0.4613750000000 1.0
C      1  0.4973580000000  0.5324010000000  0.4152920000000 1.0
C      1  0.5618140000000  0.4981220000000  0.4247450000000 1.0
C      1  0.5598160000000  0.4280340000000  0.4981280000000 1.0
C      1  0.5649870000000  0.5031840000000  0.5829100000000 1.0
C      1  0.5608900000000  0.5735000000000  0.5007780000000 1.0
C      1  0.4402770000000  0.5025220000000  0.5672190000000 1.0
C      1  0.4409610000000  0.4279610000000  0.4971170000000 1.0
C      1  0.4390680000000  0.4972390000000  0.4303080000000 1.0
C      1  0.4373360000000  0.5740780000000  0.5019500000000 1.0
C      1  0.5235660000000  0.4023930000000  0.5154700000000 1.0
C      1  0.5205560000000  0.5179080000000  0.5935940000000 1.0
C      1  0.5239960000000  0.5972200000000  0.4824830000000 1.0
C      1  0.5224390000000  0.4801220000000  0.4030710000000 1.0
C      1  0.4764670000000  0.4010790000000  0.4801830000000 1.0
C      1  0.4786730000000  0.5129930000000  0.4080850000000 1.0
C      1  0.4757090000000  0.5984420000000  0.5174710000000 1.0
C      1  0.4825370000000  0.4882900000000  0.5886520000000 1.0
C      1  0.5563350000000  0.5276130000000  0.5268380000000 1.0
C      1  0.5588730000000  0.5212210000000  0.4778330000000 1.0
C      1  0.5553160000000  0.4683030000000  0.4808170000000 1.0
C      1  0.5570750000000  0.4804120000000  0.5088350000000 1.0
C      1  0.4452690000000  0.5221100000000  0.4969840000000 1.0
C      1  0.4449510000000  0.5305110000000  0.5277600000000 1.0
C      1  0.4439210000000  0.4763860000000  0.5195410000000 1.0
C      1  0.4418060000000  0.4778040000000  0.4698330000000 1.0
C      1  0.4419240000000  0.4335790000000  0.4467520000000 1.0
C      1  0.4452090000000  0.4531000000000  0.5599200000000 1.0
C      1  0.4426830000000  0.5668430000000  0.5508120000000 1.0
C      1  0.4453700000000  0.5458430000000  0.4383940000000 1.0
C      1  0.5584530000000  0.4319150000000  0.5486760000000 1.0
C      1  0.5557240000000  0.4485620000000  0.4359200000000 1.0
C      1  0.5582330000000  0.5647980000000  0.4504610000000 1.0
C      1  0.5553520000000  0.5519630000000  0.5690240000000 1.0
C      1  0.5351740000000  0.4303860000000  0.4421480000000 1.0
C      1  0.5370530000000  0.4417110000000  0.5634100000000 1.0
C      1  0.5364220000000  0.5692570000000  0.5576360000000 1.0
C      1  0.5371210000000  0.5551830000000  0.4348790000000 1.0
C      1  0.4656660000000  0.4354000000000  0.5521480000000 1.0
C      1  0.4651790000000  0.4404930000000  0.4327390000000 1.0
C      1  0.4673840000000  0.5589780000000  0.4493500000000 1.0
C      1  0.4662990000000  0.5590800000000  0.5634040000000 1.0
C      1  0.4109380000000  0.5239370000000  0.4593990000000 1.0
C      1  0.4087340000000  0.4534980000000  0.4743290000000 1.0
C      1  0.4096720000000  0.4765010000000  0.5419450000000 1.0
C      1  0.4026450000000  0.5548770000000  0.5299910000000 1.0
C      1  0.5901310000000  0.5272120000000  0.5496480000000 1.0
C      1  0.5787990000000  0.4648430000000  0.5240540000000 1.0
C      1  0.5864180000000  0.4771300000000  0.4591510000000 1.0
C      1  0.5906570000000  0.5438410000000  0.4765930000000 1.0
C      1  0.5921810000000  0.5454490000000  0.5291270000000 1.0
C      1  0.5916520000000  0.5237900000000  0.4571250000000 1.0
C      1  0.5928830000000  0.4545380000000  0.4734140000000 1.0
C      1  0.5868330000000  0.4733800000000  0.5492750000000 1.0
C      1  0.4245740000000  0.5375200000000  0.4801260000000 1.0
C      1  0.4129700000000  0.5290760000000  0.5349760000000 1.0
C      1  0.4088160000000  0.4573590000000  0.5221520000000 1.0
C      1  0.4049220000000  0.4742950000000  0.4568680000000 1.0
C      1  0.5258590000000  0.4923560000000  0.5499290000000 1.0
C      1  0.5140280000000  0.5541830000000  0.5123980000000 1.0
C      1  0.5205190000000  0.5068120000000  0.4482080000000 1.0
C      1  0.5088120000000  0.4475420000000  0.4808000000000 1.0
C      1  0.4870820000000  0.5003650000000  0.4488220000000 1.0
C      1  0.4860340000000  0.5530460000000  0.4994930000000 1.0
C      1  0.4987310000000  0.5065850000000  0.5579600000000 1.0
C      1  0.4888600000000  0.4490560000000  0.5097430000000 1.0
C      1  0.5119830000000  0.5646900000000  0.5726270000000 1.0
C      1  0.5127280000000  0.5693320000000  0.4422670000000 1.0
C      1  0.5115790000000  0.4359430000000  0.4256850000000 1.0
C      1  0.5123710000000  0.4276060000000  0.5566840000000 1.0
C      1  0.4900690000000  0.5554470000000  0.4320300000000 1.0
C      1  0.4890820000000  0.5761440000000  0.5594490000000 1.0
C      1  0.4896520000000  0.4409850000000  0.5679580000000 1.0
C      1  0.4882830000000  0.4233010000000  0.4374130000000 1.0
C      1  0.5281200000000  0.4714280000000  0.5738280000000 1.0
C      1  0.5222630000000  0.5793320000000  0.5284040000000 1.0
C      1  0.5253320000000  0.5256330000000  0.4238110000000 1.0
C      1  0.5212210000000  0.4214490000000  0.4697080000000 1.0
C      1  0.4749490000000  0.4647000000000  0.4170710000000 1.0
C      1  0.4791450000000  0.5728970000000  0.4764700000000 1.0
C      1  0.4749510000000  0.5363350000000  0.5809720000000 1.0
C      1  0.4788660000000  0.4239250000000  0.5245980000000 1.0
C      1  0.5748840000000  0.4338670000000  0.4752550000000 1.0
C      1  0.5806990000000  0.4821780000000  0.5737810000000 1.0
C      1  0.5713350000000  0.5632530000000  0.5248920000000 1.0
C      1  0.5721340000000  0.5206400000000  0.4378990000000 1.0
C      1  0.4305450000000  0.4401200000000  0.5202150000000 1.0
C      1  0.4227000000000  0.4753410000000  0.4357420000000 1.0
C      1  0.4215180000000  0.5653590000000  0.4808830000000 1.0
C      1  0.4241860000000  0.5245420000000  0.5605000000000 1.0
C      1  0.5677820000000  0.4735750000000  0.4385080000000 1.0
C      1  0.5707290000000  0.4367680000000  0.5241420000000 1.0
C      1  0.5698200000000  0.5281830000000  0.5687210000000 1.0
C      1  0.5708080000000  0.5636150000000  0.4752590000000 1.0
C      1  0.4297650000000  0.4763020000000  0.5613140000000 1.0
C      1  0.4296940000000  0.4354110000000  0.4717590000000 1.0
C      1  0.4292970000000  0.5233270000000  0.4383510000000 1.0
C      1  0.4261390000000  0.5708020000000  0.5287030000000 1.0
C      1  0.4759880000000  0.5265510000000  0.4912070000000 1.0
C      1  0.4728770000000  0.4805790000000  0.4678520000000 1.0
C      1  0.4750040000000  0.4755130000000  0.5206660000000 1.0
C      1  0.4737270000000  0.5175010000000  0.5343680000000 1.0
C      1  0.5250910000000  0.5296820000000  0.5258410000000 1.0
C      1  0.5291890000000  0.4795330000000  0.5224580000000 1.0
C      1  0.5263970000000  0.4705330000000  0.4722500000000 1.0
C      1  0.5283830000000  0.5227150000000  0.4721490000000 1.0
C      1  0.5382020000000  0.5907580000000  0.5053180000000 1.0
C      1  0.5383640000000  0.5027580000000  0.4079420000000 1.0
C      1  0.5376100000000  0.4101930000000  0.4930380000000 1.0
C      1  0.5382300000000  0.4957290000000  0.5921900000000 1.0
C      1  0.4613830000000  0.5895210000000  0.4951740000000 1.0
C      1  0.4632440000000  0.5090450000000  0.5835810000000 1.0
C      1  0.4631460000000  0.4106900000000  0.5024260000000 1.0
C      1  0.4621560000000  0.4914150000000  0.4138450000000 1.0
C      1  0.4924250000000  0.5270150000000  0.4653840000000 1.0
C      1  0.4979220000000  0.5361720000000  0.5430460000000 1.0
C      1  0.4944190000000  0.4625620000000  0.4562210000000 1.0
C      1  0.5041630000000  0.4640260000000  0.5340310000000 1.0
C      1  0.5641480000000  0.5091820000000  0.5047980000000 1.0
C      1  0.4371260000000  0.4929120000000  0.4955320000000 1.0
END
