TITL C-3577089-586-673 -1.30499887224163e-06 125000 -576.776129036877 0 0 94 (C1) n - 1
REM
REM in /home/bkarasulu/work/CARBON/AIRSS/Generating-Clusters/EDIP-Nigel-Params/with-SteepDescent/Higher-Symm/SD-CG/HFTN-CG
REM
REM
REM
REM
REM
REM ./C.cell (12c818d87b63d06a65506943cc24bca4)
REM
REM compiler GCC version 9.2.1 20190827 (Red Hat 9.2.1-1)
REM options -cpp -mtune=generic -march=x86-64 -g -O0 -fpre-include=/usr/include/finclude/math-vector-fortran.h
REM seed -487404811 1538884004 1225334796 -658602396 -81956118 1267036559 1200645339 -2066930076 -316779745 581387453 -561524206 1788622055 -2021230364 1075908191 -1064361851 521695672 1229278587 -983503140 -1394091881 1888942275 -188943619 1849106613 861856487 -2068182161 659602103 -162541511 -1540480852 -486801312 318351364 1193327791 -230183829 935976682 778539867
REM
CELL 1.54180   50.00000   50.00000   50.00000   90.00000   90.00000   90.00000
LATT -1
SFAC C  
C      1  0.5162380000000  0.5567060000000  0.5709220000000 1.0
C      1  0.5542980000000  0.5582130000000  0.4502420000000 1.0
C      1  0.4305050000000  0.5572290000000  0.4780680000000 1.0
C      1  0.5591530000000  0.4857350000000  0.5629720000000 1.0
C      1  0.5253620000000  0.4866540000000  0.4184450000000 1.0
C      1  0.4175830000000  0.4857550000000  0.5200670000000 1.0
C      1  0.4792800000000  0.5028610000000  0.4813890000000 1.0
C      1  0.4969800000000  0.5011940000000  0.5254690000000 1.0
C      1  0.5266370000000  0.5048350000000  0.4893190000000 1.0
C      1  0.4186460000000  0.4851320000000  0.4489930000000 1.0
C      1  0.4961400000000  0.4857390000000  0.5959430000000 1.0
C      1  0.5856620000000  0.4859990000000  0.4558540000000 1.0
C      1  0.4500860000000  0.5496520000000  0.4978330000000 1.0
C      1  0.5232750000000  0.5489510000000  0.5439990000000 1.0
C      1  0.5272560000000  0.5509320000000  0.4570900000000 1.0
C      1  0.4854410000000  0.5731630000000  0.4743420000000 1.0
C      1  0.4854490000000  0.5724210000000  0.5253200000000 1.0
C      1  0.5298750000000  0.5738720000000  0.4999230000000 1.0
C      1  0.4435880000000  0.5021740000000  0.5148110000000 1.0
C      1  0.5421480000000  0.5017850000000  0.5422060000000 1.0
C      1  0.5165580000000  0.5035540000000  0.4429960000000 1.0
C      1  0.4443660000000  0.5528640000000  0.4542500000000 1.0
C      1  0.4886250000000  0.5528680000000  0.5709690000000 1.0
C      1  0.5678030000000  0.5539150000000  0.4742330000000 1.0
C      1  0.5034390000000  0.5063630000000  0.5784300000000 1.0
C      1  0.5678260000000  0.5073870000000  0.4576050000000 1.0
C      1  0.4302850000000  0.5060830000000  0.4635870000000 1.0
C      1  0.4212770000000  0.4595440000000  0.5060500000000 1.0
C      1  0.5449870000000  0.4594950000000  0.5669920000000 1.0
C      1  0.5337910000000  0.4608280000000  0.4312350000000 1.0
C      1  0.4807720000000  0.4299980000000  0.4895620000000 1.0
C      1  0.5005090000000  0.4298410000000  0.5233510000000 1.0
C      1  0.5195440000000  0.4314320000000  0.4893910000000 1.0
C      1  0.4555920000000  0.5208380000000  0.5679010000000 1.0
C      1  0.5820710000000  0.5221310000000  0.5043110000000 1.0
C      1  0.4632000000000  0.5210860000000  0.4270880000000 1.0
C      1  0.4368010000000  0.5326310000000  0.5198940000000 1.0
C      1  0.5493530000000  0.5325640000000  0.5447270000000 1.0
C      1  0.5150540000000  0.5337250000000  0.4343330000000 1.0
C      1  0.5522480000000  0.5127690000000  0.5783780000000 1.0
C      1  0.5429040000000  0.5133180000000  0.4157590000000 1.0
C      1  0.4064980000000  0.5120970000000  0.5063020000000 1.0
C      1  0.4833370000000  0.5317880000000  0.4890580000000 1.0
C      1  0.4993200000000  0.5310140000000  0.5194270000000 1.0
C      1  0.5173390000000  0.5330570000000  0.4900750000000 1.0
C      1  0.5807600000000  0.5284700000000  0.4757850000000 1.0
C      1  0.4394470000000  0.5271350000000  0.4429930000000 1.0
C      1  0.4810310000000  0.5271920000000  0.5806160000000 1.0
C      1  0.4726270000000  0.4338050000000  0.4605760000000 1.0
C      1  0.4791350000000  0.4324980000000  0.5449840000000 1.0
C      1  0.5491990000000  0.4329520000000  0.4965720000000 1.0
C      1  0.4491090000000  0.5401410000000  0.5464900000000 1.0
C      1  0.5659230000000  0.5406840000000  0.5205720000000 1.0
C      1  0.4853430000000  0.5404690000000  0.4321690000000 1.0
C      1  0.4596220000000  0.5002950000000  0.4082690000000 1.0
C      1  0.4403430000000  0.5006160000000  0.5802960000000 1.0
C      1  0.5994810000000  0.5014040000000  0.5120360000000 1.0
C      1  0.4743250000000  0.5549440000000  0.5460320000000 1.0
C      1  0.5533310000000  0.5561580000000  0.4991050000000 1.0
C      1  0.4731430000000  0.5558400000000  0.4539700000000 1.0
C      1  0.5172840000000  0.4636670000000  0.5542720000000 1.0
C      1  0.5375530000000  0.4662400000000  0.4610600000000 1.0
C      1  0.4459860000000  0.4638470000000  0.4882260000000 1.0
C      1  0.4377830000000  0.4659350000000  0.4390910000000 1.0
C      1  0.4779760000000  0.4667000000000  0.5842700000000 1.0
C      1  0.5835630000000  0.4675140000000  0.4778460000000 1.0
C      1  0.5682110000000  0.5122420000000  0.4300340000000 1.0
C      1  0.4061940000000  0.5113300000000  0.4772800000000 1.0
C      1  0.5270280000000  0.5120200000000  0.5927530000000 1.0
C      1  0.5136670000000  0.4405960000000  0.4310500000000 1.0
C      1  0.4288920000000  0.4379260000000  0.5238960000000 1.0
C      1  0.5566620000000  0.4374910000000  0.5519870000000 1.0
C      1  0.5491120000000  0.4465830000000  0.5244480000000 1.0
C      1  0.4950040000000  0.4515990000000  0.4510130000000 1.0
C      1  0.4564130000000  0.4473810000000  0.5306140000000 1.0
C      1  0.4843480000000  0.4752430000000  0.4397880000000 1.0
C      1  0.4520350000000  0.4718900000000  0.5442540000000 1.0
C      1  0.5639240000000  0.4706600000000  0.5215450000000 1.0
C      1  0.5852660000000  0.4780110000000  0.5054130000000 1.0
C      1  0.4613580000000  0.4769650000000  0.4241960000000 1.0
C      1  0.4529380000000  0.4768420000000  0.5716560000000 1.0
C      1  0.5384180000000  0.4967260000000  0.4640940000000 1.0
C      1  0.4509830000000  0.4945000000000  0.4855440000000 1.0
C      1  0.5130700000000  0.4940340000000  0.5496000000000 1.0
C      1  0.5119760000000  0.4583750000000  0.4758240000000 1.0
C      1  0.4680520000000  0.4525780000000  0.5039160000000 1.0
C      1  0.5201070000000  0.4520460000000  0.5280710000000 1.0
C      1  0.5148050000000  0.5736550000000  0.4738490000000 1.0
C      1  0.4705710000000  0.5723060000000  0.5002310000000 1.0
C      1  0.5151180000000  0.5717310000000  0.5251430000000 1.0
C      1  0.4935050000000  0.4488490000000  0.5663410000000 1.0
C      1  0.5598880000000  0.4501170000000  0.4738240000000 1.0
C      1  0.4461750000000  0.4484850000000  0.4620280000000 1.0
C      1  0.5020200000000  0.4889170000000  0.4964480000000 1.0
END
