TITL C-3577082-504-378 8.7750082364706e-07 125000 -455.522120570447 0 0 72 (C1) n - 1
REM
REM in /home/bkarasulu/work/CARBON/AIRSS/Generating-Clusters/EDIP-Nigel-Params/with-SteepDescent/Higher-Symm/SD-CG/HFTN-CG
REM
REM
REM
REM
REM
REM ./C.cell (12c818d87b63d06a65506943cc24bca4)
REM
REM compiler GCC version 9.2.1 20190827 (Red Hat 9.2.1-1)
REM options -cpp -mtune=generic -march=x86-64 -g -O0 -fpre-include=/usr/include/finclude/math-vector-fortran.h
REM seed -953983052 -316283053 2143050232 1854123686 2100549108 -1025317435 2015449099 1259621350 2122580173 376651748 1271944864 -745942774 -800371555 1989989420 -1661436656 450287572 546334099 -1395014578 -2033621227 1124982283 1010607498 1631666561 -1231326543 -220003097 -50894345 -2017250774 -878743366 -469086889 934227554 930992408 -1978281980 1045549746 -1944105411
REM
CELL 1.54180   50.00000   50.00000   50.00000   90.00000   90.00000   90.00000
LATT -1
SFAC C  
C      1  0.5588310000000  0.5378800000000  0.4634210000000 1.0
C      1  0.5511810000000  0.5367390000000  0.5456600000000 1.0
C      1  0.4738280000000  0.5377080000000  0.5629620000000 1.0
C      1  0.4305330000000  0.5375670000000  0.4926960000000 1.0
C      1  0.4831610000000  0.5340860000000  0.4295560000000 1.0
C      1  0.5553870000000  0.5114150000000  0.4779280000000 1.0
C      1  0.5393710000000  0.5093930000000  0.5485600000000 1.0
C      1  0.4672600000000  0.5104230000000  0.5521470000000 1.0
C      1  0.4412650000000  0.5106580000000  0.4834580000000 1.0
C      1  0.4952790000000  0.5079950000000  0.4356920000000 1.0
C      1  0.4290740000000  0.4874690000000  0.5243190000000 1.0
C      1  0.4525420000000  0.4833080000000  0.4367990000000 1.0
C      1  0.5428500000000  0.4866860000000  0.4379660000000 1.0
C      1  0.5735290000000  0.4860610000000  0.5223370000000 1.0
C      1  0.5015580000000  0.4854250000000  0.5773280000000 1.0
C      1  0.4571620000000  0.5370860000000  0.4421580000000 1.0
C      1  0.5371580000000  0.5379910000000  0.4429960000000 1.0
C      1  0.5666610000000  0.5382290000000  0.5205130000000 1.0
C      1  0.5019260000000  0.5378400000000  0.5729310000000 1.0
C      1  0.4355230000000  0.5382130000000  0.5220230000000 1.0
C      1  0.4703140000000  0.4859260000000  0.5709990000000 1.0
C      1  0.4248430000000  0.4868080000000  0.4932080000000 1.0
C      1  0.4816160000000  0.4828820000000  0.4231540000000 1.0
C      1  0.5640620000000  0.4872810000000  0.4610950000000 1.0
C      1  0.5585430000000  0.4853670000000  0.5505350000000 1.0
C      1  0.5186070000000  0.4306800000000  0.4828180000000 1.0
C      1  0.5222700000000  0.4307020000000  0.5124250000000 1.0
C      1  0.4951990000000  0.4308180000000  0.5251150000000 1.0
C      1  0.4747310000000  0.4308120000000  0.5034330000000 1.0
C      1  0.4892120000000  0.4300250000000  0.4773110000000 1.0
C      1  0.5199080000000  0.5578690000000  0.4567950000000 1.0
C      1  0.5544690000000  0.5610030000000  0.5070990000000 1.0
C      1  0.5127380000000  0.5616110000000  0.5594580000000 1.0
C      1  0.4552360000000  0.5596580000000  0.5225190000000 1.0
C      1  0.4649860000000  0.5585880000000  0.4618940000000 1.0
C      1  0.5381670000000  0.4553110000000  0.5211610000000 1.0
C      1  0.4918170000000  0.4554370000000  0.5429020000000 1.0
C      1  0.4568320000000  0.4557810000000  0.5053940000000 1.0
C      1  0.4812630000000  0.4540100000000  0.4603340000000 1.0
C      1  0.5316090000000  0.4556290000000  0.4703120000000 1.0
C      1  0.4822510000000  0.5038720000000  0.4620300000000 1.0
C      1  0.5243310000000  0.5082110000000  0.4758050000000 1.0
C      1  0.5336580000000  0.5054140000000  0.5195110000000 1.0
C      1  0.4934180000000  0.5059630000000  0.5386990000000 1.0
C      1  0.4656200000000  0.5085730000000  0.5028630000000 1.0
C      1  0.5285250000000  0.5555390000000  0.5346760000000 1.0
C      1  0.4806670000000  0.5556670000000  0.5383360000000 1.0
C      1  0.4475410000000  0.5599850000000  0.4852480000000 1.0
C      1  0.4936910000000  0.5452980000000  0.4653920000000 1.0
C      1  0.5496980000000  0.5608700000000  0.4788950000000 1.0
C      1  0.5411710000000  0.4601370000000  0.5511290000000 1.0
C      1  0.4642220000000  0.4608260000000  0.5547560000000 1.0
C      1  0.4371390000000  0.4608990000000  0.4828000000000 1.0
C      1  0.4966160000000  0.4587850000000  0.4343660000000 1.0
C      1  0.5606610000000  0.4615500000000  0.4769830000000 1.0
C      1  0.5130940000000  0.4602520000000  0.5642320000000 1.0
C      1  0.4433980000000  0.4616850000000  0.5320220000000 1.0
C      1  0.4515210000000  0.4591560000000  0.4555190000000 1.0
C      1  0.5268740000000  0.4606960000000  0.4406980000000 1.0
C      1  0.5648700000000  0.4608520000000  0.5074420000000 1.0
C      1  0.4478440000000  0.5113500000000  0.5284890000000 1.0
C      1  0.4532610000000  0.5093560000000  0.4552430000000 1.0
C      1  0.5245320000000  0.5102500000000  0.4445910000000 1.0
C      1  0.5609050000000  0.5108630000000  0.5081390000000 1.0
C      1  0.5118210000000  0.5101170000000  0.5621060000000 1.0
C      1  0.4953930000000  0.4795660000000  0.5247370000000 1.0
C      1  0.4755420000000  0.4797690000000  0.5027100000000 1.0
C      1  0.4889680000000  0.4783710000000  0.4766570000000 1.0
C      1  0.5175750000000  0.4795580000000  0.4830560000000 1.0
C      1  0.5217340000000  0.4793190000000  0.5122960000000 1.0
C      1  0.5032490000000  0.5445130000000  0.5196250000000 1.0
C      1  0.4964940000000  0.5282890000000  0.4936000000000 1.0
END
