TITL C-3578196-9646-740 -1.08908830567367e-06 125000 -1167.68875167443 0 0 184 (C1) n - 1
REM
REM in /home/bkarasulu/work/CARBON/AIRSS/Generating-Clusters/EDIP-Nigel-Params/with-SteepDescent/Higher-Symm/SD-CG/HFTN-CG
REM
REM
REM
REM
REM
REM ./C.cell (12c818d87b63d06a65506943cc24bca4)
REM
REM compiler GCC version 9.2.1 20190827 (Red Hat 9.2.1-1)
REM options -cpp -mtune=generic -march=x86-64 -g -O0 -fpre-include=/usr/include/finclude/math-vector-fortran.h
REM seed 855665105 74491654 1754210570 -1373986367 868366625 -1366846965 2055470132 -791169396 2125803324 -981505234 1625751518 675747561 -1462359156 -729178234 624024722 -2027223816 -371994138 602853305 -415211275 1926353111 -2067034908 789250798 -436519936 2007023626 -862751133 21947899 1006378237 1997259902 -30525828 -36687718 1482921243 -124967733 785274332
REM
CELL 1.54180   50.00000   50.00000   50.00000   90.00000   90.00000   90.00000
LATT -1
SFAC C  
C      1  0.5067130000000  0.5128860000000  0.4841770000000 1.0
C      1  0.5099880000000  0.4754730000000  0.5056730000000 1.0
C      1  0.4837570000000  0.4759580000000  0.4925810000000 1.0
C      1  0.4863260000000  0.5191440000000  0.5033700000000 1.0
C      1  0.5473920000000  0.5115710000000  0.6027840000000 1.0
C      1  0.5483680000000  0.4920860000000  0.3927670000000 1.0
C      1  0.4517470000000  0.4917170000000  0.6069050000000 1.0
C      1  0.4525090000000  0.5085530000000  0.3930760000000 1.0
C      1  0.4096690000000  0.5330800000000  0.5198660000000 1.0
C      1  0.4129470000000  0.4705390000000  0.4858540000000 1.0
C      1  0.5913130000000  0.4655900000000  0.5185730000000 1.0
C      1  0.5874300000000  0.5305740000000  0.4874340000000 1.0
C      1  0.4458640000000  0.4057500000000  0.5058610000000 1.0
C      1  0.4472930000000  0.5930950000000  0.4959910000000 1.0
C      1  0.5537720000000  0.5953300000000  0.5061660000000 1.0
C      1  0.5530730000000  0.4063240000000  0.4955760000000 1.0
C      1  0.5014890000000  0.6057810000000  0.4489230000000 1.0
C      1  0.5031780000000  0.3964070000000  0.5500690000000 1.0
C      1  0.4987760000000  0.3962740000000  0.4492960000000 1.0
C      1  0.4974870000000  0.6009270000000  0.5507130000000 1.0
C      1  0.5145720000000  0.5445730000000  0.6195500000000 1.0
C      1  0.5111860000000  0.4607700000000  0.3790760000000 1.0
C      1  0.4861700000000  0.4594080000000  0.6200250000000 1.0
C      1  0.4896840000000  0.5397880000000  0.3799820000000 1.0
C      1  0.5226090000000  0.4814850000000  0.5746100000000 1.0
C      1  0.5246800000000  0.5172620000000  0.4252040000000 1.0
C      1  0.4779530000000  0.5191840000000  0.5776300000000 1.0
C      1  0.4776710000000  0.4834070000000  0.4239910000000 1.0
C      1  0.5533790000000  0.4480010000000  0.3917360000000 1.0
C      1  0.5490590000000  0.5573560000000  0.5880490000000 1.0
C      1  0.4479320000000  0.5526530000000  0.3932320000000 1.0
C      1  0.4477080000000  0.4485470000000  0.5969190000000 1.0
C      1  0.4445780000000  0.4447790000000  0.4568310000000 1.0
C      1  0.4410500000000  0.5590580000000  0.5498350000000 1.0
C      1  0.5556580000000  0.5568910000000  0.4583480000000 1.0
C      1  0.5601970000000  0.4400600000000  0.5488810000000 1.0
C      1  0.5043600000000  0.5683440000000  0.5113100000000 1.0
C      1  0.5183210000000  0.4454320000000  0.4709450000000 1.0
C      1  0.4946260000000  0.4328380000000  0.5163070000000 1.0
C      1  0.4816210000000  0.5537060000000  0.4706750000000 1.0
C      1  0.4516480000000  0.4899330000000  0.4368820000000 1.0
C      1  0.4518730000000  0.5135130000000  0.5656030000000 1.0
C      1  0.5507510000000  0.5099500000000  0.4371910000000 1.0
C      1  0.5490840000000  0.4864140000000  0.5626650000000 1.0
C      1  0.4594160000000  0.4981080000000  0.4653700000000 1.0
C      1  0.4610090000000  0.5085580000000  0.5379760000000 1.0
C      1  0.5438340000000  0.4981270000000  0.4646870000000 1.0
C      1  0.5389170000000  0.4923860000000  0.5349300000000 1.0
C      1  0.4425570000000  0.4886920000000  0.5784890000000 1.0
C      1  0.4421470000000  0.5140620000000  0.4218560000000 1.0
C      1  0.5587420000000  0.5101980000000  0.5759410000000 1.0
C      1  0.5605350000000  0.4865080000000  0.4208700000000 1.0
C      1  0.5352720000000  0.4207030000000  0.4251960000000 1.0
C      1  0.5303860000000  0.5676920000000  0.5675020000000 1.0
C      1  0.4656690000000  0.5800900000000  0.4253410000000 1.0
C      1  0.4695000000000  0.4259530000000  0.5638020000000 1.0
C      1  0.4646970000000  0.4506390000000  0.5748920000000 1.0
C      1  0.4628430000000  0.5529360000000  0.4176380000000 1.0
C      1  0.5156710000000  0.5442060000000  0.5541460000000 1.0
C      1  0.5396780000000  0.4475220000000  0.4167810000000 1.0
C      1  0.5398610000000  0.5394550000000  0.6088430000000 1.0
C      1  0.5387570000000  0.4677010000000  0.3777700000000 1.0
C      1  0.4589620000000  0.4648520000000  0.6168660000000 1.0
C      1  0.4620360000000  0.5331370000000  0.3784560000000 1.0
C      1  0.5948000000000  0.4815900000000  0.5424820000000 1.0
C      1  0.5927100000000  0.5156450000000  0.4624950000000 1.0
C      1  0.4062290000000  0.5177120000000  0.5444180000000 1.0
C      1  0.4075760000000  0.4850340000000  0.4608530000000 1.0
C      1  0.4069100000000  0.4887130000000  0.5426740000000 1.0
C      1  0.4079600000000  0.5143000000000  0.4610980000000 1.0
C      1  0.5927320000000  0.5105130000000  0.5403120000000 1.0
C      1  0.5933020000000  0.4860800000000  0.4620030000000 1.0
C      1  0.4219780000000  0.5304850000000  0.4388130000000 1.0
C      1  0.4194600000000  0.4734580000000  0.5656970000000 1.0
C      1  0.5801160000000  0.4697160000000  0.4389240000000 1.0
C      1  0.5825580000000  0.5238750000000  0.5653860000000 1.0
C      1  0.5111460000000  0.5564960000000  0.3884530000000 1.0
C      1  0.5088010000000  0.4450600000000  0.6118300000000 1.0
C      1  0.4897290000000  0.4439350000000  0.3872500000000 1.0
C      1  0.4906460000000  0.5577480000000  0.6142350000000 1.0
C      1  0.4331270000000  0.5684890000000  0.5005990000000 1.0
C      1  0.4358300000000  0.4333730000000  0.5048740000000 1.0
C      1  0.5670350000000  0.4308370000000  0.5000670000000 1.0
C      1  0.5636160000000  0.5674060000000  0.5059830000000 1.0
C      1  0.5946900000000  0.4685920000000  0.5677900000000 1.0
C      1  0.5937930000000  0.5311870000000  0.4387290000000 1.0
C      1  0.4062710000000  0.5311170000000  0.5694110000000 1.0
C      1  0.4071510000000  0.4702160000000  0.4367190000000 1.0
C      1  0.4685210000000  0.5991850000000  0.5444230000000 1.0
C      1  0.4737100000000  0.4044190000000  0.4626540000000 1.0
C      1  0.5320580000000  0.3993840000000  0.5438260000000 1.0
C      1  0.5276990000000  0.5993590000000  0.4618300000000 1.0
C      1  0.4741360000000  0.5654250000000  0.5161710000000 1.0
C      1  0.4910670000000  0.4393870000000  0.4826060000000 1.0
C      1  0.5260000000000  0.4336040000000  0.5165520000000 1.0
C      1  0.5072120000000  0.5650540000000  0.4806900000000 1.0
C      1  0.5511690000000  0.5062260000000  0.5110880000000 1.0
C      1  0.5542620000000  0.4837470000000  0.4895390000000 1.0
C      1  0.4467440000000  0.4928380000000  0.5160850000000 1.0
C      1  0.4453620000000  0.5126000000000  0.4899410000000 1.0
C      1  0.4636280000000  0.4591590000000  0.3871750000000 1.0
C      1  0.4656710000000  0.5407690000000  0.6161420000000 1.0
C      1  0.5372480000000  0.5414240000000  0.3883440000000 1.0
C      1  0.5338500000000  0.4617450000000  0.6129850000000 1.0
C      1  0.5281840000000  0.5139190000000  0.3958390000000 1.0
C      1  0.5262180000000  0.4896540000000  0.6035390000000 1.0
C      1  0.4728570000000  0.4866990000000  0.3948320000000 1.0
C      1  0.4733730000000  0.5131290000000  0.6067850000000 1.0
C      1  0.4856950000000  0.4025590000000  0.5242800000000 1.0
C      1  0.4790790000000  0.6149860000000  0.4636780000000 1.0
C      1  0.5134950000000  0.5977090000000  0.5236430000000 1.0
C      1  0.5208380000000  0.3859580000000  0.4635860000000 1.0
C      1  0.5742850000000  0.5563320000000  0.4817450000000 1.0
C      1  0.5783520000000  0.4400410000000  0.5248470000000 1.0
C      1  0.4264830000000  0.4452270000000  0.4804640000000 1.0
C      1  0.4229270000000  0.5585070000000  0.5256280000000 1.0
C      1  0.5315880000000  0.6053400000000  0.4898380000000 1.0
C      1  0.5365400000000  0.3961860000000  0.5157740000000 1.0
C      1  0.4686490000000  0.3968050000000  0.4900080000000 1.0
C      1  0.4636730000000  0.6029190000000  0.5165020000000 1.0
C      1  0.4854980000000  0.4574650000000  0.5380480000000 1.0
C      1  0.4842110000000  0.5381290000000  0.4450480000000 1.0
C      1  0.5166570000000  0.5429980000000  0.5237390000000 1.0
C      1  0.5173370000000  0.4599130000000  0.4447460000000 1.0
C      1  0.4684310000000  0.5516720000000  0.5420920000000 1.0
C      1  0.4724180000000  0.4560660000000  0.4624520000000 1.0
C      1  0.5337680000000  0.4487140000000  0.5405000000000 1.0
C      1  0.5275160000000  0.5468390000000  0.4662050000000 1.0
C      1  0.4210500000000  0.5541640000000  0.4794300000000 1.0
C      1  0.4232050000000  0.4486240000000  0.5261310000000 1.0
C      1  0.5800360000000  0.4448140000000  0.4790660000000 1.0
C      1  0.5715490000000  0.5500490000000  0.5282510000000 1.0
C      1  0.5556460000000  0.4474200000000  0.5960840000000 1.0
C      1  0.5572150000000  0.5538000000000  0.4091980000000 1.0
C      1  0.4439610000000  0.5537850000000  0.5978900000000 1.0
C      1  0.4437770000000  0.4469010000000  0.4081120000000 1.0
C      1  0.4343170000000  0.5387910000000  0.5717380000000 1.0
C      1  0.4352310000000  0.4632740000000  0.4336630000000 1.0
C      1  0.5664630000000  0.4610900000000  0.5699480000000 1.0
C      1  0.5656070000000  0.5378190000000  0.4351990000000 1.0
C      1  0.5090930000000  0.4876500000000  0.5329090000000 1.0
C      1  0.5175730000000  0.4874960000000  0.4563300000000 1.0
C      1  0.4917880000000  0.5147120000000  0.5322620000000 1.0
C      1  0.4865630000000  0.5098740000000  0.4576910000000 1.0
C      1  0.4860880000000  0.5689700000000  0.5864790000000 1.0
C      1  0.4866380000000  0.4332990000000  0.4162600000000 1.0
C      1  0.5132650000000  0.4322870000000  0.5838910000000 1.0
C      1  0.5142930000000  0.5672570000000  0.4174170000000 1.0
C      1  0.5418620000000  0.4218120000000  0.5871880000000 1.0
C      1  0.5424440000000  0.5781200000000  0.4190300000000 1.0
C      1  0.4573420000000  0.5793580000000  0.5882740000000 1.0
C      1  0.4585270000000  0.4227640000000  0.4185430000000 1.0
C      1  0.5837280000000  0.4726580000000  0.4880920000000 1.0
C      1  0.5778380000000  0.5230060000000  0.5165010000000 1.0
C      1  0.4165490000000  0.5262120000000  0.4880820000000 1.0
C      1  0.4187370000000  0.4768780000000  0.5171940000000 1.0
C      1  0.5077600000000  0.5871580000000  0.5754670000000 1.0
C      1  0.5066630000000  0.4128310000000  0.4264720000000 1.0
C      1  0.4933800000000  0.4121860000000  0.5728240000000 1.0
C      1  0.4941720000000  0.5881640000000  0.4267710000000 1.0
C      1  0.5499520000000  0.5812410000000  0.5508560000000 1.0
C      1  0.5530060000000  0.4192000000000  0.4481070000000 1.0
C      1  0.4459330000000  0.4136570000000  0.5541320000000 1.0
C      1  0.4475620000000  0.5811090000000  0.4482180000000 1.0
C      1  0.4518670000000  0.4173680000000  0.4469560000000 1.0
C      1  0.4471830000000  0.5861760000000  0.5614250000000 1.0
C      1  0.5493680000000  0.5844290000000  0.4471060000000 1.0
C      1  0.5528520000000  0.4133490000000  0.5610920000000 1.0
C      1  0.4875520000000  0.5456470000000  0.5655350000000 1.0
C      1  0.4885260000000  0.4577940000000  0.4355770000000 1.0
C      1  0.5129940000000  0.4550940000000  0.5621560000000 1.0
C      1  0.5131150000000  0.5426010000000  0.4372710000000 1.0
C      1  0.4678370000000  0.5417240000000  0.4947660000000 1.0
C      1  0.4668710000000  0.4709790000000  0.5151590000000 1.0
C      1  0.5316940000000  0.4574730000000  0.4950520000000 1.0
C      1  0.5305850000000  0.5268690000000  0.4996040000000 1.0
C      1  0.5445870000000  0.4003440000000  0.4685970000000 1.0
C      1  0.5425230000000  0.6007070000000  0.5323570000000 1.0
C      1  0.4558410000000  0.5997210000000  0.4690020000000 1.0
C      1  0.4553530000000  0.3977710000000  0.5323490000000 1.0
C      1  0.4263150000000  0.4465240000000  0.5545700000000 1.0
C      1  0.4314560000000  0.5560370000000  0.4530730000000 1.0
C      1  0.5740830000000  0.5517160000000  0.5586690000000 1.0
C      1  0.5700590000000  0.4436440000000  0.4525350000000 1.0
END
