TITL C-3577076-40-591 -1.63289095810285e-07 125000 -143.605481030074 0 0 24 (D4h) n - 1
REM
REM in /home/bkarasulu/work/CARBON/AIRSS/Generating-Clusters/EDIP-Nigel-Params/with-SteepDescent/Higher-Symm/SD-CG/HFTN-CG
REM
REM
REM
REM
REM
REM ./C.cell (12c818d87b63d06a65506943cc24bca4)
REM
REM compiler GCC version 9.2.1 20190827 (Red Hat 9.2.1-1)
REM options -cpp -mtune=generic -march=x86-64 -g -O0 -fpre-include=/usr/include/finclude/math-vector-fortran.h
REM seed -1607095719 417284559 -1339734824 -807076491 1937469500 1399159942 1999959852 -2063316399 -1499859259 684890481 779010339 767161628 -1087110013 -1280249985 721139637 1784278739 676881468 -2010149849 858058124 751663319 1856867900 -1838260009 -754668207 -587747431 1981240396 -1964079685 -760330590 -1537699819 -233169947 -1222976895 834471560 1915099580 634528942
REM
CELL 1.54180   50.00000   50.00000   50.00000   90.00000   90.00000   90.00000
LATT -1
SFAC C  
C      1  0.4669090000000  0.4856580000000  0.4669190000000 1.0
C      1  0.4669190000000  0.4856580000000  0.5330920000000 1.0
C      1  0.5330920000000  0.4856590000000  0.5330810000000 1.0
C      1  0.5330810000000  0.4856580000000  0.4669090000000 1.0
C      1  0.4669190000000  0.5143420000000  0.5330910000000 1.0
C      1  0.4669080000000  0.5143410000000  0.4669190000000 1.0
C      1  0.5330810000000  0.5143420000000  0.4669080000000 1.0
C      1  0.5330910000000  0.5143420000000  0.5330810000000 1.0
C      1  0.4866150000000  0.5275020000000  0.5473800000000 1.0
C      1  0.5473800000000  0.5275020000000  0.5133840000000 1.0
C      1  0.5133840000000  0.5275010000000  0.4526190000000 1.0
C      1  0.4526190000000  0.5275010000000  0.4866150000000 1.0
C      1  0.4866010000000  0.4724980000000  0.4526240000000 1.0
C      1  0.5473760000000  0.4724980000000  0.4866010000000 1.0
C      1  0.5134000000000  0.4724990000000  0.5473770000000 1.0
C      1  0.4526240000000  0.4724980000000  0.5134000000000 1.0
C      1  0.5473810000000  0.4724990000000  0.5133850000000 1.0
C      1  0.5133850000000  0.4724980000000  0.4526200000000 1.0
C      1  0.4526200000000  0.4724980000000  0.4866160000000 1.0
C      1  0.4866160000000  0.4724990000000  0.5473810000000 1.0
C      1  0.5473760000000  0.5275020000000  0.4866000000000 1.0
C      1  0.5133990000000  0.5275020000000  0.5473760000000 1.0
C      1  0.4526240000000  0.5275020000000  0.5133990000000 1.0
C      1  0.4866000000000  0.5275010000000  0.4526230000000 1.0
END
