TITL C-3577089-586-663 -9.13590296812912e-06 125000 -1123.91140219635 0 0 180 (C1) n - 1
REM
REM in /home/bkarasulu/work/CARBON/AIRSS/Generating-Clusters/EDIP-Nigel-Params/with-SteepDescent/Higher-Symm/SD-CG/HFTN-CG
REM
REM
REM
REM
REM
REM ./C.cell (12c818d87b63d06a65506943cc24bca4)
REM
REM compiler GCC version 9.2.1 20190827 (Red Hat 9.2.1-1)
REM options -cpp -mtune=generic -march=x86-64 -g -O0 -fpre-include=/usr/include/finclude/math-vector-fortran.h
REM seed -1340364671 -929492456 -2019156436 287510097 1069968788 932537590 -621830358 982251727 -2045958156 -653944669 134438082 -2085830149 -1299244417 2135888801 -1311580075 1533411777 -826638453 -431570212 1764793573 -291270733 -1972241245 -1586023967 894547661 623576164 -657965502 1971301395 383512117 -653993864 1444994345 1137367234 -1738862960 -59108837 1618336042
REM
CELL 1.54180   50.00000   50.00000   50.00000   90.00000   90.00000   90.00000
LATT -1
SFAC C  
C      1  0.5532420000000  0.4741690000000  0.4980890000000 1.0
C      1  0.4474750000000  0.5255020000000  0.5015420000000 1.0
C      1  0.5127530000000  0.5798590000000  0.4255200000000 1.0
C      1  0.4929680000000  0.4265430000000  0.4307770000000 1.0
C      1  0.5312030000000  0.4375880000000  0.5167690000000 1.0
C      1  0.4650320000000  0.5668110000000  0.5208420000000 1.0
C      1  0.4526730000000  0.4867030000000  0.4718670000000 1.0
C      1  0.5524270000000  0.5226090000000  0.4800960000000 1.0
C      1  0.5410510000000  0.5781330000000  0.4646590000000 1.0
C      1  0.4607700000000  0.4252550000000  0.4658210000000 1.0
C      1  0.4410890000000  0.5484690000000  0.4800660000000 1.0
C      1  0.5637460000000  0.4481330000000  0.4784610000000 1.0
C      1  0.5996890000000  0.4806600000000  0.4651020000000 1.0
C      1  0.4122460000000  0.5126470000000  0.4731260000000 1.0
C      1  0.4961900000000  0.5884990000000  0.4483130000000 1.0
C      1  0.5092080000000  0.4091600000000  0.4462110000000 1.0
C      1  0.4486430000000  0.4556460000000  0.5757240000000 1.0
C      1  0.5494320000000  0.5475530000000  0.5731970000000 1.0
C      1  0.5183820000000  0.4881480000000  0.4900360000000 1.0
C      1  0.4753550000000  0.5174700000000  0.4970820000000 1.0
C      1  0.5411590000000  0.4850450000000  0.5459460000000 1.0
C      1  0.4529770000000  0.5172940000000  0.5528910000000 1.0
C      1  0.5656820000000  0.5370710000000  0.4575200000000 1.0
C      1  0.4361780000000  0.4647980000000  0.4573420000000 1.0
C      1  0.3940470000000  0.5403230000000  0.5142730000000 1.0
C      1  0.6069770000000  0.4574140000000  0.5080850000000 1.0
C      1  0.5129010000000  0.4540410000000  0.5324380000000 1.0
C      1  0.4863180000000  0.5497300000000  0.5316960000000 1.0
C      1  0.4660490000000  0.4325740000000  0.5743320000000 1.0
C      1  0.5322910000000  0.5697020000000  0.5705980000000 1.0
C      1  0.4869720000000  0.5795140000000  0.5641800000000 1.0
C      1  0.5140760000000  0.4071800000000  0.5667610000000 1.0
C      1  0.5032900000000  0.4344030000000  0.4049940000000 1.0
C      1  0.5041970000000  0.5602570000000  0.4076900000000 1.0
C      1  0.5380060000000  0.5281850000000  0.5913700000000 1.0
C      1  0.4553660000000  0.4756330000000  0.5961580000000 1.0
C      1  0.5905920000000  0.4855100000000  0.5457880000000 1.0
C      1  0.4001630000000  0.5112810000000  0.5576090000000 1.0
C      1  0.5060680000000  0.5312100000000  0.5870710000000 1.0
C      1  0.4838550000000  0.4868740000000  0.5979970000000 1.0
C      1  0.5600410000000  0.4574810000000  0.5929190000000 1.0
C      1  0.4396900000000  0.5470900000000  0.5983200000000 1.0
C      1  0.3908530000000  0.5329910000000  0.4852050000000 1.0
C      1  0.6154200000000  0.4587890000000  0.4796010000000 1.0
C      1  0.4304580000000  0.4802360000000  0.5175270000000 1.0
C      1  0.5698780000000  0.5208510000000  0.5201830000000 1.0
C      1  0.5739490000000  0.5719040000000  0.5191530000000 1.0
C      1  0.4262010000000  0.4315580000000  0.5200540000000 1.0
C      1  0.5344840000000  0.6054040000000  0.4758910000000 1.0
C      1  0.4685480000000  0.3986650000000  0.4763440000000 1.0
C      1  0.5984400000000  0.5261600000000  0.5304490000000 1.0
C      1  0.4018740000000  0.4744320000000  0.5221930000000 1.0
C      1  0.4366060000000  0.5604620000000  0.5321250000000 1.0
C      1  0.5606610000000  0.4389400000000  0.5285140000000 1.0
C      1  0.4174370000000  0.4638180000000  0.4121800000000 1.0
C      1  0.5796020000000  0.5325090000000  0.4100090000000 1.0
C      1  0.5962440000000  0.5124410000000  0.4590490000000 1.0
C      1  0.4041180000000  0.4869540000000  0.4572970000000 1.0
C      1  0.4119820000000  0.4299400000000  0.4913180000000 1.0
C      1  0.5881290000000  0.5722490000000  0.4908790000000 1.0
C      1  0.4148170000000  0.5449380000000  0.4221680000000 1.0
C      1  0.5843110000000  0.4463280000000  0.4231510000000 1.0
C      1  0.5130950000000  0.3995960000000  0.4948990000000 1.0
C      1  0.4883670000000  0.6046940000000  0.4947450000000 1.0
C      1  0.5798600000000  0.5144370000000  0.5688810000000 1.0
C      1  0.4166740000000  0.4888630000000  0.5714830000000 1.0
C      1  0.4682060000000  0.4046800000000  0.5065810000000 1.0
C      1  0.5335630000000  0.6030680000000  0.5062370000000 1.0
C      1  0.5504290000000  0.5153080000000  0.5437210000000 1.0
C      1  0.4451980000000  0.4870800000000  0.5454320000000 1.0
C      1  0.4815980000000  0.5227220000000  0.5438430000000 1.0
C      1  0.5098300000000  0.4601220000000  0.5629260000000 1.0
C      1  0.4316190000000  0.5307130000000  0.4572290000000 1.0
C      1  0.5765460000000  0.4651650000000  0.4561720000000 1.0
C      1  0.4360900000000  0.5299770000000  0.5302900000000 1.0
C      1  0.5602310000000  0.4694670000000  0.5280580000000 1.0
C      1  0.4453880000000  0.4615610000000  0.4081480000000 1.0
C      1  0.5514360000000  0.5336770000000  0.4090460000000 1.0
C      1  0.5162310000000  0.4819380000000  0.4340800000000 1.0
C      1  0.4851180000000  0.5206450000000  0.4473550000000 1.0
C      1  0.4116500000000  0.5653750000000  0.5150700000000 1.0
C      1  0.5877970000000  0.4336210000000  0.5128810000000 1.0
C      1  0.5079260000000  0.5424620000000  0.5129110000000 1.0
C      1  0.4846290000000  0.4537580000000  0.5272100000000 1.0
C      1  0.5361630000000  0.4138100000000  0.4365110000000 1.0
C      1  0.4686600000000  0.5798270000000  0.4485610000000 1.0
C      1  0.4940110000000  0.3943650000000  0.5181470000000 1.0
C      1  0.5067100000000  0.6109140000000  0.5175540000000 1.0
C      1  0.4892160000000  0.4452730000000  0.4833760000000 1.0
C      1  0.5155230000000  0.5652800000000  0.4805310000000 1.0
C      1  0.5253350000000  0.5127840000000  0.4743670000000 1.0
C      1  0.4902100000000  0.4754530000000  0.4769160000000 1.0
C      1  0.5383470000000  0.4596550000000  0.4109480000000 1.0
C      1  0.4630370000000  0.5435890000000  0.4167670000000 1.0
C      1  0.6105940000000  0.5259790000000  0.4833160000000 1.0
C      1  0.3868250000000  0.4755160000000  0.4806110000000 1.0
C      1  0.4099460000000  0.4433210000000  0.5428370000000 1.0
C      1  0.5893720000000  0.5606520000000  0.5425420000000 1.0
C      1  0.5421900000000  0.5406390000000  0.4360050000000 1.0
C      1  0.4589660000000  0.4600600000000  0.4356430000000 1.0
C      1  0.5329580000000  0.4290530000000  0.4110380000000 1.0
C      1  0.4599410000000  0.5701230000000  0.4239860000000 1.0
C      1  0.6021840000000  0.4339110000000  0.4405040000000 1.0
C      1  0.4005130000000  0.5551830000000  0.4429550000000 1.0
C      1  0.4680210000000  0.5612120000000  0.4727980000000 1.0
C      1  0.5368850000000  0.4378340000000  0.4656970000000 1.0
C      1  0.4349940000000  0.5705140000000  0.5607620000000 1.0
C      1  0.5614450000000  0.4283770000000  0.5569330000000 1.0
C      1  0.5025020000000  0.5137230000000  0.5627550000000 1.0
C      1  0.4949890000000  0.4859090000000  0.5702800000000 1.0
C      1  0.4342050000000  0.5003940000000  0.4928590000000 1.0
C      1  0.5692270000000  0.4991260000000  0.4900770000000 1.0
C      1  0.5051200000000  0.6070090000000  0.4697140000000 1.0
C      1  0.4980520000000  0.3943270000000  0.4698940000000 1.0
C      1  0.4066270000000  0.5166740000000  0.5286060000000 1.0
C      1  0.6000300000000  0.4842240000000  0.5175580000000 1.0
C      1  0.4404500000000  0.5033110000000  0.4220690000000 1.0
C      1  0.5612070000000  0.4943300000000  0.4261390000000 1.0
C      1  0.3911820000000  0.4486150000000  0.4873890000000 1.0
C      1  0.6088040000000  0.5536890000000  0.4874080000000 1.0
C      1  0.5961280000000  0.4624870000000  0.5610600000000 1.0
C      1  0.4013360000000  0.5352860000000  0.5709330000000 1.0
C      1  0.5853030000000  0.5119780000000  0.4280730000000 1.0
C      1  0.4147160000000  0.4875570000000  0.4270860000000 1.0
C      1  0.4207350000000  0.4577310000000  0.5663120000000 1.0
C      1  0.5766580000000  0.5443090000000  0.5642440000000 1.0
C      1  0.5025880000000  0.4629210000000  0.3966840000000 1.0
C      1  0.4896250000000  0.5368060000000  0.4066180000000 1.0
C      1  0.4535650000000  0.5097800000000  0.4497600000000 1.0
C      1  0.5546750000000  0.4863430000000  0.4551480000000 1.0
C      1  0.4808950000000  0.5752790000000  0.4961270000000 1.0
C      1  0.5179240000000  0.4302390000000  0.4899220000000 1.0
C      1  0.4528180000000  0.5216360000000  0.5879750000000 1.0
C      1  0.5427580000000  0.4801020000000  0.5799490000000 1.0
C      1  0.4811600000000  0.5173710000000  0.6013590000000 1.0
C      1  0.5141430000000  0.4630010000000  0.6028680000000 1.0
C      1  0.4937030000000  0.4057130000000  0.5456460000000 1.0
C      1  0.5044400000000  0.5963810000000  0.5440700000000 1.0
C      1  0.4719900000000  0.4793830000000  0.5329560000000 1.0
C      1  0.5258060000000  0.5214050000000  0.5259580000000 1.0
C      1  0.4855610000000  0.5029140000000  0.5218010000000 1.0
C      1  0.5142130000000  0.4955680000000  0.5194140000000 1.0
C      1  0.4667340000000  0.4318080000000  0.4383820000000 1.0
C      1  0.5374870000000  0.5709740000000  0.4363000000000 1.0
C      1  0.5054860000000  0.5629340000000  0.5805770000000 1.0
C      1  0.4951600000000  0.4370020000000  0.5818080000000 1.0
C      1  0.4578120000000  0.5686980000000  0.6018070000000 1.0
C      1  0.5362280000000  0.4405580000000  0.5976470000000 1.0
C      1  0.5682420000000  0.5652320000000  0.4696850000000 1.0
C      1  0.4333160000000  0.4369800000000  0.4706420000000 1.0
C      1  0.5284910000000  0.5642640000000  0.5090620000000 1.0
C      1  0.4710990000000  0.4393490000000  0.5066510000000 1.0
C      1  0.4874640000000  0.4871550000000  0.4015940000000 1.0
C      1  0.5040490000000  0.5113820000000  0.4033850000000 1.0
C      1  0.3950360000000  0.5586780000000  0.4704540000000 1.0
C      1  0.6075150000000  0.4319680000000  0.4681800000000 1.0
C      1  0.5317610000000  0.5861990000000  0.5471960000000 1.0
C      1  0.4657550000000  0.4129980000000  0.5521770000000 1.0
C      1  0.3875780000000  0.4917640000000  0.5050830000000 1.0
C      1  0.6117780000000  0.5106820000000  0.5091230000000 1.0
C      1  0.4358290000000  0.4975020000000  0.5937230000000 1.0
C      1  0.5564650000000  0.5057930000000  0.5868460000000 1.0
C      1  0.4373320000000  0.5307770000000  0.4128110000000 1.0
C      1  0.5670040000000  0.4674440000000  0.4128700000000 1.0
C      1  0.4882230000000  0.5361530000000  0.4755170000000 1.0
C      1  0.5315470000000  0.4666080000000  0.4540320000000 1.0
C      1  0.5834450000000  0.4255010000000  0.4850580000000 1.0
C      1  0.4184980000000  0.5680760000000  0.4864980000000 1.0
C      1  0.4580480000000  0.4876320000000  0.4013830000000 1.0
C      1  0.5344800000000  0.5095050000000  0.4056180000000 1.0
C      1  0.4462540000000  0.4093730000000  0.5285300000000 1.0
C      1  0.5541130000000  0.5940310000000  0.5280180000000 1.0
C      1  0.4870550000000  0.4814860000000  0.4457330000000 1.0
C      1  0.5171890000000  0.5141210000000  0.4455300000000 1.0
C      1  0.4593890000000  0.5795670000000  0.5755690000000 1.0
C      1  0.5362880000000  0.4257830000000  0.5719100000000 1.0
C      1  0.5788880000000  0.4446560000000  0.5739990000000 1.0
C      1  0.4182790000000  0.5554540000000  0.5799230000000 1.0
C      1  0.4437010000000  0.4535910000000  0.5102440000000 1.0
C      1  0.5558400000000  0.5488140000000  0.5086470000000 1.0
END
