TITL C-3577091-527-536 -2.16337640147553e-07 125000 -162.368673618641 0 0 28 (C1) n - 1
REM
REM in /home/bkarasulu/work/CARBON/AIRSS/Generating-Clusters/EDIP-Nigel-Params/with-SteepDescent/Higher-Symm/SD-CG/HFTN-CG
REM
REM
REM
REM
REM
REM ./C.cell (12c818d87b63d06a65506943cc24bca4)
REM
REM compiler GCC version 9.2.1 20190827 (Red Hat 9.2.1-1)
REM options -cpp -mtune=generic -march=x86-64 -g -O0 -fpre-include=/usr/include/finclude/math-vector-fortran.h
REM seed -2112941766 -578003685 -111505653 348230867 258248763 184650657 -850293511 -1399779851 -851568899 1899481597 -1979891720 -168511213 2017628052 181691903 1154355044 -1711624178 1617874619 10729836 -1165142105 1056105359 -197491239 1729860227 1198329418 1789929202 -1752422176 1236239206 1190184002 1302446521 -1646701673 964646313 1974704086 -730079260 -130178133
REM
CELL 1.54180   50.00000   50.00000   50.00000   90.00000   90.00000   90.00000
LATT -1
SFAC C  
C      1  0.5179740000000  0.5531580000000  0.5185810000000 1.0
C      1  0.4731960000000  0.5545450000000  0.5060210000000 1.0
C      1  0.5063950000000  0.5555480000000  0.4737810000000 1.0
C      1  0.4808600000000  0.4862990000000  0.4653980000000 1.0
C      1  0.5387370000000  0.4841390000000  0.4972300000000 1.0
C      1  0.4808290000000  0.4866330000000  0.5334330000000 1.0
C      1  0.5234260000000  0.4842980000000  0.5442360000000 1.0
C      1  0.4495940000000  0.4853690000000  0.4963180000000 1.0
C      1  0.5284940000000  0.4888690000000  0.4603180000000 1.0
C      1  0.5219420000000  0.5096870000000  0.4981960000000 1.0
C      1  0.4887900000000  0.5107130000000  0.5184200000000 1.0
C      1  0.4880500000000  0.5111430000000  0.4795890000000 1.0
C      1  0.5291570000000  0.5276620000000  0.5207120000000 1.0
C      1  0.4658270000000  0.5285770000000  0.5131380000000 1.0
C      1  0.5043840000000  0.5297660000000  0.4632770000000 1.0
C      1  0.5273370000000  0.5162310000000  0.4551430000000 1.0
C      1  0.5247070000000  0.5121230000000  0.5434380000000 1.0
C      1  0.4484040000000  0.5133100000000  0.4974740000000 1.0
C      1  0.4984680000000  0.4575830000000  0.5312210000000 1.0
C      1  0.4737650000000  0.4584080000000  0.4823900000000 1.0
C      1  0.5255510000000  0.4487530000000  0.4876700000000 1.0
C      1  0.5026770000000  0.4481920000000  0.4702960000000 1.0
C      1  0.5245850000000  0.4469980000000  0.5163790000000 1.0
C      1  0.4740310000000  0.4482040000000  0.5128340000000 1.0
C      1  0.5047820000000  0.4731740000000  0.4542200000000 1.0
C      1  0.5394830000000  0.4706560000000  0.5245900000000 1.0
C      1  0.4582260000000  0.4721220000000  0.5204980000000 1.0
C      1  0.4993220000000  0.5624270000000  0.4999150000000 1.0
END
