TITL C-3578206-1180-411 -1.23429034315689e-06 125000 -138.798062295146 0 0 26 (C3) n - 1
REM
REM in /home/bkarasulu/work/CARBON/AIRSS/Generating-Clusters/EDIP-Nigel-Params/with-SteepDescent/Higher-Symm/SD-CG/HFTN-CG
REM
REM
REM
REM
REM
REM ./C.cell (12c818d87b63d06a65506943cc24bca4)
REM
REM compiler GCC version 9.2.1 20190827 (Red Hat 9.2.1-1)
REM options -cpp -mtune=generic -march=x86-64 -g -O0 -fpre-include=/usr/include/finclude/math-vector-fortran.h
REM seed 1951351947 -678404830 467766084 -275001455 -1415637472 155271075 -1295664485 -853806758 -1521309105 -1550263759 -1313661775 327266114 -470519370 797203298 -976841450 122062293 -1365057282 -1646533816 621734982 827975006 1311117468 -1442754933 -1898015196 -1502554079 -797185680 -1189939840 -114634294 2046286790 -924575348 2117122630 -770153087 935656615 1250694471
REM
CELL 1.54180   50.00000   50.00000   50.00000   90.00000   90.00000   90.00000
LATT -1
SFAC C  
C      1  0.4670740000000  0.4612460000000  0.5351620000000 1.0
C      1  0.4821380000000  0.4612520000000  0.4576030000000 1.0
C      1  0.5417740000000  0.4612280000000  0.5094290000000 1.0
C      1  0.5447130000000  0.5370220000000  0.4922670000000 1.0
C      1  0.4805090000000  0.5370330000000  0.5462830000000 1.0
C      1  0.4658320000000  0.5370490000000  0.4636730000000 1.0
C      1  0.4594930000000  0.4520120000000  0.5071400000000 1.0
C      1  0.5101920000000  0.4520030000000  0.4650490000000 1.0
C      1  0.5212940000000  0.4519910000000  0.5300010000000 1.0
C      1  0.5360400000000  0.4742770000000  0.4827120000000 1.0
C      1  0.4930860000000  0.4742820000000  0.5435530000000 1.0
C      1  0.4618720000000  0.4743000000000  0.4759330000000 1.0
C      1  0.5361100000000  0.4756390000000  0.5339320000000 1.0
C      1  0.4486940000000  0.4756670000000  0.5180040000000 1.0
C      1  0.5061960000000  0.4756590000000  0.4502630000000 1.0
C      1  0.4699920000000  0.5021400000000  0.4901700000000 1.0
C      1  0.5196660000000  0.5021260000000  0.4826240000000 1.0
C      1  0.5013640000000  0.5021250000000  0.5294160000000 1.0
C      1  0.5458530000000  0.5094190000000  0.4954290000000 1.0
C      1  0.4771850000000  0.5094320000000  0.5456910000000 1.0
C      1  0.4679910000000  0.5094460000000  0.4610920000000 1.0
C      1  0.5187510000000  0.5411150000000  0.4828640000000 1.0
C      1  0.5016360000000  0.5411140000000  0.5285010000000 1.0
C      1  0.4706700000000  0.5411280000000  0.4908600000000 1.0
C      1  0.4970060000000  0.4968230000000  0.5007360000000 1.0
C      1  0.4970210000000  0.5470710000000  0.5007420000000 1.0
END
