TITL C-3577083-591-772 4.69283617620237e-06 125000 -933.058012037581 0 0 150 (C1) n - 1
REM
REM in /home/bkarasulu/work/CARBON/AIRSS/Generating-Clusters/EDIP-Nigel-Params/with-SteepDescent/Higher-Symm/SD-CG/HFTN-CG
REM
REM
REM
REM
REM
REM ./C.cell (12c818d87b63d06a65506943cc24bca4)
REM
REM compiler GCC version 9.2.1 20190827 (Red Hat 9.2.1-1)
REM options -cpp -mtune=generic -march=x86-64 -g -O0 -fpre-include=/usr/include/finclude/math-vector-fortran.h
REM seed -500936809 -1621580144 1375853556 1777306329 -1407765908 1079441071 -1078739166 1055043083 -1968815185 2250506 1312212438 -618717366 1665666028 799316276 -326767478 594885853 -297178039 -82339885 -894223878 -1317350435 721921465 -770825320 -2129495829 -651340716 661128916 -1459852977 -1543571508 -636056194 1386977292 236130962 -1211141469 353701585 -844180007
REM
CELL 1.54180   50.00000   50.00000   50.00000   90.00000   90.00000   90.00000
LATT -1
SFAC C  
C      1  0.4865590000000  0.5547520000000  0.4275320000000 1.0
C      1  0.5172760000000  0.6006200000000  0.4682030000000 1.0
C      1  0.4872740000000  0.5989340000000  0.5302290000000 1.0
C      1  0.5148780000000  0.5627260000000  0.5858560000000 1.0
C      1  0.4842430000000  0.4982910000000  0.6030940000000 1.0
C      1  0.5143120000000  0.4388330000000  0.5881330000000 1.0
C      1  0.4844680000000  0.4095230000000  0.5346140000000 1.0
C      1  0.5137250000000  0.3999250000000  0.4682780000000 1.0
C      1  0.4833340000000  0.4377150000000  0.4153810000000 1.0
C      1  0.5102630000000  0.4980440000000  0.3968620000000 1.0
C      1  0.4658330000000  0.5391740000000  0.5470980000000 1.0
C      1  0.5494830000000  0.5113630000000  0.5790880000000 1.0
C      1  0.4628820000000  0.4607040000000  0.5542410000000 1.0
C      1  0.5343170000000  0.4314110000000  0.5201570000000 1.0
C      1  0.4596940000000  0.4371440000000  0.4797970000000 1.0
C      1  0.5423570000000  0.4714120000000  0.4483890000000 1.0
C      1  0.4461690000000  0.4989000000000  0.4387800000000 1.0
C      1  0.5396430000000  0.5402580000000  0.4456630000000 1.0
C      1  0.4509590000000  0.5671710000000  0.4778350000000 1.0
C      1  0.5443590000000  0.5680830000000  0.5202630000000 1.0
C      1  0.4248770000000  0.4333250000000  0.5174040000000 1.0
C      1  0.5720200000000  0.4394950000000  0.4778030000000 1.0
C      1  0.4172930000000  0.4576680000000  0.4418810000000 1.0
C      1  0.5706000000000  0.5023870000000  0.4340070000000 1.0
C      1  0.4226550000000  0.5358110000000  0.4439250000000 1.0
C      1  0.5786390000000  0.5659450000000  0.4821910000000 1.0
C      1  0.4311040000000  0.5565680000000  0.5158860000000 1.0
C      1  0.5795640000000  0.5390950000000  0.5550380000000 1.0
C      1  0.4273130000000  0.4950200000000  0.5612150000000 1.0
C      1  0.5752540000000  0.4606050000000  0.5511910000000 1.0
C      1  0.5182160000000  0.5230860000000  0.4090050000000 1.0
C      1  0.4831060000000  0.5827900000000  0.4347540000000 1.0
C      1  0.5185980000000  0.6108030000000  0.4941320000000 1.0
C      1  0.4844300000000  0.5889060000000  0.5570650000000 1.0
C      1  0.5156050000000  0.5373830000000  0.5984240000000 1.0
C      1  0.4812460000000  0.4702630000000  0.6037690000000 1.0
C      1  0.5175780000000  0.4170450000000  0.5702540000000 1.0
C      1  0.4822670000000  0.3978550000000  0.5080830000000 1.0
C      1  0.5162120000000  0.4144130000000  0.4443690000000 1.0
C      1  0.4774420000000  0.4624810000000  0.4035110000000 1.0
C      1  0.5121180000000  0.5509720000000  0.4123250000000 1.0
C      1  0.4898870000000  0.5954480000000  0.4592700000000 1.0
C      1  0.5142160000000  0.6073020000000  0.5216700000000 1.0
C      1  0.4874860000000  0.5693870000000  0.5780810000000 1.0
C      1  0.5110400000000  0.5095880000000  0.6015070000000 1.0
C      1  0.4855900000000  0.4439180000000  0.5940630000000 1.0
C      1  0.5112340000000  0.4023300000000  0.5469920000000 1.0
C      1  0.4876030000000  0.4022330000000  0.4805480000000 1.0
C      1  0.5106910000000  0.4346850000000  0.4255810000000 1.0
C      1  0.4822820000000  0.4899310000000  0.4031560000000 1.0
C      1  0.4433500000000  0.5040830000000  0.5169790000000 1.0
C      1  0.5552370000000  0.5000670000000  0.5286380000000 1.0
C      1  0.4462620000000  0.4763800000000  0.5074280000000 1.0
C      1  0.5530570000000  0.4768260000000  0.5097430000000 1.0
C      1  0.4385390000000  0.4759230000000  0.4795210000000 1.0
C      1  0.5588640000000  0.4885760000000  0.4801990000000 1.0
C      1  0.4351360000000  0.5028010000000  0.4707150000000 1.0
C      1  0.5577120000000  0.5197180000000  0.4854550000000 1.0
C      1  0.4434670000000  0.5211910000000  0.4933500000000 1.0
C      1  0.5621930000000  0.5235460000000  0.5136960000000 1.0
C      1  0.4905780000000  0.5135670000000  0.5628800000000 1.0
C      1  0.5140140000000  0.4705130000000  0.5541170000000 1.0
C      1  0.4841920000000  0.4394950000000  0.5308730000000 1.0
C      1  0.5132250000000  0.4361340000000  0.4924160000000 1.0
C      1  0.4832800000000  0.4541280000000  0.4542090000000 1.0
C      1  0.5103120000000  0.4961950000000  0.4359730000000 1.0
C      1  0.4913270000000  0.5411550000000  0.4531900000000 1.0
C      1  0.5368580000000  0.5559650000000  0.4714790000000 1.0
C      1  0.4959450000000  0.5620880000000  0.5005680000000 1.0
C      1  0.5195460000000  0.5487870000000  0.5439300000000 1.0
C      1  0.6066730000000  0.5224190000000  0.5126760000000 1.0
C      1  0.3975470000000  0.5064460000000  0.5217590000000 1.0
C      1  0.6037800000000  0.4938780000000  0.5234010000000 1.0
C      1  0.3975250000000  0.4767310000000  0.5147880000000 1.0
C      1  0.5964100000000  0.4775700000000  0.5002070000000 1.0
C      1  0.3942870000000  0.4739610000000  0.4847850000000 1.0
C      1  0.6021210000000  0.4913860000000  0.4754650000000 1.0
C      1  0.3959880000000  0.5023370000000  0.4732290000000 1.0
C      1  0.6048210000000  0.5205450000000  0.4816790000000 1.0
C      1  0.3949520000000  0.5217590000000  0.4962830000000 1.0
C      1  0.4196970000000  0.4852890000000  0.4292200000000 1.0
C      1  0.5681670000000  0.5297630000000  0.4437870000000 1.0
C      1  0.4255180000000  0.5526020000000  0.4681190000000 1.0
C      1  0.5745080000000  0.5660980000000  0.5119240000000 1.0
C      1  0.4356620000000  0.5410110000000  0.5401120000000 1.0
C      1  0.5752870000000  0.5120150000000  0.5656000000000 1.0
C      1  0.4335730000000  0.4680840000000  0.5518830000000 1.0
C      1  0.5695120000000  0.4456580000000  0.5259970000000 1.0
C      1  0.4294800000000  0.4333970000000  0.4879840000000 1.0
C      1  0.5698320000000  0.4560980000000  0.4534020000000 1.0
C      1  0.5588690000000  0.4147420000000  0.4789630000000 1.0
C      1  0.4361950000000  0.4394770000000  0.4318210000000 1.0
C      1  0.5547160000000  0.4933970000000  0.4124620000000 1.0
C      1  0.4375620000000  0.5452150000000  0.4222840000000 1.0
C      1  0.5669240000000  0.5881090000000  0.4678340000000 1.0
C      1  0.4420240000000  0.5828230000000  0.5122280000000 1.0
C      1  0.5608720000000  0.5570990000000  0.5663880000000 1.0
C      1  0.4400330000000  0.5039790000000  0.5844000000000 1.0
C      1  0.5557820000000  0.4573320000000  0.5707310000000 1.0
C      1  0.4384430000000  0.4156460000000  0.5349790000000 1.0
C      1  0.4635870000000  0.5096470000000  0.4154430000000 1.0
C      1  0.5344420000000  0.5633870000000  0.4262790000000 1.0
C      1  0.4691840000000  0.6011870000000  0.4786250000000 1.0
C      1  0.5360590000000  0.5935620000000  0.5344340000000 1.0
C      1  0.4707090000000  0.5430060000000  0.5773190000000 1.0
C      1  0.5330330000000  0.4922500000000  0.5933210000000 1.0
C      1  0.4658020000000  0.4358830000000  0.5712950000000 1.0
C      1  0.5317740000000  0.4025480000000  0.5260160000000 1.0
C      1  0.4669150000000  0.4141390000000  0.4633470000000 1.0
C      1  0.5287160000000  0.4584440000000  0.4241920000000 1.0
C      1  0.4674400000000  0.5950910000000  0.5075420000000 1.0
C      1  0.5342900000000  0.5680690000000  0.5628070000000 1.0
C      1  0.4624840000000  0.5169230000000  0.5947940000000 1.0
C      1  0.5293020000000  0.4649410000000  0.5790090000000 1.0
C      1  0.4598450000000  0.4101990000000  0.5529640000000 1.0
C      1  0.5354960000000  0.4020210000000  0.4879300000000 1.0
C      1  0.4621950000000  0.4278360000000  0.4351000000000 1.0
C      1  0.5325990000000  0.4784820000000  0.4027830000000 1.0
C      1  0.4634450000000  0.5395540000000  0.4135780000000 1.0
C      1  0.5399310000000  0.5827350000000  0.4585110000000 1.0
C      1  0.4855110000000  0.4921010000000  0.5236150000000 1.0
C      1  0.5230390000000  0.4724200000000  0.5115030000000 1.0
C      1  0.4773500000000  0.4754820000000  0.5009510000000 1.0
C      1  0.5180240000000  0.4787800000000  0.4830830000000 1.0
C      1  0.4785430000000  0.4950730000000  0.4758090000000 1.0
C      1  0.5205060000000  0.5089240000000  0.4799960000000 1.0
C      1  0.4722920000000  0.5224070000000  0.4886430000000 1.0
C      1  0.5169310000000  0.5232660000000  0.5064250000000 1.0
C      1  0.4873770000000  0.5203890000000  0.5142490000000 1.0
C      1  0.5262520000000  0.5061920000000  0.5320540000000 1.0
C      1  0.5798530000000  0.5357790000000  0.4714580000000 1.0
C      1  0.4133180000000  0.5458160000000  0.4942200000000 1.0
C      1  0.5836520000000  0.5398210000000  0.5244990000000 1.0
C      1  0.4237770000000  0.5126750000000  0.5370580000000 1.0
C      1  0.5863110000000  0.4886780000000  0.5483760000000 1.0
C      1  0.4239070000000  0.4624550000000  0.5240550000000 1.0
C      1  0.5863360000000  0.4499810000000  0.5015470000000 1.0
C      1  0.4170790000000  0.4579580000000  0.4727740000000 1.0
C      1  0.5849400000000  0.4827310000000  0.4518190000000 1.0
C      1  0.4044970000000  0.5105080000000  0.4424190000000 1.0
C      1  0.4835650000000  0.4449220000000  0.5013590000000 1.0
C      1  0.5133180000000  0.4530730000000  0.4655280000000 1.0
C      1  0.4807460000000  0.4847600000000  0.4473070000000 1.0
C      1  0.5145800000000  0.5218230000000  0.4532640000000 1.0
C      1  0.4778910000000  0.5499890000000  0.4787570000000 1.0
C      1  0.5247200000000  0.5536020000000  0.4994170000000 1.0
C      1  0.4908450000000  0.5551970000000  0.5313610000000 1.0
C      1  0.5198580000000  0.5214280000000  0.5568340000000 1.0
C      1  0.4871660000000  0.4843150000000  0.5520020000000 1.0
C      1  0.5125200000000  0.4458330000000  0.5379870000000 1.0
END
