TITL C-3578201-9217-501 -2.06513998317941e-06 125000 -439.159297225789 0 0 73 (C1) n - 1
REM
REM in /home/bkarasulu/work/CARBON/AIRSS/Generating-Clusters/EDIP-Nigel-Params/with-SteepDescent/Higher-Symm/SD-CG/HFTN-CG
REM
REM
REM
REM
REM
REM ./C.cell (12c818d87b63d06a65506943cc24bca4)
REM
REM compiler GCC version 9.2.1 20190827 (Red Hat 9.2.1-1)
REM options -cpp -mtune=generic -march=x86-64 -g -O0 -fpre-include=/usr/include/finclude/math-vector-fortran.h
REM seed 402031058 -620538922 -190254797 -1627459949 -1362260438 1971711247 -517970402 382063342 -1719603632 -1274552110 -545924587 -436165746 1670754135 -1900513836 806908597 1597276504 1331726755 1354468155 -1477344484 -1931535370 -1936056367 -1579225399 -844955839 -680470010 1135437541 1859591028 -1560024589 1431676591 1611820704 -405301167 32205347 -1849773626 -1645439225
REM
CELL 1.54180   50.00000   50.00000   50.00000   90.00000   90.00000   90.00000
LATT -1
SFAC C  
C      1  0.5758060000000  0.5245920000000  0.4716470000000 1.0
C      1  0.4211240000000  0.5315760000000  0.5359020000000 1.0
C      1  0.5758430000000  0.4770150000000  0.4722560000000 1.0
C      1  0.4215540000000  0.4830870000000  0.5407190000000 1.0
C      1  0.5611510000000  0.4667260000000  0.5390170000000 1.0
C      1  0.4465960000000  0.4694360000000  0.4588690000000 1.0
C      1  0.5612860000000  0.5342060000000  0.5388410000000 1.0
C      1  0.4376140000000  0.5282570000000  0.4578540000000 1.0
C      1  0.4568180000000  0.4357000000000  0.4902060000000 1.0
C      1  0.5397730000000  0.4360010000000  0.5082490000000 1.0
C      1  0.4548070000000  0.5590340000000  0.4927340000000 1.0
C      1  0.5421940000000  0.5660880000000  0.5075420000000 1.0
C      1  0.4866090000000  0.5145740000000  0.4337550000000 1.0
C      1  0.5160720000000  0.5149210000000  0.5608140000000 1.0
C      1  0.4881100000000  0.4858380000000  0.4364040000000 1.0
C      1  0.5159230000000  0.4860030000000  0.5609460000000 1.0
C      1  0.5565760000000  0.4680530000000  0.4548000000000 1.0
C      1  0.4437050000000  0.4688500000000  0.5497170000000 1.0
C      1  0.5564610000000  0.5334490000000  0.4538640000000 1.0
C      1  0.4451340000000  0.5358520000000  0.5494530000000 1.0
C      1  0.5140360000000  0.4759230000000  0.4355290000000 1.0
C      1  0.4900950000000  0.4755240000000  0.5622280000000 1.0
C      1  0.5121750000000  0.5254610000000  0.4365190000000 1.0
C      1  0.4899850000000  0.5247580000000  0.5625750000000 1.0
C      1  0.4702840000000  0.5557000000000  0.5182600000000 1.0
C      1  0.5297830000000  0.5575970000000  0.4808800000000 1.0
C      1  0.4667210000000  0.4427360000000  0.5176930000000 1.0
C      1  0.5288470000000  0.4430710000000  0.4811210000000 1.0
C      1  0.5654930000000  0.5512240000000  0.5162200000000 1.0
C      1  0.4396970000000  0.5327000000000  0.4884350000000 1.0
C      1  0.5637930000000  0.4500910000000  0.5160460000000 1.0
C      1  0.4373250000000  0.4546000000000  0.4814730000000 1.0
C      1  0.5047660000000  0.4257620000000  0.4744530000000 1.0
C      1  0.4907480000000  0.4252340000000  0.5244860000000 1.0
C      1  0.5038570000000  0.5741160000000  0.4751050000000 1.0
C      1  0.4940430000000  0.5746660000000  0.5183390000000 1.0
C      1  0.4885050000000  0.4207910000000  0.4511550000000 1.0
C      1  0.5034690000000  0.4191350000000  0.5492970000000 1.0
C      1  0.4845990000000  0.5855810000000  0.4569450000000 1.0
C      1  0.5047290000000  0.5878590000000  0.5415300000000 1.0
C      1  0.4689610000000  0.5169420000000  0.5443180000000 1.0
C      1  0.5313790000000  0.5171010000000  0.4563740000000 1.0
C      1  0.4691500000000  0.4841370000000  0.5444410000000 1.0
C      1  0.5314710000000  0.4844080000000  0.4564920000000 1.0
C      1  0.4268750000000  0.4842470000000  0.4462830000000 1.0
C      1  0.5796420000000  0.4869660000000  0.5426970000000 1.0
C      1  0.4196600000000  0.5099550000000  0.4473680000000 1.0
C      1  0.5794490000000  0.5137220000000  0.5427740000000 1.0
C      1  0.4779590000000  0.4400470000000  0.4701690000000 1.0
C      1  0.5194500000000  0.4336500000000  0.5296540000000 1.0
C      1  0.4749020000000  0.5621230000000  0.4706840000000 1.0
C      1  0.5217730000000  0.5681050000000  0.5286230000000 1.0
C      1  0.4238890000000  0.4927890000000  0.5144920000000 1.0
C      1  0.5703110000000  0.4842580000000  0.4993290000000 1.0
C      1  0.4193140000000  0.5215020000000  0.5098650000000 1.0
C      1  0.5709780000000  0.5173350000000  0.4989880000000 1.0
C      1  0.5394090000000  0.5157190000000  0.5054180000000 1.0
C      1  0.4631790000000  0.5123030000000  0.4933000000000 1.0
C      1  0.5385890000000  0.4851690000000  0.5058030000000 1.0
C      1  0.4486230000000  0.4847310000000  0.4999840000000 1.0
C      1  0.4673820000000  0.5213630000000  0.4554880000000 1.0
C      1  0.5333980000000  0.5273600000000  0.5415000000000 1.0
C      1  0.4732580000000  0.4835950000000  0.4626540000000 1.0
C      1  0.5335650000000  0.4737350000000  0.5422720000000 1.0
C      1  0.5208340000000  0.4732570000000  0.4834530000000 1.0
C      1  0.4740290000000  0.4726200000000  0.5146800000000 1.0
C      1  0.5232850000000  0.5278960000000  0.4830990000000 1.0
C      1  0.4776260000000  0.5257070000000  0.5169760000000 1.0
C      1  0.5492780000000  0.5603420000000  0.4589540000000 1.0
C      1  0.4541130000000  0.5613920000000  0.5421880000000 1.0
C      1  0.5494460000000  0.4414130000000  0.4603440000000 1.0
C      1  0.4463640000000  0.4429240000000  0.5386940000000 1.0
C      1  0.4910750000000  0.4783700000000  0.4879120000000 1.0
END
