TITL C-3578197-9521-707 -1.20563339466097e-07 125000 -242.52022187682 0 0 42 (C1) n - 1
REM
REM in /home/bkarasulu/work/CARBON/AIRSS/Generating-Clusters/EDIP-Nigel-Params/with-SteepDescent/Higher-Symm/SD-CG/HFTN-CG
REM
REM
REM
REM
REM
REM ./C.cell (12c818d87b63d06a65506943cc24bca4)
REM
REM compiler GCC version 9.2.1 20190827 (Red Hat 9.2.1-1)
REM options -cpp -mtune=generic -march=x86-64 -g -O0 -fpre-include=/usr/include/finclude/math-vector-fortran.h
REM seed -200862578 1012481543 -1502251491 -1337991505 1457533406 677816249 962782994 791971128 -419460169 642634706 367600377 -1260337753 -554758026 1229641519 1258730581 928644152 -696690773 777746437 -557819281 620449947 1047425304 695952847 -653783876 1921861722 1408507821 116614827 320961619 1625583598 819547339 1772729338 -1462301258 509026256 1124290976
REM
CELL 1.54180   50.00000   50.00000   50.00000   90.00000   90.00000   90.00000
LATT -1
SFAC C  
C      1  0.5352410000000  0.5369540000000  0.5368500000000 1.0
C      1  0.5357510000000  0.5394190000000  0.4667210000000 1.0
C      1  0.5502450000000  0.4691410000000  0.4768240000000 1.0
C      1  0.5504880000000  0.4714610000000  0.5256050000000 1.0
C      1  0.4813720000000  0.5565650000000  0.4729050000000 1.0
C      1  0.4817480000000  0.5562240000000  0.5314090000000 1.0
C      1  0.5307550000000  0.5662020000000  0.4725580000000 1.0
C      1  0.5315720000000  0.5639980000000  0.5309910000000 1.0
C      1  0.5065060000000  0.5639490000000  0.5168660000000 1.0
C      1  0.5060760000000  0.5651020000000  0.4870470000000 1.0
C      1  0.5530470000000  0.5326390000000  0.4478890000000 1.0
C      1  0.5518580000000  0.5294220000000  0.5560120000000 1.0
C      1  0.4586190000000  0.5062930000000  0.5408770000000 1.0
C      1  0.4617570000000  0.5064520000000  0.4648020000000 1.0
C      1  0.4819740000000  0.5155590000000  0.4467020000000 1.0
C      1  0.4811100000000  0.5150130000000  0.5566550000000 1.0
C      1  0.4863800000000  0.5435440000000  0.4474910000000 1.0
C      1  0.4868410000000  0.5427240000000  0.5563170000000 1.0
C      1  0.5054540000000  0.4583760000000  0.4549270000000 1.0
C      1  0.5056220000000  0.4636200000000  0.5480650000000 1.0
C      1  0.4607000000000  0.4788330000000  0.4736920000000 1.0
C      1  0.4639220000000  0.4834120000000  0.5235890000000 1.0
C      1  0.5283270000000  0.4501360000000  0.4696700000000 1.0
C      1  0.5283950000000  0.4534890000000  0.5343730000000 1.0
C      1  0.4844590000000  0.4595930000000  0.4753350000000 1.0
C      1  0.4846860000000  0.4622110000000  0.5275360000000 1.0
C      1  0.5106320000000  0.5238750000000  0.4706070000000 1.0
C      1  0.5096570000000  0.5222900000000  0.5323740000000 1.0
C      1  0.4432380000000  0.5256580000000  0.4741890000000 1.0
C      1  0.4422030000000  0.5271430000000  0.5311390000000 1.0
C      1  0.4704700000000  0.4341860000000  0.4799050000000 1.0
C      1  0.4696730000000  0.4370310000000  0.5263000000000 1.0
C      1  0.4597750000000  0.5439820000000  0.4880940000000 1.0
C      1  0.4601870000000  0.5434690000000  0.5167600000000 1.0
C      1  0.4543170000000  0.4414850000000  0.5025310000000 1.0
C      1  0.5635990000000  0.4582290000000  0.5017530000000 1.0
C      1  0.5238150000000  0.4477000000000  0.5022010000000 1.0
C      1  0.5421130000000  0.4910180000000  0.5005350000000 1.0
C      1  0.4976590000000  0.5268110000000  0.5015270000000 1.0
C      1  0.4996600000000  0.4666970000000  0.5012360000000 1.0
C      1  0.4477160000000  0.4717350000000  0.5005230000000 1.0
C      1  0.5120690000000  0.4948040000000  0.5007050000000 1.0
END
