TITL C-3578206-1180-743 1.42228083824499e-06 125000 -274.471391415055 0 0 45 (C1) n - 1
REM
REM in /home/bkarasulu/work/CARBON/AIRSS/Generating-Clusters/EDIP-Nigel-Params/with-SteepDescent/Higher-Symm/SD-CG/HFTN-CG
REM
REM
REM
REM
REM
REM ./C.cell (12c818d87b63d06a65506943cc24bca4)
REM
REM compiler GCC version 9.2.1 20190827 (Red Hat 9.2.1-1)
REM options -cpp -mtune=generic -march=x86-64 -g -O0 -fpre-include=/usr/include/finclude/math-vector-fortran.h
REM seed -622525982 -2023946444 -851928110 1249072446 -7219987 126387221 -1321406258 -277925743 -1029812256 811923533 -564727599 -734249359 -991035860 -462324744 708061365 1872988048 -1340955768 -1607795791 -573876512 -1038920250 -1865395249 -1931080347 428460490 742452797 1024341206 365326404 1223457011 1280567517 -916653642 757737969 1173619364 806565828 -1010583209
REM
CELL 1.54180   50.00000   50.00000   50.00000   90.00000   90.00000   90.00000
LATT -1
SFAC C  
C      1  0.4688230000000  0.5257580000000  0.5499540000000 1.0
C      1  0.5258770000000  0.5262240000000  0.5500680000000 1.0
C      1  0.5453010000000  0.5213270000000  0.5092870000000 1.0
C      1  0.5450850000000  0.5307230000000  0.4644530000000 1.0
C      1  0.5015600000000  0.5268970000000  0.4442660000000 1.0
C      1  0.4486580000000  0.5328630000000  0.4622400000000 1.0
C      1  0.4371800000000  0.5336250000000  0.5151930000000 1.0
C      1  0.5242120000000  0.5470060000000  0.4801090000000 1.0
C      1  0.4979950000000  0.5398100000000  0.4696590000000 1.0
C      1  0.4707860000000  0.5437630000000  0.4794700000000 1.0
C      1  0.4634870000000  0.5461180000000  0.5078660000000 1.0
C      1  0.4826780000000  0.5387350000000  0.5282620000000 1.0
C      1  0.5112890000000  0.5445010000000  0.5307820000000 1.0
C      1  0.5275670000000  0.5549440000000  0.5081920000000 1.0
C      1  0.5027220000000  0.4621920000000  0.4537300000000 1.0
C      1  0.4786350000000  0.4622530000000  0.4678170000000 1.0
C      1  0.4779460000000  0.4475080000000  0.4916360000000 1.0
C      1  0.4705170000000  0.4535490000000  0.5182460000000 1.0
C      1  0.4939130000000  0.4524660000000  0.5359590000000 1.0
C      1  0.5522890000000  0.4536670000000  0.5229920000000 1.0
C      1  0.5482860000000  0.4530860000000  0.4946610000000 1.0
C      1  0.4619970000000  0.4859500000000  0.4705310000000 1.0
C      1  0.4426730000000  0.4847560000000  0.4922650000000 1.0
C      1  0.4517720000000  0.4761010000000  0.5183540000000 1.0
C      1  0.5180380000000  0.4764800000000  0.5526290000000 1.0
C      1  0.5446880000000  0.4747140000000  0.5412630000000 1.0
C      1  0.5447050000000  0.4748610000000  0.4752860000000 1.0
C      1  0.5291390000000  0.4706710000000  0.4509500000000 1.0
C      1  0.4227950000000  0.5052280000000  0.4934310000000 1.0
C      1  0.4394240000000  0.4890080000000  0.5401780000000 1.0
C      1  0.5101750000000  0.5032230000000  0.5613870000000 1.0
C      1  0.5634000000000  0.4942870000000  0.5483520000000 1.0
C      1  0.5631970000000  0.4971770000000  0.4720730000000 1.0
C      1  0.5330610000000  0.4924320000000  0.4337710000000 1.0
C      1  0.4583430000000  0.5066710000000  0.4497950000000 1.0
C      1  0.4249360000000  0.5290590000000  0.4787360000000 1.0
C      1  0.4422320000000  0.5174130000000  0.5408240000000 1.0
C      1  0.4833470000000  0.5090180000000  0.5669660000000 1.0
C      1  0.5522440000000  0.5184150000000  0.5387840000000 1.0
C      1  0.5683680000000  0.5167240000000  0.4916100000000 1.0
C      1  0.5295070000000  0.5193700000000  0.4409430000000 1.0
C      1  0.4807660000000  0.5115630000000  0.4332680000000 1.0
C      1  0.5234920000000  0.5039830000000  0.5011520000000 1.0
C      1  0.5095340000000  0.4807890000000  0.5013510000000 1.0
C      1  0.5146800000000  0.4561410000000  0.5143820000000 1.0
END
