TITL C-3577087-600-185 -1.47773851087123e-07 125000 -675.318127336337 0 0 108 (C1) n - 1
REM
REM in /home/bkarasulu/work/CARBON/AIRSS/Generating-Clusters/EDIP-Nigel-Params/with-SteepDescent/Higher-Symm/SD-CG/HFTN-CG
REM
REM
REM
REM
REM
REM ./C.cell (12c818d87b63d06a65506943cc24bca4)
REM
REM compiler GCC version 9.2.1 20190827 (Red Hat 9.2.1-1)
REM options -cpp -mtune=generic -march=x86-64 -g -O0 -fpre-include=/usr/include/finclude/math-vector-fortran.h
REM seed -1163037651 1191190274 78727137 -1216263226 -732156084 -1893806943 -535478203 -565299663 365611467 -1005683916 -497417123 -899558340 208531401 -1836055308 -1944926367 1187304018 1863953341 -2013657327 393285887 -108959784 1398024389 -756824445 -303430745 861942770 1605666242 1230863188 1136759471 -1359750776 -1275994351 -1655486081 844670278 1821896037 956610460
REM
CELL 1.54180   50.00000   50.00000   50.00000   90.00000   90.00000   90.00000
LATT -1
SFAC C  
C      1  0.5597390000000  0.4265700000000  0.4802020000000 1.0
C      1  0.4502960000000  0.4220960000000  0.4854680000000 1.0
C      1  0.4057620000000  0.5277900000000  0.4762980000000 1.0
C      1  0.4918720000000  0.5919250000000  0.4816410000000 1.0
C      1  0.5857490000000  0.5342420000000  0.4829060000000 1.0
C      1  0.5107690000000  0.4154590000000  0.4728190000000 1.0
C      1  0.4328470000000  0.4708010000000  0.4787420000000 1.0
C      1  0.4414510000000  0.5647330000000  0.4701620000000 1.0
C      1  0.5364530000000  0.5675500000000  0.4803530000000 1.0
C      1  0.5792000000000  0.4846740000000  0.4767340000000 1.0
C      1  0.5161160000000  0.5239930000000  0.4663880000000 1.0
C      1  0.5290070000000  0.4940300000000  0.4610020000000 1.0
C      1  0.5060610000000  0.4702700000000  0.4568190000000 1.0
C      1  0.4679500000000  0.5064190000000  0.4638130000000 1.0
C      1  0.4850230000000  0.5308720000000  0.4590000000000 1.0
C      1  0.4348660000000  0.5221800000000  0.4358960000000 1.0
C      1  0.4985420000000  0.5668860000000  0.4367040000000 1.0
C      1  0.5588370000000  0.5205780000000  0.4416570000000 1.0
C      1  0.5392650000000  0.4471570000000  0.4385610000000 1.0
C      1  0.4616460000000  0.4473060000000  0.4428180000000 1.0
C      1  0.5023250000000  0.4751170000000  0.5160160000000 1.0
C      1  0.4794960000000  0.5060600000000  0.5379820000000 1.0
C      1  0.4886940000000  0.5215970000000  0.5116440000000 1.0
C      1  0.5263960000000  0.5261460000000  0.5412240000000 1.0
C      1  0.5269750000000  0.4829630000000  0.5309450000000 1.0
C      1  0.5005660000000  0.4515080000000  0.5659690000000 1.0
C      1  0.4551520000000  0.4844170000000  0.5674180000000 1.0
C      1  0.4731140000000  0.5398480000000  0.5644150000000 1.0
C      1  0.5285500000000  0.5422400000000  0.5680480000000 1.0
C      1  0.5486070000000  0.4842800000000  0.5688610000000 1.0
C      1  0.5894020000000  0.5072360000000  0.4941370000000 1.0
C      1  0.5353820000000  0.4141980000000  0.4913670000000 1.0
C      1  0.4365150000000  0.4458300000000  0.4959410000000 1.0
C      1  0.4227410000000  0.5489620000000  0.4878900000000 1.0
C      1  0.5162040000000  0.5834650000000  0.4948640000000 1.0
C      1  0.4928190000000  0.4756920000000  0.4152670000000 1.0
C      1  0.4726800000000  0.4974000000000  0.4162400000000 1.0
C      1  0.4883960000000  0.5223860000000  0.4157020000000 1.0
C      1  0.5167340000000  0.5158030000000  0.4159600000000 1.0
C      1  0.5191480000000  0.4873610000000  0.4182300000000 1.0
C      1  0.5783780000000  0.5532840000000  0.5046850000000 1.0
C      1  0.5746800000000  0.4408100000000  0.5016170000000 1.0
C      1  0.4689530000000  0.4103160000000  0.5054850000000 1.0
C      1  0.4063060000000  0.5041770000000  0.4940190000000 1.0
C      1  0.4688750000000  0.5908150000000  0.4994600000000 1.0
C      1  0.5453760000000  0.4954790000000  0.5103770000000 1.0
C      1  0.5066480000000  0.4487370000000  0.5052350000000 1.0
C      1  0.4641060000000  0.4806540000000  0.5190050000000 1.0
C      1  0.4670910000000  0.5391270000000  0.5009570000000 1.0
C      1  0.5139660000000  0.5395010000000  0.5161310000000 1.0
C      1  0.4417430000000  0.5036150000000  0.5486120000000 1.0
C      1  0.4843250000000  0.5657460000000  0.5573300000000 1.0
C      1  0.5617850000000  0.5330070000000  0.5565060000000 1.0
C      1  0.5475140000000  0.4571130000000  0.5519280000000 1.0
C      1  0.4751270000000  0.4387070000000  0.5578310000000 1.0
C      1  0.5484510000000  0.4822830000000  0.4829480000000 1.0
C      1  0.4980450000000  0.4441240000000  0.4774390000000 1.0
C      1  0.4493820000000  0.4924430000000  0.4944200000000 1.0
C      1  0.4714850000000  0.5537240000000  0.4753050000000 1.0
C      1  0.5313550000000  0.5383320000000  0.4891440000000 1.0
C      1  0.4776450000000  0.5486560000000  0.4250940000000 1.0
C      1  0.5359640000000  0.5334410000000  0.4287840000000 1.0
C      1  0.5435760000000  0.4735650000000  0.4257610000000 1.0
C      1  0.4874060000000  0.4492490000000  0.4272680000000 1.0
C      1  0.4528420000000  0.4977620000000  0.4390060000000 1.0
C      1  0.4506950000000  0.4553250000000  0.5656680000000 1.0
C      1  0.4476590000000  0.5319790000000  0.5533470000000 1.0
C      1  0.5132060000000  0.5681540000000  0.5641050000000 1.0
C      1  0.5693210000000  0.5040560000000  0.5626400000000 1.0
C      1  0.5253740000000  0.4383920000000  0.5592990000000 1.0
C      1  0.4719770000000  0.4320230000000  0.5269230000000 1.0
C      1  0.4304310000000  0.5080660000000  0.5114450000000 1.0
C      1  0.4782190000000  0.5752280000000  0.5242140000000 1.0
C      1  0.5665360000000  0.5360240000000  0.5260650000000 1.0
C      1  0.5537260000000  0.4493330000000  0.5212380000000 1.0
C      1  0.4105900000000  0.5222860000000  0.4492720000000 1.0
C      1  0.4878890000000  0.5855050000000  0.4546100000000 1.0
C      1  0.5625690000000  0.5340850000000  0.4663830000000 1.0
C      1  0.5524960000000  0.4488440000000  0.4638730000000 1.0
C      1  0.4658700000000  0.4277020000000  0.4626010000000 1.0
C      1  0.5626530000000  0.4910710000000  0.4420000000000 1.0
C      1  0.5124480000000  0.4337260000000  0.4386830000000 1.0
C      1  0.4432660000000  0.4700140000000  0.4491490000000 1.0
C      1  0.4499880000000  0.5476610000000  0.4401100000000 1.0
C      1  0.5244340000000  0.5555610000000  0.4452910000000 1.0
C      1  0.4316230000000  0.4513540000000  0.5447070000000 1.0
C      1  0.4348340000000  0.5498210000000  0.5358410000000 1.0
C      1  0.5238420000000  0.5818480000000  0.5422210000000 1.0
C      1  0.5846600000000  0.4942390000000  0.5411170000000 1.0
C      1  0.5226460000000  0.4178480000000  0.5399880000000 1.0
C      1  0.4386560000000  0.5371190000000  0.5099160000000 1.0
C      1  0.5083150000000  0.5703860000000  0.5200960000000 1.0
C      1  0.5717670000000  0.5076960000000  0.5184200000000 1.0
C      1  0.5295610000000  0.4320860000000  0.5152530000000 1.0
C      1  0.4501210000000  0.4521860000000  0.5215900000000 1.0
C      1  0.5247380000000  0.4931080000000  0.5853220000000 1.0
C      1  0.5010100000000  0.4747230000000  0.5836690000000 1.0
C      1  0.4793450000000  0.4931290000000  0.5801880000000 1.0
C      1  0.4870510000000  0.5210050000000  0.5817270000000 1.0
C      1  0.5158740000000  0.5231140000000  0.5874130000000 1.0
C      1  0.4449940000000  0.5904640000000  0.4839490000000 1.0
C      1  0.5626400000000  0.5728980000000  0.4915600000000 1.0
C      1  0.5898070000000  0.4601870000000  0.4876710000000 1.0
C      1  0.4899810000000  0.4010550000000  0.4881520000000 1.0
C      1  0.4052360000000  0.4796550000000  0.4800750000000 1.0
C      1  0.4986320000000  0.4968290000000  0.4963810000000 1.0
C      1  0.4871400000000  0.4868070000000  0.4726930000000 1.0
C      1  0.5107990000000  0.5013900000000  0.5499330000000 1.0
END
