TITL C-3578205-846-500 -1.4567893203115e-06 125000 -1016.35277024021 0 0 161 (C1) n - 1
REM
REM in /home/bkarasulu/work/CARBON/AIRSS/Generating-Clusters/EDIP-Nigel-Params/with-SteepDescent/Higher-Symm/SD-CG/HFTN-CG
REM
REM
REM
REM
REM
REM ./C.cell (12c818d87b63d06a65506943cc24bca4)
REM
REM compiler GCC version 9.2.1 20190827 (Red Hat 9.2.1-1)
REM options -cpp -mtune=generic -march=x86-64 -g -O0 -fpre-include=/usr/include/finclude/math-vector-fortran.h
REM seed -1063157979 -732595093 -905419694 -985617550 -244004297 -1484315107 680718487 116559096 -210698104 -964280013 -1720980278 1010594547 1349286549 -1461187850 -1183134468 360000527 -599174451 -1819479393 779026911 -1765710418 1952466065 604351774 -360981857 -1578851065 733042378 -265044021 176184055 1500874272 1722232520 -2121984772 -1705602703 -179790998 -505684820
REM
CELL 1.54180   50.00000   50.00000   50.00000   90.00000   90.00000   90.00000
LATT -1
SFAC C  
C      1  0.4971730000000  0.4535860000000  0.5013070000000 1.0
C      1  0.5814430000000  0.5015170000000  0.5622850000000 1.0
C      1  0.5296040000000  0.5596780000000  0.4135750000000 1.0
C      1  0.3900440000000  0.5079290000000  0.4569290000000 1.0
C      1  0.5033320000000  0.5584270000000  0.4537090000000 1.0
C      1  0.4255110000000  0.4247950000000  0.5268610000000 1.0
C      1  0.4248820000000  0.5353920000000  0.5571090000000 1.0
C      1  0.4172710000000  0.5362460000000  0.4827070000000 1.0
C      1  0.5664550000000  0.4721780000000  0.4123240000000 1.0
C      1  0.5305610000000  0.5478590000000  0.5892410000000 1.0
C      1  0.6078230000000  0.5038770000000  0.4885730000000 1.0
C      1  0.5221730000000  0.4556880000000  0.4027370000000 1.0
C      1  0.5676140000000  0.4855170000000  0.4848590000000 1.0
C      1  0.3976960000000  0.4509800000000  0.4751410000000 1.0
C      1  0.5119770000000  0.4207340000000  0.4431980000000 1.0
C      1  0.4358240000000  0.5271530000000  0.4375560000000 1.0
C      1  0.4052760000000  0.4427240000000  0.5366460000000 1.0
C      1  0.4012690000000  0.5229880000000  0.5043400000000 1.0
C      1  0.5100670000000  0.5326280000000  0.6024060000000 1.0
C      1  0.5680420000000  0.5540000000000  0.4438680000000 1.0
C      1  0.5229630000000  0.4944770000000  0.4956240000000 1.0
C      1  0.5146780000000  0.4540530000000  0.6048180000000 1.0
C      1  0.3958120000000  0.4742710000000  0.4928240000000 1.0
C      1  0.4615340000000  0.4155870000000  0.4484270000000 1.0
C      1  0.4657360000000  0.6090040000000  0.4833410000000 1.0
C      1  0.4856780000000  0.4747680000000  0.5201220000000 1.0
C      1  0.5096780000000  0.4578630000000  0.5555700000000 1.0
C      1  0.5261400000000  0.4834770000000  0.3904830000000 1.0
C      1  0.5258870000000  0.5738930000000  0.4389980000000 1.0
C      1  0.4929810000000  0.5763330000000  0.4744500000000 1.0
C      1  0.4772910000000  0.4865110000000  0.4556800000000 1.0
C      1  0.5495770000000  0.5730910000000  0.4543670000000 1.0
C      1  0.4491570000000  0.5096530000000  0.5167060000000 1.0
C      1  0.5507630000000  0.5340120000000  0.4967680000000 1.0
C      1  0.5444210000000  0.5057650000000  0.4526270000000 1.0
C      1  0.5065460000000  0.5178050000000  0.4197980000000 1.0
C      1  0.4614390000000  0.4393460000000  0.5699600000000 1.0
C      1  0.4562910000000  0.5168930000000  0.4880310000000 1.0
C      1  0.4535510000000  0.4185880000000  0.5237580000000 1.0
C      1  0.5059590000000  0.4828920000000  0.5398430000000 1.0
C      1  0.4832800000000  0.5685170000000  0.5798600000000 1.0
C      1  0.5985370000000  0.4423330000000  0.5251120000000 1.0
C      1  0.4839300000000  0.5302550000000  0.4932440000000 1.0
C      1  0.5791810000000  0.5515410000000  0.5424480000000 1.0
C      1  0.4043610000000  0.4889960000000  0.5556250000000 1.0
C      1  0.5462110000000  0.5055800000000  0.5944000000000 1.0
C      1  0.4684200000000  0.5219380000000  0.5381960000000 1.0
C      1  0.5072010000000  0.4504750000000  0.4379090000000 1.0
C      1  0.4172730000000  0.5460240000000  0.5306500000000 1.0
C      1  0.4650930000000  0.5730440000000  0.5249740000000 1.0
C      1  0.4047670000000  0.4411520000000  0.4312460000000 1.0
C      1  0.5316960000000  0.4907800000000  0.5253650000000 1.0
C      1  0.5522830000000  0.4078520000000  0.5292670000000 1.0
C      1  0.5392660000000  0.4183550000000  0.4559940000000 1.0
C      1  0.4648710000000  0.5673710000000  0.5561290000000 1.0
C      1  0.5523410000000  0.5412810000000  0.4204490000000 1.0
C      1  0.4778220000000  0.4778140000000  0.5983710000000 1.0
C      1  0.5792270000000  0.4611250000000  0.5364640000000 1.0
C      1  0.5238130000000  0.4008320000000  0.5262600000000 1.0
C      1  0.4193650000000  0.5039840000000  0.5226630000000 1.0
C      1  0.4434250000000  0.4152890000000  0.4720720000000 1.0
C      1  0.4878850000000  0.5140110000000  0.4469300000000 1.0
C      1  0.4114930000000  0.4605840000000  0.5580560000000 1.0
C      1  0.4513800000000  0.4887450000000  0.4700160000000 1.0
C      1  0.3983230000000  0.4845480000000  0.4406310000000 1.0
C      1  0.5926420000000  0.5425200000000  0.5172790000000 1.0
C      1  0.5596010000000  0.4875230000000  0.5765930000000 1.0
C      1  0.5002040000000  0.4365590000000  0.5360980000000 1.0
C      1  0.5504880000000  0.4585680000000  0.4950520000000 1.0
C      1  0.4803760000000  0.4507230000000  0.5883360000000 1.0
C      1  0.4835860000000  0.5627450000000  0.4303060000000 1.0
C      1  0.4906210000000  0.4041760000000  0.4872800000000 1.0
C      1  0.4515710000000  0.4922170000000  0.5570710000000 1.0
C      1  0.4415230000000  0.4878450000000  0.4179990000000 1.0
C      1  0.4598510000000  0.4705930000000  0.5338380000000 1.0
C      1  0.5356650000000  0.5438610000000  0.5222760000000 1.0
C      1  0.5571350000000  0.4182810000000  0.5571280000000 1.0
C      1  0.4946170000000  0.5070040000000  0.5551740000000 1.0
C      1  0.5870150000000  0.5447190000000  0.4654400000000 1.0
C      1  0.5912480000000  0.4527530000000  0.4796910000000 1.0
C      1  0.5725410000000  0.4967620000000  0.4567490000000 1.0
C      1  0.4802100000000  0.4565150000000  0.4511370000000 1.0
C      1  0.5026390000000  0.5297060000000  0.4690960000000 1.0
C      1  0.5800750000000  0.4500910000000  0.4524500000000 1.0
C      1  0.4368890000000  0.4532700000000  0.5680170000000 1.0
C      1  0.5146240000000  0.4131490000000  0.5014460000000 1.0
C      1  0.4382140000000  0.5617890000000  0.5163310000000 1.0
C      1  0.5162160000000  0.5294360000000  0.5590850000000 1.0
C      1  0.5005610000000  0.4966010000000  0.3986820000000 1.0
C      1  0.4718410000000  0.6021810000000  0.5110350000000 1.0
C      1  0.4596200000000  0.4656060000000  0.4101010000000 1.0
C      1  0.5512300000000  0.4660000000000  0.5235890000000 1.0
C      1  0.5663080000000  0.5275010000000  0.5579880000000 1.0
C      1  0.5279690000000  0.4648380000000  0.4548210000000 1.0
C      1  0.5093330000000  0.4092540000000  0.5507860000000 1.0
C      1  0.5547380000000  0.5327470000000  0.5859760000000 1.0
C      1  0.4734080000000  0.4998400000000  0.5777870000000 1.0
C      1  0.5305180000000  0.4184930000000  0.5715730000000 1.0
C      1  0.4289150000000  0.4421470000000  0.4716070000000 1.0
C      1  0.5383160000000  0.5149450000000  0.4250040000000 1.0
C      1  0.4394640000000  0.4591260000000  0.5150340000000 1.0
C      1  0.5867180000000  0.4341770000000  0.5016820000000 1.0
C      1  0.4304590000000  0.4506490000000  0.4430610000000 1.0
C      1  0.4753060000000  0.4448060000000  0.4812740000000 1.0
C      1  0.5283700000000  0.6086520000000  0.4811590000000 1.0
C      1  0.3868800000000  0.4572670000000  0.4476900000000 1.0
C      1  0.4246860000000  0.5057170000000  0.5658440000000 1.0
C      1  0.4621930000000  0.4109280000000  0.4957480000000 1.0
C      1  0.4821920000000  0.5937010000000  0.4348740000000 1.0
C      1  0.4435570000000  0.5814520000000  0.4520180000000 1.0
C      1  0.4578240000000  0.5618280000000  0.4684360000000 1.0
C      1  0.4867610000000  0.4720210000000  0.4059730000000 1.0
C      1  0.5929310000000  0.5117500000000  0.5142600000000 1.0
C      1  0.5513310000000  0.5894250000000  0.5190280000000 1.0
C      1  0.5956590000000  0.5163060000000  0.4632560000000 1.0
C      1  0.4832260000000  0.5444970000000  0.5973190000000 1.0
C      1  0.5763520000000  0.5533290000000  0.4931680000000 1.0
C      1  0.5045590000000  0.6032070000000  0.4641370000000 1.0
C      1  0.5541330000000  0.5945960000000  0.4729830000000 1.0
C      1  0.5174510000000  0.5046680000000  0.5979530000000 1.0
C      1  0.5661350000000  0.5085880000000  0.5041620000000 1.0
C      1  0.4123320000000  0.5276470000000  0.4557390000000 1.0
C      1  0.4389900000000  0.5151480000000  0.4119200000000 1.0
C      1  0.5079920000000  0.5693420000000  0.4988330000000 1.0
C      1  0.5557620000000  0.4594500000000  0.5792870000000 1.0
C      1  0.5023190000000  0.5470410000000  0.4106350000000 1.0
C      1  0.4890210000000  0.4097840000000  0.4583380000000 1.0
C      1  0.5041750000000  0.4814170000000  0.6100170000000 1.0
C      1  0.5822040000000  0.4753370000000  0.4376810000000 1.0
C      1  0.5387040000000  0.4226080000000  0.4859990000000 1.0
C      1  0.4892040000000  0.5537740000000  0.5155060000000 1.0
C      1  0.4289000000000  0.4808690000000  0.4433920000000 1.0
C      1  0.5276860000000  0.4480640000000  0.5786920000000 1.0
C      1  0.5722850000000  0.4444790000000  0.5612810000000 1.0
C      1  0.4730850000000  0.4236720000000  0.5465110000000 1.0
C      1  0.4614040000000  0.6032320000000  0.4550210000000 1.0
C      1  0.4132160000000  0.4744330000000  0.5160630000000 1.0
C      1  0.5629270000000  0.4172990000000  0.5030730000000 1.0
C      1  0.5218430000000  0.5948770000000  0.5071720000000 1.0
C      1  0.4601760000000  0.5340830000000  0.4529650000000 1.0
C      1  0.5062470000000  0.5862460000000  0.5809870000000 1.0
C      1  0.5490830000000  0.4475750000000  0.4141900000000 1.0
C      1  0.5690700000000  0.5837250000000  0.4961020000000 1.0
C      1  0.5523530000000  0.5651330000000  0.5359150000000 1.0
C      1  0.5491090000000  0.4955140000000  0.4042550000000 1.0
C      1  0.5399320000000  0.5204550000000  0.5413630000000 1.0
C      1  0.5054630000000  0.5551260000000  0.5438190000000 1.0
C      1  0.5508690000000  0.4443650000000  0.4448200000000 1.0
C      1  0.5301510000000  0.5170310000000  0.4769180000000 1.0
C      1  0.5227880000000  0.4666730000000  0.4850750000000 1.0
C      1  0.4990450000000  0.6110610000000  0.5204820000000 1.0
C      1  0.3861660000000  0.5015290000000  0.4862000000000 1.0
C      1  0.5928930000000  0.4896130000000  0.5386270000000 1.0
C      1  0.4630570000000  0.5264420000000  0.5869570000000 1.0
C      1  0.4487490000000  0.4603820000000  0.4860470000000 1.0
C      1  0.4578880000000  0.4431930000000  0.4320870000000 1.0
C      1  0.5015920000000  0.6071400000000  0.5483550000000 1.0
C      1  0.4544160000000  0.5392530000000  0.5601770000000 1.0
C      1  0.6080400000000  0.4755720000000  0.4850300000000 1.0
C      1  0.4366650000000  0.5562760000000  0.4886860000000 1.0
C      1  0.5161420000000  0.5828880000000  0.5540070000000 1.0
END
