TITL C-3577078-809-577 -2.97889529864545e-06 125000 -621.79620895675 0 0 103 (C1) n - 1
REM
REM in /home/bkarasulu/work/CARBON/AIRSS/Generating-Clusters/EDIP-Nigel-Params/with-SteepDescent/Higher-Symm/SD-CG/HFTN-CG
REM
REM
REM
REM
REM
REM ./C.cell (12c818d87b63d06a65506943cc24bca4)
REM
REM compiler GCC version 9.2.1 20190827 (Red Hat 9.2.1-1)
REM options -cpp -mtune=generic -march=x86-64 -g -O0 -fpre-include=/usr/include/finclude/math-vector-fortran.h
REM seed 352335607 -2064576612 1218296170 -1405697305 1578335288 4055505 885897011 1557852748 455278715 1052112418 -2019893545 329896572 -162175093 2025912285 1987567382 1966680138 768421583 500971561 410276339 -278319672 549919062 -523233191 623951705 1654355347 -1765295915 1421934291 -457229395 1911305807 36063429 213148544 -244443571 -1221027331 1860647280
REM
CELL 1.54180   50.00000   50.00000   50.00000   90.00000   90.00000   90.00000
LATT -1
SFAC C  
C      1  0.4772900000000  0.5030880000000  0.5506040000000 1.0
C      1  0.4883460000000  0.5303530000000  0.5476240000000 1.0
C      1  0.4697190000000  0.5383970000000  0.5246140000000 1.0
C      1  0.4879040000000  0.5351740000000  0.4951830000000 1.0
C      1  0.4871510000000  0.5342560000000  0.4613520000000 1.0
C      1  0.4772860000000  0.5066340000000  0.4509300000000 1.0
C      1  0.5092430000000  0.4666010000000  0.4560270000000 1.0
C      1  0.4814030000000  0.4648830000000  0.4715170000000 1.0
C      1  0.4871010000000  0.4501180000000  0.4978240000000 1.0
C      1  0.4740660000000  0.4608830000000  0.5226790000000 1.0
C      1  0.4880370000000  0.4756430000000  0.5450730000000 1.0
C      1  0.4819770000000  0.5791320000000  0.4914480000000 1.0
C      1  0.4831620000000  0.5672580000000  0.4397500000000 1.0
C      1  0.4793350000000  0.5283140000000  0.4127280000000 1.0
C      1  0.4772100000000  0.4731890000000  0.4214710000000 1.0
C      1  0.4748280000000  0.4270380000000  0.4435730000000 1.0
C      1  0.4802200000000  0.4205540000000  0.4946960000000 1.0
C      1  0.4851550000000  0.4184720000000  0.5425160000000 1.0
C      1  0.4833420000000  0.4577470000000  0.5697170000000 1.0
C      1  0.4837160000000  0.5009070000000  0.5941330000000 1.0
C      1  0.4884050000000  0.5480390000000  0.5814460000000 1.0
C      1  0.4856220000000  0.5762510000000  0.5412100000000 1.0
C      1  0.5239820000000  0.4743000000000  0.5918170000000 1.0
C      1  0.5287740000000  0.5216080000000  0.5913590000000 1.0
C      1  0.5295390000000  0.5689040000000  0.5639630000000 1.0
C      1  0.5250810000000  0.5913580000000  0.5130470000000 1.0
C      1  0.5249320000000  0.5793190000000  0.4701370000000 1.0
C      1  0.5283400000000  0.5466960000000  0.4238710000000 1.0
C      1  0.5171520000000  0.4948960000000  0.4044550000000 1.0
C      1  0.5180690000000  0.4418060000000  0.4277420000000 1.0
C      1  0.5204470000000  0.4189470000000  0.4653760000000 1.0
C      1  0.5288200000000  0.4136720000000  0.5153800000000 1.0
C      1  0.5279730000000  0.4301580000000  0.5640050000000 1.0
C      1  0.4335090000000  0.5010590000000  0.5477400000000 1.0
C      1  0.4447670000000  0.5178320000000  0.5240730000000 1.0
C      1  0.4304330000000  0.5362930000000  0.5061850000000 1.0
C      1  0.4463670000000  0.5453030000000  0.4830820000000 1.0
C      1  0.4380160000000  0.5416850000000  0.4559850000000 1.0
C      1  0.4288660000000  0.5145770000000  0.4498410000000 1.0
C      1  0.4286150000000  0.4756050000000  0.4515670000000 1.0
C      1  0.4324480000000  0.4506460000000  0.4692240000000 1.0
C      1  0.4356510000000  0.4492590000000  0.4981630000000 1.0
C      1  0.4202890000000  0.4624780000000  0.5178680000000 1.0
C      1  0.4286760000000  0.4710130000000  0.5439220000000 1.0
C      1  0.5534180000000  0.5186750000000  0.5795870000000 1.0
C      1  0.5534900000000  0.5569480000000  0.5579110000000 1.0
C      1  0.5507460000000  0.5837930000000  0.5233200000000 1.0
C      1  0.5518720000000  0.5700620000000  0.4629260000000 1.0
C      1  0.5518560000000  0.5490620000000  0.4414640000000 1.0
C      1  0.5423320000000  0.5024270000000  0.4138130000000 1.0
C      1  0.5417720000000  0.4561340000000  0.4283730000000 1.0
C      1  0.5470580000000  0.4272410000000  0.4722520000000 1.0
C      1  0.5532940000000  0.4235300000000  0.5011430000000 1.0
C      1  0.5530530000000  0.4359010000000  0.5543950000000 1.0
C      1  0.5482160000000  0.4750000000000  0.5788050000000 1.0
C      1  0.4919300000000  0.4152240000000  0.4660330000000 1.0
C      1  0.4992110000000  0.4098660000000  0.5170410000000 1.0
C      1  0.4995990000000  0.4318530000000  0.5644670000000 1.0
C      1  0.4956960000000  0.4744610000000  0.5922330000000 1.0
C      1  0.5007810000000  0.5246880000000  0.5938640000000 1.0
C      1  0.5012840000000  0.5682930000000  0.5647930000000 1.0
C      1  0.4968860000000  0.5852490000000  0.5158830000000 1.0
C      1  0.4963060000000  0.5770910000000  0.4661850000000 1.0
C      1  0.4994050000000  0.5497070000000  0.4215860000000 1.0
C      1  0.4886720000000  0.4984360000000  0.4085490000000 1.0
C      1  0.4894740000000  0.4451670000000  0.4232000000000 1.0
C      1  0.4615080000000  0.4360870000000  0.5347940000000 1.0
C      1  0.4485250000000  0.4525360000000  0.5578810000000 1.0
C      1  0.4545630000000  0.5027720000000  0.5687850000000 1.0
C      1  0.4577510000000  0.5708220000000  0.5417510000000 1.0
C      1  0.4407240000000  0.5701810000000  0.5191360000000 1.0
C      1  0.4536470000000  0.5715950000000  0.4926770000000 1.0
C      1  0.4575570000000  0.5508350000000  0.4360180000000 1.0
C      1  0.4512450000000  0.5073960000000  0.4317180000000 1.0
C      1  0.4475020000000  0.4779080000000  0.4254390000000 1.0
C      1  0.4599550000000  0.4509450000000  0.4553430000000 1.0
C      1  0.4506790000000  0.4260650000000  0.5076330000000 1.0
C      1  0.5675020000000  0.5615440000000  0.4854400000000 1.0
C      1  0.5625170000000  0.5239020000000  0.4517640000000 1.0
C      1  0.5568030000000  0.4993110000000  0.4377640000000 1.0
C      1  0.5577790000000  0.4707350000000  0.4460450000000 1.0
C      1  0.5549970000000  0.4584710000000  0.4744890000000 1.0
C      1  0.5662990000000  0.4490680000000  0.5103090000000 1.0
C      1  0.5677480000000  0.4553550000000  0.5395140000000 1.0
C      1  0.5610480000000  0.4819390000000  0.5539720000000 1.0
C      1  0.5660490000000  0.5127900000000  0.5544850000000 1.0
C      1  0.5650030000000  0.5397640000000  0.5379690000000 1.0
C      1  0.5672410000000  0.5612740000000  0.5142140000000 1.0
C      1  0.5269590000000  0.5035470000000  0.5355590000000 1.0
C      1  0.5158770000000  0.5290880000000  0.5382960000000 1.0
C      1  0.5261150000000  0.5536760000000  0.5237970000000 1.0
C      1  0.5158320000000  0.5508880000000  0.4950140000000 1.0
C      1  0.5358020000000  0.5324230000000  0.4788370000000 1.0
C      1  0.5166260000000  0.5255680000000  0.4541040000000 1.0
C      1  0.5134260000000  0.4951020000000  0.4434680000000 1.0
C      1  0.5266230000000  0.4669980000000  0.4807290000000 1.0
C      1  0.5164650000000  0.4476890000000  0.5009110000000 1.0
C      1  0.5256320000000  0.4566630000000  0.5262780000000 1.0
C      1  0.5163730000000  0.4781520000000  0.5407200000000 1.0
C      1  0.5214220000000  0.4933880000000  0.4925580000000 1.0
C      1  0.4935410000000  0.5049330000000  0.4941280000000 1.0
C      1  0.5436920000000  0.5101070000000  0.4952180000000 1.0
C      1  0.4737300000000  0.4922580000000  0.4766190000000 1.0
END
