TITL C-3578205-846-452 -5.49880466586615e-05 125000 -180.810913849374 0 0 31 (C1) n - 1
REM
REM in /home/bkarasulu/work/CARBON/AIRSS/Generating-Clusters/EDIP-Nigel-Params/with-SteepDescent/Higher-Symm/SD-CG/HFTN-CG
REM
REM
REM
REM
REM
REM ./C.cell (12c818d87b63d06a65506943cc24bca4)
REM
REM compiler GCC version 9.2.1 20190827 (Red Hat 9.2.1-1)
REM options -cpp -mtune=generic -march=x86-64 -g -O0 -fpre-include=/usr/include/finclude/math-vector-fortran.h
REM seed 1821988544 -1631106324 2141483456 -726551687 616791806 826494094 -1311067953 318819265 -876173470 513868827 1104706350 1508029456 753181120 1958782205 396277815 -329366503 1788224486 -125234251 1096184134 1696700027 -592270066 -264843978 -1978641154 753671231 -24591031 544605887 1903316972 -2106813424 -150572111 -1825932592 -1077790579 445108735 -605544090
REM
CELL 1.54180   50.00000   50.00000   50.00000   90.00000   90.00000   90.00000
LATT -1
SFAC C  
C      1  0.5045680000000  0.5854210000000  0.4398770000000 1.0
C      1  0.4735670000000  0.5421920000000  0.5401510000000 1.0
C      1  0.5132500000000  0.4634340000000  0.5471250000000 1.0
C      1  0.4875150000000  0.5234740000000  0.5706270000000 1.0
C      1  0.5080590000000  0.4785280000000  0.5699450000000 1.0
C      1  0.4950610000000  0.4651690000000  0.4308640000000 1.0
C      1  0.5291520000000  0.5878490000000  0.4506610000000 1.0
C      1  0.4709830000000  0.4546630000000  0.4201320000000 1.0
C      1  0.5395500000000  0.4591960000000  0.5387430000000 1.0
C      1  0.4907730000000  0.4374690000000  0.4264350000000 1.0
C      1  0.5100240000000  0.5718360000000  0.4641840000000 1.0
C      1  0.4649010000000  0.5387940000000  0.5662290000000 1.0
C      1  0.5221260000000  0.4726670000000  0.4702040000000 1.0
C      1  0.4575320000000  0.4996490000000  0.5223970000000 1.0
C      1  0.5284810000000  0.5332790000000  0.4866810000000 1.0
C      1  0.4629940000000  0.4846130000000  0.5578980000000 1.0
C      1  0.5292630000000  0.5166450000000  0.5087100000000 1.0
C      1  0.4872580000000  0.5029040000000  0.4588560000000 1.0
C      1  0.5296840000000  0.4550230000000  0.4917910000000 1.0
C      1  0.4742430000000  0.5328430000000  0.4928810000000 1.0
C      1  0.5469800000000  0.4953160000000  0.5085890000000 1.0
C      1  0.4857670000000  0.5293860000000  0.4674810000000 1.0
C      1  0.5020280000000  0.4565820000000  0.4997970000000 1.0
C      1  0.4674890000000  0.4738370000000  0.5311220000000 1.0
C      1  0.5472990000000  0.4674430000000  0.5127180000000 1.0
C      1  0.5120280000000  0.5429660000000  0.4661500000000 1.0
C      1  0.4853410000000  0.4948420000000  0.5727300000000 1.0
C      1  0.4772430000000  0.5216550000000  0.5190990000000 1.0
C      1  0.4957420000000  0.4690540000000  0.5247980000000 1.0
C      1  0.4971240000000  0.4770460000000  0.4569810000000 1.0
C      1  0.5044880000000  0.5123330000000  0.5207060000000 1.0
END
