TITL C-3578197-9521-476 -2.99920493199093e-06 125000 -460.203542779118 0 0 75 (C1) n - 1
REM
REM in /home/bkarasulu/work/CARBON/AIRSS/Generating-Clusters/EDIP-Nigel-Params/with-SteepDescent/Higher-Symm/SD-CG/HFTN-CG
REM
REM
REM
REM
REM
REM ./C.cell (12c818d87b63d06a65506943cc24bca4)
REM
REM compiler GCC version 9.2.1 20190827 (Red Hat 9.2.1-1)
REM options -cpp -mtune=generic -march=x86-64 -g -O0 -fpre-include=/usr/include/finclude/math-vector-fortran.h
REM seed 1001761035 1367931705 845910734 299455066 -1931995067 -536736276 -1326958931 -851212937 -87134679 -1980836691 642332835 -554849834 1134568906 -1520363993 -945750855 -1165461312 -66771679 -53256803 -2103357258 -1786453196 -1005438108 2136013995 1360755965 1899385323 1810104525 -279489445 -1314816174 1520565208 -1466656247 1110258428 -485959444 1699619856 458617341
REM
CELL 1.54180   50.00000   50.00000   50.00000   90.00000   90.00000   90.00000
LATT -1
SFAC C  
C      1  0.4760760000000  0.4453640000000  0.5161370000000 1.0
C      1  0.4731910000000  0.5115270000000  0.4449330000000 1.0
C      1  0.4715610000000  0.5484630000000  0.5431660000000 1.0
C      1  0.5723800000000  0.5273310000000  0.5040350000000 1.0
C      1  0.5738460000000  0.4790750000000  0.5138260000000 1.0
C      1  0.5719400000000  0.4957190000000  0.4674070000000 1.0
C      1  0.5234130000000  0.5744880000000  0.4953020000000 1.0
C      1  0.5194090000000  0.4677400000000  0.5693570000000 1.0
C      1  0.5181530000000  0.4554850000000  0.4305520000000 1.0
C      1  0.4279550000000  0.5172550000000  0.4707280000000 1.0
C      1  0.4260950000000  0.5233190000000  0.5320410000000 1.0
C      1  0.4288810000000  0.4567920000000  0.4987180000000 1.0
C      1  0.4553210000000  0.4727350000000  0.4666540000000 1.0
C      1  0.4536070000000  0.5459570000000  0.4933740000000 1.0
C      1  0.4495070000000  0.4815620000000  0.5412810000000 1.0
C      1  0.4705560000000  0.4802140000000  0.5647040000000 1.0
C      1  0.4720610000000  0.4510080000000  0.4515380000000 1.0
C      1  0.4753720000000  0.5667190000000  0.4849430000000 1.0
C      1  0.5391930000000  0.5590270000000  0.5154080000000 1.0
C      1  0.5390140000000  0.4549710000000  0.5501840000000 1.0
C      1  0.5359560000000  0.4774540000000  0.4245280000000 1.0
C      1  0.4893660000000  0.5345910000000  0.5639990000000 1.0
C      1  0.4942670000000  0.4328010000000  0.4957840000000 1.0
C      1  0.4920210000000  0.5349220000000  0.4466130000000 1.0
C      1  0.5235360000000  0.5606220000000  0.5399270000000 1.0
C      1  0.5235870000000  0.4358250000000  0.5332680000000 1.0
C      1  0.5201780000000  0.4996380000000  0.4327130000000 1.0
C      1  0.4485390000000  0.5415050000000  0.5244230000000 1.0
C      1  0.4487760000000  0.4570920000000  0.5211090000000 1.0
C      1  0.4470860000000  0.5002760000000  0.4547620000000 1.0
C      1  0.5376380000000  0.5167030000000  0.5643730000000 1.0
C      1  0.5418830000000  0.4340240000000  0.4775570000000 1.0
C      1  0.5384950000000  0.5472540000000  0.4521010000000 1.0
C      1  0.5051360000000  0.5025940000000  0.4739890000000 1.0
C      1  0.5022790000000  0.5282370000000  0.5195700000000 1.0
C      1  0.5025090000000  0.4801640000000  0.5238250000000 1.0
C      1  0.4924360000000  0.4923780000000  0.4336640000000 1.0
C      1  0.4948740000000  0.5647850000000  0.5310880000000 1.0
C      1  0.4952950000000  0.4448690000000  0.5390280000000 1.0
C      1  0.5741660000000  0.5071970000000  0.5245170000000 1.0
C      1  0.5807220000000  0.4730080000000  0.4850640000000 1.0
C      1  0.5791590000000  0.5234320000000  0.4761600000000 1.0
C      1  0.5649930000000  0.5416390000000  0.4599860000000 1.0
C      1  0.5621680000000  0.5113940000000  0.5503110000000 1.0
C      1  0.5673640000000  0.4484930000000  0.4780100000000 1.0
C      1  0.4101390000000  0.5052690000000  0.4904580000000 1.0
C      1  0.4059490000000  0.5217380000000  0.5125650000000 1.0
C      1  0.4113790000000  0.4782340000000  0.4963570000000 1.0
C      1  0.4886510000000  0.4638970000000  0.4294810000000 1.0
C      1  0.4948270000000  0.5776810000000  0.5045530000000 1.0
C      1  0.4910340000000  0.4583500000000  0.5650420000000 1.0
C      1  0.5232280000000  0.4326210000000  0.5036520000000 1.0
C      1  0.5196150000000  0.5276990000000  0.4404560000000 1.0
C      1  0.5188910000000  0.5391870000000  0.5591850000000 1.0
C      1  0.4383280000000  0.4497870000000  0.4726190000000 1.0
C      1  0.4314450000000  0.5451590000000  0.4742880000000 1.0
C      1  0.4280430000000  0.4999350000000  0.5479100000000 1.0
C      1  0.4873800000000  0.5044460000000  0.5320770000000 1.0
C      1  0.5004540000000  0.4764670000000  0.4926840000000 1.0
C      1  0.4972040000000  0.5287130000000  0.4897410000000 1.0
C      1  0.4940670000000  0.4401060000000  0.4680500000000 1.0
C      1  0.4922700000000  0.5609900000000  0.4608370000000 1.0
C      1  0.4887480000000  0.5048980000000  0.5707900000000 1.0
C      1  0.5461470000000  0.4688710000000  0.5146460000000 1.0
C      1  0.5417130000000  0.4973300000000  0.4710660000000 1.0
C      1  0.5321600000000  0.5214100000000  0.5207900000000 1.0
C      1  0.4683360000000  0.5197070000000  0.4879730000000 1.0
C      1  0.4613620000000  0.4999250000000  0.5186590000000 1.0
C      1  0.4698390000000  0.4818080000000  0.4919060000000 1.0
C      1  0.5369230000000  0.5232460000000  0.4889460000000 1.0
C      1  0.5303210000000  0.4883780000000  0.5317700000000 1.0
C      1  0.5321470000000  0.4723630000000  0.4866940000000 1.0
C      1  0.5205840000000  0.4421530000000  0.4569600000000 1.0
C      1  0.5212620000000  0.5674280000000  0.4660550000000 1.0
C      1  0.5175920000000  0.4965570000000  0.5731320000000 1.0
END
