TITL C-3577082-504-717 -1.44228907125881e-05 125000 -1212.72461465006 0 0 195 (C1) n - 1
REM
REM in /home/bkarasulu/work/CARBON/AIRSS/Generating-Clusters/EDIP-Nigel-Params/with-SteepDescent/Higher-Symm/SD-CG/HFTN-CG
REM
REM
REM
REM
REM
REM ./C.cell (12c818d87b63d06a65506943cc24bca4)
REM
REM compiler GCC version 9.2.1 20190827 (Red Hat 9.2.1-1)
REM options -cpp -mtune=generic -march=x86-64 -g -O0 -fpre-include=/usr/include/finclude/math-vector-fortran.h
REM seed 537484526 1733007159 -471121530 1494143865 350846327 2003573269 431790202 2124499460 -1287670593 946056941 -1152308588 2141712115 -937872171 -169228512 426439123 -1850646736 -1331149150 -463266091 1353338597 1503525197 1482850663 -233339945 -203957530 32656055 -873169929 -1669865435 188998875 1471846726 937925198 530408194 1682601860 646623965 324884627
REM
CELL 1.54180   50.00000   50.00000   50.00000   90.00000   90.00000   90.00000
LATT -1
SFAC C  
C      1  0.4484990000000  0.4175790000000  0.5275450000000 1.0
C      1  0.3947330000000  0.4842030000000  0.5384040000000 1.0
C      1  0.4158990000000  0.5767250000000  0.5377920000000 1.0
C      1  0.5115080000000  0.6010140000000  0.5381630000000 1.0
C      1  0.5961940000000  0.5637140000000  0.5389580000000 1.0
C      1  0.6046720000000  0.4669900000000  0.5422010000000 1.0
C      1  0.5345510000000  0.4108430000000  0.5471310000000 1.0
C      1  0.5739080000000  0.4232410000000  0.4724850000000 1.0
C      1  0.4860410000000  0.3956410000000  0.4605180000000 1.0
C      1  0.4077600000000  0.4446900000000  0.4667150000000 1.0
C      1  0.4062030000000  0.5352490000000  0.4692230000000 1.0
C      1  0.4702760000000  0.5954480000000  0.4670930000000 1.0
C      1  0.5603220000000  0.5867230000000  0.4676760000000 1.0
C      1  0.6039340000000  0.5087950000000  0.4710070000000 1.0
C      1  0.4118030000000  0.4438270000000  0.5564050000000 1.0
C      1  0.3991780000000  0.5335030000000  0.5546080000000 1.0
C      1  0.4688860000000  0.5890230000000  0.5540570000000 1.0
C      1  0.5522970000000  0.5788930000000  0.5508220000000 1.0
C      1  0.5975020000000  0.5118250000000  0.5541960000000 1.0
C      1  0.5703650000000  0.4368570000000  0.5569530000000 1.0
C      1  0.4876370000000  0.3999820000000  0.5471830000000 1.0
C      1  0.5486340000000  0.5480760000000  0.5948610000000 1.0
C      1  0.5650510000000  0.4990540000000  0.5988720000000 1.0
C      1  0.5341620000000  0.4623880000000  0.5936170000000 1.0
C      1  0.4832970000000  0.4330820000000  0.5890450000000 1.0
C      1  0.4439980000000  0.4736420000000  0.5773860000000 1.0
C      1  0.4386630000000  0.5286000000000  0.5822140000000 1.0
C      1  0.4939020000000  0.5598740000000  0.5977580000000 1.0
C      1  0.5142400000000  0.5793540000000  0.4674970000000 1.0
C      1  0.5687230000000  0.5399520000000  0.4692600000000 1.0
C      1  0.5745140000000  0.4704610000000  0.4706330000000 1.0
C      1  0.5260020000000  0.4208210000000  0.4673060000000 1.0
C      1  0.4540920000000  0.4294530000000  0.4684980000000 1.0
C      1  0.4201610000000  0.4898910000000  0.4738810000000 1.0
C      1  0.4447120000000  0.5573200000000  0.4693610000000 1.0
C      1  0.5617060000000  0.4279460000000  0.4252040000000 1.0
C      1  0.4749220000000  0.4047330000000  0.4156170000000 1.0
C      1  0.4087630000000  0.4625870000000  0.4213400000000 1.0
C      1  0.4144670000000  0.5412190000000  0.4206730000000 1.0
C      1  0.4828120000000  0.5933840000000  0.4199050000000 1.0
C      1  0.5568920000000  0.5706040000000  0.4221740000000 1.0
C      1  0.5920700000000  0.5010460000000  0.4253880000000 1.0
C      1  0.5474520000000  0.5327930000000  0.3938810000000 1.0
C      1  0.5615710000000  0.4821650000000  0.3942910000000 1.0
C      1  0.5275460000000  0.4430820000000  0.3953570000000 1.0
C      1  0.4746200000000  0.4482880000000  0.3987160000000 1.0
C      1  0.4343780000000  0.4963450000000  0.3972080000000 1.0
C      1  0.4537200000000  0.5431180000000  0.3922870000000 1.0
C      1  0.5033200000000  0.5610040000000  0.3920280000000 1.0
C      1  0.4647120000000  0.5992690000000  0.5268080000000 1.0
C      1  0.5584640000000  0.5888320000000  0.5243880000000 1.0
C      1  0.6089530000000  0.5132300000000  0.5274920000000 1.0
C      1  0.5776630000000  0.4246420000000  0.5311120000000 1.0
C      1  0.4873780000000  0.3866550000000  0.5208670000000 1.0
C      1  0.4031630000000  0.4383450000000  0.5277520000000 1.0
C      1  0.3923160000000  0.5357870000000  0.5256450000000 1.0
C      1  0.4909720000000  0.5347440000000  0.4839530000000 1.0
C      1  0.5221910000000  0.5308100000000  0.4840710000000 1.0
C      1  0.5349220000000  0.5013620000000  0.4859660000000 1.0
C      1  0.5194130000000  0.4707770000000  0.4858510000000 1.0
C      1  0.4855790000000  0.4586060000000  0.4786000000000 1.0
C      1  0.4597780000000  0.4749780000000  0.4861640000000 1.0
C      1  0.4644560000000  0.5022970000000  0.4947210000000 1.0
C      1  0.4208760000000  0.4457530000000  0.4400340000000 1.0
C      1  0.4176300000000  0.5263290000000  0.4442940000000 1.0
C      1  0.4691720000000  0.5819930000000  0.4413880000000 1.0
C      1  0.5491510000000  0.5883800000000  0.4413710000000 1.0
C      1  0.5991520000000  0.5187470000000  0.4446690000000 1.0
C      1  0.5783580000000  0.4335390000000  0.4459730000000 1.0
C      1  0.4946470000000  0.4066160000000  0.4353290000000 1.0
C      1  0.4083670000000  0.5754420000000  0.4940620000000 1.0
C      1  0.5015350000000  0.6147510000000  0.4962680000000 1.0
C      1  0.5971520000000  0.5705730000000  0.4923020000000 1.0
C      1  0.6143660000000  0.4707770000000  0.4963940000000 1.0
C      1  0.5470580000000  0.3953290000000  0.5018530000000 1.0
C      1  0.4502940000000  0.3878510000000  0.4891580000000 1.0
C      1  0.3825040000000  0.4740080000000  0.4964470000000 1.0
C      1  0.6023670000000  0.4795290000000  0.4718730000000 1.0
C      1  0.5502150000000  0.4060670000000  0.4743130000000 1.0
C      1  0.4576010000000  0.4006210000000  0.4652380000000 1.0
C      1  0.3971880000000  0.4719060000000  0.4722190000000 1.0
C      1  0.4161820000000  0.5625240000000  0.4702090000000 1.0
C      1  0.4980590000000  0.6035380000000  0.4703190000000 1.0
C      1  0.5812060000000  0.5664730000000  0.4687580000000 1.0
C      1  0.5611130000000  0.5049750000000  0.5046890000000 1.0
C      1  0.5408690000000  0.4514430000000  0.5032520000000 1.0
C      1  0.4886070000000  0.4323410000000  0.4958050000000 1.0
C      1  0.4379770000000  0.4618600000000  0.5026300000000 1.0
C      1  0.4420790000000  0.5183910000000  0.5101840000000 1.0
C      1  0.4808150000000  0.5578020000000  0.5037930000000 1.0
C      1  0.5354160000000  0.5516220000000  0.5034870000000 1.0
C      1  0.4218030000000  0.5134620000000  0.5626250000000 1.0
C      1  0.4624470000000  0.5599910000000  0.5562050000000 1.0
C      1  0.5259400000000  0.5635560000000  0.5548040000000 1.0
C      1  0.5703900000000  0.5247330000000  0.5563200000000 1.0
C      1  0.5623120000000  0.4661040000000  0.5524780000000 1.0
C      1  0.5071830000000  0.4234220000000  0.5452130000000 1.0
C      1  0.4417200000000  0.4493260000000  0.5603150000000 1.0
C      1  0.5725000000000  0.5465530000000  0.5783090000000 1.0
C      1  0.5800070000000  0.4777670000000  0.5849230000000 1.0
C      1  0.5328720000000  0.4343610000000  0.5896010000000 1.0
C      1  0.4565420000000  0.4269900000000  0.5754280000000 1.0
C      1  0.4179370000000  0.4874190000000  0.5779520000000 1.0
C      1  0.4377640000000  0.5559760000000  0.5734470000000 1.0
C      1  0.5086140000000  0.5802760000000  0.5838340000000 1.0
C      1  0.5258930000000  0.4863600000000  0.5266400000000 1.0
C      1  0.5031330000000  0.4684940000000  0.5266360000000 1.0
C      1  0.4750910000000  0.4756850000000  0.5276450000000 1.0
C      1  0.4666980000000  0.4991310000000  0.5450600000000 1.0
C      1  0.4795410000000  0.5242000000000  0.5355360000000 1.0
C      1  0.5063210000000  0.5315170000000  0.5314290000000 1.0
C      1  0.5279890000000  0.5138340000000  0.5350590000000 1.0
C      1  0.5049590000000  0.4616360000000  0.4452750000000 1.0
C      1  0.4721020000000  0.4731960000000  0.4390920000000 1.0
C      1  0.4631980000000  0.5014990000000  0.4509050000000 1.0
C      1  0.4779850000000  0.5296390000000  0.4436840000000 1.0
C      1  0.5089950000000  0.5344860000000  0.4443380000000 1.0
C      1  0.5322820000000  0.5130100000000  0.4454350000000 1.0
C      1  0.5312540000000  0.4814200000000  0.4467990000000 1.0
C      1  0.5502060000000  0.5086890000000  0.5745310000000 1.0
C      1  0.5374360000000  0.4793050000000  0.5689470000000 1.0
C      1  0.5024690000000  0.4440310000000  0.5690140000000 1.0
C      1  0.4867930000000  0.4743860000000  0.5669430000000 1.0
C      1  0.4664840000000  0.5214890000000  0.5829310000000 1.0
C      1  0.4833340000000  0.5443120000000  0.5747910000000 1.0
C      1  0.5199300000000  0.5339350000000  0.5731880000000 1.0
C      1  0.5601070000000  0.4671260000000  0.4433190000000 1.0
C      1  0.5150310000000  0.4290240000000  0.4402270000000 1.0
C      1  0.4513450000000  0.4442290000000  0.4419020000000 1.0
C      1  0.4308690000000  0.5001960000000  0.4471280000000 1.0
C      1  0.4577970000000  0.5543480000000  0.4418640000000 1.0
C      1  0.5185160000000  0.5649720000000  0.4403410000000 1.0
C      1  0.5613540000000  0.5258590000000  0.4423470000000 1.0
C      1  0.4851960000000  0.4570900000000  0.6076610000000 1.0
C      1  0.4649420000000  0.4774680000000  0.5995020000000 1.0
C      1  0.4761700000000  0.5043840000000  0.6032270000000 1.0
C      1  0.5085500000000  0.5429670000000  0.6147630000000 1.0
C      1  0.5342550000000  0.5319010000000  0.6144980000000 1.0
C      1  0.5403150000000  0.5020040000000  0.6168690000000 1.0
C      1  0.5132330000000  0.4738960000000  0.6115630000000 1.0
C      1  0.4216470000000  0.4204970000000  0.5124000000000 1.0
C      1  0.3914410000000  0.5094390000000  0.5100240000000 1.0
C      1  0.4415320000000  0.5875280000000  0.5108490000000 1.0
C      1  0.5355000000000  0.6008370000000  0.5081750000000 1.0
C      1  0.5991480000000  0.5368760000000  0.5113530000000 1.0
C      1  0.5903320000000  0.4452640000000  0.5133960000000 1.0
C      1  0.5110260000000  0.3895200000000  0.5029420000000 1.0
C      1  0.5532580000000  0.5263490000000  0.5265650000000 1.0
C      1  0.5519810000000  0.4731500000000  0.5228310000000 1.0
C      1  0.5078650000000  0.4405460000000  0.5185280000000 1.0
C      1  0.4542530000000  0.4524430000000  0.5283940000000 1.0
C      1  0.4382360000000  0.5049020000000  0.5378560000000 1.0
C      1  0.4617130000000  0.5450250000000  0.5253170000000 1.0
C      1  0.5129770000000  0.5596260000000  0.5242820000000 1.0
C      1  0.5833530000000  0.5220120000000  0.4888810000000 1.0
C      1  0.5699710000000  0.4474850000000  0.4897900000000 1.0
C      1  0.5029200000000  0.4090550000000  0.4814590000000 1.0
C      1  0.4298940000000  0.4369540000000  0.4866230000000 1.0
C      1  0.4149250000000  0.5145050000000  0.4911070000000 1.0
C      1  0.4597010000000  0.5755800000000  0.4878710000000 1.0
C      1  0.5375130000000  0.5791600000000  0.4862630000000 1.0
C      1  0.3990630000000  0.4703320000000  0.5632150000000 1.0
C      1  0.4116360000000  0.5606600000000  0.5613610000000 1.0
C      1  0.4965300000000  0.5953980000000  0.5621380000000 1.0
C      1  0.5776110000000  0.5683980000000  0.5606750000000 1.0
C      1  0.5996910000000  0.4845240000000  0.5647100000000 1.0
C      1  0.5494770000000  0.4206200000000  0.5702320000000 1.0
C      1  0.4592470000000  0.4067820000000  0.5542180000000 1.0
C      1  0.5050020000000  0.5769770000000  0.4159190000000 1.0
C      1  0.5596130000000  0.5435060000000  0.4179810000000 1.0
C      1  0.5740740000000  0.4809450000000  0.4202900000000 1.0
C      1  0.5351290000000  0.4271300000000  0.4182080000000 1.0
C      1  0.4617440000000  0.4293730000000  0.4166140000000 1.0
C      1  0.4237290000000  0.4859250000000  0.4216220000000 1.0
C      1  0.4395830000000  0.5530220000000  0.4165700000000 1.0
C      1  0.4566590000000  0.5143120000000  0.3932900000000 1.0
C      1  0.4770460000000  0.5564660000000  0.3840690000000 1.0
C      1  0.5256500000000  0.5466190000000  0.3836290000000 1.0
C      1  0.5548970000000  0.5074920000000  0.3850940000000 1.0
C      1  0.5478300000000  0.4595700000000  0.3860300000000 1.0
C      1  0.5034070000000  0.4574640000000  0.4011170000000 1.0
C      1  0.4640810000000  0.4743460000000  0.4090160000000 1.0
C      1  0.4659920000000  0.4032790000000  0.5082300000000 1.0
C      1  0.4020970000000  0.4668890000000  0.5164720000000 1.0
C      1  0.4079310000000  0.5595830000000  0.5171600000000 1.0
C      1  0.4926170000000  0.5980810000000  0.5174020000000 1.0
C      1  0.5853710000000  0.5783220000000  0.5172750000000 1.0
C      1  0.6082690000000  0.4847150000000  0.5204440000000 1.0
C      1  0.5514750000000  0.4139890000000  0.5236680000000 1.0
C      1  0.4954490000000  0.5030440000000  0.5000930000000 1.0
C      1  0.4976040000000  0.4987250000000  0.4658420000000 1.0
C      1  0.4803050000000  0.5019300000000  0.3836020000000 1.0
C      1  0.5056350000000  0.5020300000000  0.5997440000000 1.0
C      1  0.5090040000000  0.4956490000000  0.5701610000000 1.0
C      1  0.5000600000000  0.4838770000000  0.3907540000000 1.0
END
