TITL C-3577090-796-225 2.84570111703432e-06 125000 -778.468314783143 0 0 124 (C1) n - 1
REM
REM in /home/bkarasulu/work/CARBON/AIRSS/Generating-Clusters/EDIP-Nigel-Params/with-SteepDescent/Higher-Symm/SD-CG/HFTN-CG
REM
REM
REM
REM
REM
REM ./C.cell (12c818d87b63d06a65506943cc24bca4)
REM
REM compiler GCC version 9.2.1 20190827 (Red Hat 9.2.1-1)
REM options -cpp -mtune=generic -march=x86-64 -g -O0 -fpre-include=/usr/include/finclude/math-vector-fortran.h
REM seed 195270883 -1296753545 -1790031388 -546188805 -775600992 -2104943764 -2056490143 -1644202070 120658340 1214435210 1971334414 -2062349035 -1651216185 1574542023 -1413590143 -1159140694 -1930970567 153744867 -859010199 1749982683 -1539491920 928126303 -719913466 -852126647 1260288458 1201827888 243229674 858540377 1449719332 -1609328197 -1429619305 77047887 -379532047
REM
CELL 1.54180   50.00000   50.00000   50.00000   90.00000   90.00000   90.00000
LATT -1
SFAC C  
C      1  0.4940960000000  0.5382080000000  0.3977040000000 1.0
C      1  0.5275950000000  0.5054960000000  0.3908180000000 1.0
C      1  0.4967130000000  0.4690550000000  0.3930390000000 1.0
C      1  0.4627510000000  0.5014000000000  0.3980490000000 1.0
C      1  0.5198190000000  0.5293040000000  0.4030020000000 1.0
C      1  0.4696130000000  0.5274480000000  0.4053180000000 1.0
C      1  0.4717300000000  0.4755640000000  0.4030660000000 1.0
C      1  0.5225010000000  0.4787080000000  0.3964420000000 1.0
C      1  0.4461820000000  0.5128550000000  0.4459820000000 1.0
C      1  0.5158960000000  0.5507550000000  0.4508660000000 1.0
C      1  0.5589300000000  0.4877460000000  0.4287800000000 1.0
C      1  0.4802360000000  0.4412560000000  0.4387040000000 1.0
C      1  0.5508690000000  0.5162740000000  0.4415930000000 1.0
C      1  0.4800660000000  0.5486870000000  0.4509720000000 1.0
C      1  0.4426300000000  0.4766830000000  0.4430450000000 1.0
C      1  0.5170980000000  0.4492500000000  0.4387050000000 1.0
C      1  0.4979340000000  0.5504410000000  0.5408010000000 1.0
C      1  0.5256130000000  0.5076560000000  0.5480270000000 1.0
C      1  0.5200500000000  0.4640960000000  0.5416340000000 1.0
C      1  0.4737290000000  0.4884700000000  0.5283040000000 1.0
C      1  0.5115080000000  0.5262410000000  0.5282630000000 1.0
C      1  0.4887260000000  0.5118890000000  0.5168010000000 1.0
C      1  0.4893290000000  0.4628200000000  0.5291670000000 1.0
C      1  0.5415290000000  0.4847000000000  0.5395950000000 1.0
C      1  0.4238630000000  0.4635560000000  0.4619910000000 1.0
C      1  0.4683000000000  0.5715120000000  0.4646990000000 1.0
C      1  0.5743020000000  0.5321900000000  0.4533430000000 1.0
C      1  0.5314710000000  0.4267750000000  0.4537880000000 1.0
C      1  0.5759850000000  0.4736060000000  0.4489300000000 1.0
C      1  0.5278720000000  0.5774590000000  0.4601040000000 1.0
C      1  0.4230260000000  0.5245360000000  0.4619030000000 1.0
C      1  0.4707680000000  0.4197080000000  0.4574530000000 1.0
C      1  0.4192770000000  0.5268530000000  0.5197830000000 1.0
C      1  0.5399960000000  0.5646510000000  0.5182150000000 1.0
C      1  0.5509490000000  0.4881810000000  0.5118080000000 1.0
C      1  0.4837490000000  0.4182890000000  0.5140980000000 1.0
C      1  0.5802530000000  0.5293220000000  0.5183060000000 1.0
C      1  0.4721660000000  0.5580450000000  0.5264690000000 1.0
C      1  0.4267650000000  0.4673820000000  0.5185070000000 1.0
C      1  0.5363910000000  0.4289390000000  0.5244390000000 1.0
C      1  0.4024870000000  0.5081830000000  0.4747300000000 1.0
C      1  0.5119810000000  0.5914540000000  0.4806090000000 1.0
C      1  0.5964470000000  0.4883310000000  0.4653250000000 1.0
C      1  0.4905920000000  0.4008200000000  0.4687390000000 1.0
C      1  0.5972450000000  0.5176340000000  0.4647040000000 1.0
C      1  0.4865360000000  0.5792250000000  0.4856980000000 1.0
C      1  0.4043700000000  0.4793560000000  0.4763310000000 1.0
C      1  0.5174460000000  0.4107350000000  0.4735790000000 1.0
C      1  0.3941140000000  0.4645510000000  0.4986360000000 1.0
C      1  0.4715630000000  0.5838050000000  0.5101230000000 1.0
C      1  0.6062860000000  0.5294070000000  0.4897630000000 1.0
C      1  0.5333170000000  0.4028500000000  0.4963570000000 1.0
C      1  0.5985750000000  0.4785520000000  0.4921350000000 1.0
C      1  0.5283740000000  0.5977290000000  0.5033110000000 1.0
C      1  0.3896600000000  0.5232470000000  0.4957650000000 1.0
C      1  0.4782000000000  0.3878410000000  0.4915220000000 1.0
C      1  0.5330300000000  0.5085650000000  0.4638470000000 1.0
C      1  0.5076620000000  0.4681200000000  0.4594180000000 1.0
C      1  0.4611540000000  0.4791230000000  0.4776100000000 1.0
C      1  0.4833550000000  0.5282050000000  0.4756720000000 1.0
C      1  0.4692470000000  0.5046550000000  0.4638220000000 1.0
C      1  0.4830290000000  0.4574360000000  0.4744500000000 1.0
C      1  0.5311840000000  0.4801170000000  0.4710440000000 1.0
C      1  0.5169690000000  0.5305270000000  0.4761370000000 1.0
C      1  0.5884660000000  0.5514120000000  0.4964080000000 1.0
C      1  0.5569010000000  0.4181770000000  0.4934250000000 1.0
C      1  0.4088950000000  0.4399240000000  0.4989330000000 1.0
C      1  0.4441770000000  0.5870340000000  0.5015640000000 1.0
C      1  0.4008990000000  0.5496890000000  0.4952160000000 1.0
C      1  0.4536110000000  0.4014250000000  0.4972450000000 1.0
C      1  0.5722400000000  0.4703520000000  0.4977520000000 1.0
C      1  0.5552140000000  0.5917250000000  0.4960790000000 1.0
C      1  0.4924360000000  0.5439360000000  0.5696380000000 1.0
C      1  0.5362480000000  0.5151170000000  0.5739470000000 1.0
C      1  0.5134270000000  0.4653250000000  0.5721160000000 1.0
C      1  0.4660260000000  0.4909990000000  0.5594090000000 1.0
C      1  0.5211000000000  0.5400910000000  0.5815180000000 1.0
C      1  0.4696310000000  0.5211330000000  0.5685970000000 1.0
C      1  0.4829520000000  0.4676620000000  0.5725640000000 1.0
C      1  0.5300210000000  0.4879030000000  0.5876210000000 1.0
C      1  0.5666570000000  0.5203840000000  0.5694570000000 1.0
C      1  0.5226630000000  0.4363090000000  0.5756890000000 1.0
C      1  0.4365380000000  0.4827300000000  0.5629340000000 1.0
C      1  0.4801230000000  0.5686160000000  0.5828660000000 1.0
C      1  0.4447200000000  0.5375390000000  0.5620350000000 1.0
C      1  0.4736590000000  0.4412290000000  0.5581800000000 1.0
C      1  0.5520250000000  0.4786240000000  0.6039490000000 1.0
C      1  0.5367250000000  0.5645520000000  0.5721610000000 1.0
C      1  0.5556140000000  0.5775500000000  0.4708350000000 1.0
C      1  0.5588950000000  0.4633100000000  0.4710710000000 1.0
C      1  0.4489280000000  0.4205700000000  0.4765330000000 1.0
C      1  0.4210010000000  0.5512640000000  0.4743410000000 1.0
C      1  0.4433930000000  0.5692840000000  0.4793720000000 1.0
C      1  0.4265900000000  0.4385720000000  0.4765050000000 1.0
C      1  0.5554700000000  0.4337090000000  0.4688870000000 1.0
C      1  0.5687860000000  0.5520720000000  0.4742880000000 1.0
C      1  0.5267770000000  0.4780620000000  0.4985810000000 1.0
C      1  0.4916500000000  0.4455860000000  0.5030830000000 1.0
C      1  0.4437770000000  0.5155500000000  0.5074670000000 1.0
C      1  0.5310810000000  0.5361620000000  0.5064020000000 1.0
C      1  0.4499950000000  0.4859160000000  0.5077740000000 1.0
C      1  0.5216280000000  0.4489560000000  0.5044550000000 1.0
C      1  0.5550450000000  0.5175720000000  0.5073080000000 1.0
C      1  0.4693720000000  0.5315220000000  0.5058610000000 1.0
C      1  0.5736310000000  0.5399950000000  0.5474990000000 1.0
C      1  0.5456570000000  0.4313910000000  0.5907110000000 1.0
C      1  0.4291500000000  0.4596580000000  0.5471480000000 1.0
C      1  0.4602930000000  0.5817940000000  0.5673950000000 1.0
C      1  0.4506520000000  0.5627540000000  0.5479770000000 1.0
C      1  0.4461070000000  0.4387050000000  0.5528760000000 1.0
C      1  0.5553450000000  0.4512300000000  0.6058390000000 1.0
C      1  0.5526980000000  0.5611460000000  0.5462080000000 1.0
C      1  0.4900650000000  0.4199320000000  0.5435280000000 1.0
C      1  0.4200470000000  0.5257570000000  0.5502780000000 1.0
C      1  0.5213310000000  0.5879340000000  0.5734910000000 1.0
C      1  0.5737840000000  0.4957160000000  0.6056460000000 1.0
C      1  0.5189740000000  0.4209180000000  0.5499280000000 1.0
C      1  0.5845790000000  0.5150730000000  0.5904080000000 1.0
C      1  0.4953980000000  0.5924420000000  0.5808000000000 1.0
C      1  0.4159250000000  0.5012930000000  0.5623540000000 1.0
C      1  0.4609900000000  0.5345960000000  0.4317640000000 1.0
C      1  0.5315050000000  0.5358380000000  0.4287490000000 1.0
C      1  0.5359480000000  0.4688860000000  0.4200370000000 1.0
C      1  0.4614660000000  0.4609200000000  0.4259840000000 1.0
END
