TITL C-3578208-4450-198 -2.90660179646261e-06 125000 -929.937838810104 0 0 147 (C1) n - 1
REM
REM in /home/bkarasulu/work/CARBON/AIRSS/Generating-Clusters/EDIP-Nigel-Params/with-SteepDescent/Higher-Symm/SD-CG/HFTN-CG
REM
REM
REM
REM
REM
REM ./C.cell (12c818d87b63d06a65506943cc24bca4)
REM
REM compiler GCC version 9.2.1 20190827 (Red Hat 9.2.1-1)
REM options -cpp -mtune=generic -march=x86-64 -g -O0 -fpre-include=/usr/include/finclude/math-vector-fortran.h
REM seed -1913589009 1388802085 -1317784873 2077439306 -768619176 1454481214 1461025291 -1137398083 540054551 864492879 1554913902 122664827 476632150 -1565069277 -61334375 794750854 -507302912 210569811 -2086554677 -684592180 -1311931752 178269019 707958542 -1242805670 -1108058893 -1526463872 1297238951 -260322800 2111139942 1397875668 1665797798 -1504081153 360168680
REM
CELL 1.54180   50.00000   50.00000   50.00000   90.00000   90.00000   90.00000
LATT -1
SFAC C  
C      1  0.5169180000000  0.4858650000000  0.5704030000000 1.0
C      1  0.5668840000000  0.4999900000000  0.4836960000000 1.0
C      1  0.4842510000000  0.5037410000000  0.4315930000000 1.0
C      1  0.4358790000000  0.4905760000000  0.5161380000000 1.0
C      1  0.5151470000000  0.5013630000000  0.4347300000000 1.0
C      1  0.5688560000000  0.4971520000000  0.5146480000000 1.0
C      1  0.4830050000000  0.5062080000000  0.5711550000000 1.0
C      1  0.4254280000000  0.5181660000000  0.4758900000000 1.0
C      1  0.4712390000000  0.5225610000000  0.5159520000000 1.0
C      1  0.5163710000000  0.5112280000000  0.5258740000000 1.0
C      1  0.5249030000000  0.5304510000000  0.4844110000000 1.0
C      1  0.4844690000000  0.5460840000000  0.4689890000000 1.0
C      1  0.4631720000000  0.4887830000000  0.4891650000000 1.0
C      1  0.5119160000000  0.4729870000000  0.4773150000000 1.0
C      1  0.5305030000000  0.4541580000000  0.5152110000000 1.0
C      1  0.4835920000000  0.4764900000000  0.5315830000000 1.0
C      1  0.5277300000000  0.5765970000000  0.4804890000000 1.0
C      1  0.4923920000000  0.5915030000000  0.4578030000000 1.0
C      1  0.4635010000000  0.5710770000000  0.5090740000000 1.0
C      1  0.5078000000000  0.5587460000000  0.5244740000000 1.0
C      1  0.5411710000000  0.4117250000000  0.5085740000000 1.0
C      1  0.4893830000000  0.4287600000000  0.5369080000000 1.0
C      1  0.4740950000000  0.4416370000000  0.4929810000000 1.0
C      1  0.5182420000000  0.4254090000000  0.4728360000000 1.0
C      1  0.4616600000000  0.4314790000000  0.4451290000000 1.0
C      1  0.4406820000000  0.4238780000000  0.5490800000000 1.0
C      1  0.5478550000000  0.4181150000000  0.5625650000000 1.0
C      1  0.5640490000000  0.4303790000000  0.4534970000000 1.0
C      1  0.4514150000000  0.5752940000000  0.5586070000000 1.0
C      1  0.4376410000000  0.5847200000000  0.4508590000000 1.0
C      1  0.5466990000000  0.5708510000000  0.4347760000000 1.0
C      1  0.5549080000000  0.5687460000000  0.5378900000000 1.0
C      1  0.5687260000000  0.4194180000000  0.5171050000000 1.0
C      1  0.5183120000000  0.4298910000000  0.4426360000000 1.0
C      1  0.4453240000000  0.4327990000000  0.4862480000000 1.0
C      1  0.4836940000000  0.4266120000000  0.5660340000000 1.0
C      1  0.5582150000000  0.5716960000000  0.4801570000000 1.0
C      1  0.5137550000000  0.5665950000000  0.5538970000000 1.0
C      1  0.4345320000000  0.5731270000000  0.5152370000000 1.0
C      1  0.4834520000000  0.5829060000000  0.4305860000000 1.0
C      1  0.4600670000000  0.5263930000000  0.5718560000000 1.0
C      1  0.5686440000000  0.5202810000000  0.5331430000000 1.0
C      1  0.5336570000000  0.5239690000000  0.4279330000000 1.0
C      1  0.4187810000000  0.5361480000000  0.4538170000000 1.0
C      1  0.4658850000000  0.4806340000000  0.4310970000000 1.0
C      1  0.5711780000000  0.4769250000000  0.4654820000000 1.0
C      1  0.5402230000000  0.4678970000000  0.5782780000000 1.0
C      1  0.4291660000000  0.4730950000000  0.5397090000000 1.0
C      1  0.4786810000000  0.4043830000000  0.5257090000000 1.0
C      1  0.5265600000000  0.3909060000000  0.5234620000000 1.0
C      1  0.5383600000000  0.4050850000000  0.4794540000000 1.0
C      1  0.4907180000000  0.4163250000000  0.4845170000000 1.0
C      1  0.4773810000000  0.6109410000000  0.4737120000000 1.0
C      1  0.5216000000000  0.5972870000000  0.4604930000000 1.0
C      1  0.5159870000000  0.5848340000000  0.5086340000000 1.0
C      1  0.4743490000000  0.5953580000000  0.5204650000000 1.0
C      1  0.4639330000000  0.5983920000000  0.5468310000000 1.0
C      1  0.5399740000000  0.5900630000000  0.5251820000000 1.0
C      1  0.5381140000000  0.5974050000000  0.4378740000000 1.0
C      1  0.4502560000000  0.6047380000000  0.4673320000000 1.0
C      1  0.4745900000000  0.4106050000000  0.4604270000000 1.0
C      1  0.5607270000000  0.4040250000000  0.4626370000000 1.0
C      1  0.5333560000000  0.3963550000000  0.5506360000000 1.0
C      1  0.4524160000000  0.4007420000000  0.5364450000000 1.0
C      1  0.5630280000000  0.5157650000000  0.4319830000000 1.0
C      1  0.4314740000000  0.5226670000000  0.4303000000000 1.0
C      1  0.4305410000000  0.5160030000000  0.5706140000000 1.0
C      1  0.5644670000000  0.5123660000000  0.5618770000000 1.0
C      1  0.5662920000000  0.4793830000000  0.5685340000000 1.0
C      1  0.4273570000000  0.4853180000000  0.5679160000000 1.0
C      1  0.4373630000000  0.4884030000000  0.4343430000000 1.0
C      1  0.5664860000000  0.4849940000000  0.4365060000000 1.0
C      1  0.6053710000000  0.4489190000000  0.5064850000000 1.0
C      1  0.5040890000000  0.4553460000000  0.4031890000000 1.0
C      1  0.4041320000000  0.4543740000000  0.4950340000000 1.0
C      1  0.4943490000000  0.4509310000000  0.6054190000000 1.0
C      1  0.5985680000000  0.5470780000000  0.4940940000000 1.0
C      1  0.5042510000000  0.5454660000000  0.5958840000000 1.0
C      1  0.3975670000000  0.5462980000000  0.5052590000000 1.0
C      1  0.4933460000000  0.5528470000000  0.3938570000000 1.0
C      1  0.5301470000000  0.4512860000000  0.4857080000000 1.0
C      1  0.4820770000000  0.4660510000000  0.4756370000000 1.0
C      1  0.4725760000000  0.4500050000000  0.5229320000000 1.0
C      1  0.5198270000000  0.4332050000000  0.5330530000000 1.0
C      1  0.5264960000000  0.5359440000000  0.5137810000000 1.0
C      1  0.4779840000000  0.5496230000000  0.5260620000000 1.0
C      1  0.4672590000000  0.5684140000000  0.4782450000000 1.0
C      1  0.5140670000000  0.5512440000000  0.4674700000000 1.0
C      1  0.5736350000000  0.4609150000000  0.5438250000000 1.0
C      1  0.5426440000000  0.4682170000000  0.4268410000000 1.0
C      1  0.4281630000000  0.4687790000000  0.4561660000000 1.0
C      1  0.4565260000000  0.4653880000000  0.5772780000000 1.0
C      1  0.5739880000000  0.5327480000000  0.4556680000000 1.0
C      1  0.5426390000000  0.5310080000000  0.5716650000000 1.0
C      1  0.4261520000000  0.5322900000000  0.5422310000000 1.0
C      1  0.4565820000000  0.5406870000000  0.4258820000000 1.0
C      1  0.5499420000000  0.4744720000000  0.5276630000000 1.0
C      1  0.5286710000000  0.4876350000000  0.4578130000000 1.0
C      1  0.4508000000000  0.5054820000000  0.4664830000000 1.0
C      1  0.4685200000000  0.4863450000000  0.5547190000000 1.0
C      1  0.5431610000000  0.5128530000000  0.4699110000000 1.0
C      1  0.5332740000000  0.4966190000000  0.5453820000000 1.0
C      1  0.4496970000000  0.5116890000000  0.5315600000000 1.0
C      1  0.4709660000000  0.5258390000000  0.4502890000000 1.0
C      1  0.4743260000000  0.4704230000000  0.6018590000000 1.0
C      1  0.5994450000000  0.4671900000000  0.5269430000000 1.0
C      1  0.5247850000000  0.4744350000000  0.4018020000000 1.0
C      1  0.4057710000000  0.4731020000000  0.4739040000000 1.0
C      1  0.4735470000000  0.5342410000000  0.4007090000000 1.0
C      1  0.5993810000000  0.5271920000000  0.4741300000000 1.0
C      1  0.5255230000000  0.5268720000000  0.5949680000000 1.0
C      1  0.4023850000000  0.5261750000000  0.5246070000000 1.0
C      1  0.5620710000000  0.4501050000000  0.4757610000000 1.0
C      1  0.4768990000000  0.4572400000000  0.4454380000000 1.0
C      1  0.4412440000000  0.4470430000000  0.5304310000000 1.0
C      1  0.5292980000000  0.4411010000000  0.5695160000000 1.0
C      1  0.5557890000000  0.5441270000000  0.5212280000000 1.0
C      1  0.4698250000000  0.5519290000000  0.5581580000000 1.0
C      1  0.4300410000000  0.5613500000000  0.4680600000000 1.0
C      1  0.5240490000000  0.5516020000000  0.4365670000000 1.0
C      1  0.5042130000000  0.4349170000000  0.5846060000000 1.0
C      1  0.5801960000000  0.4391650000000  0.4986140000000 1.0
C      1  0.5017910000000  0.4504090000000  0.4309850000000 1.0
C      1  0.4256690000000  0.4397410000000  0.5058690000000 1.0
C      1  0.5017770000000  0.5633040000000  0.4185410000000 1.0
C      1  0.5709100000000  0.5520590000000  0.4971170000000 1.0
C      1  0.4941720000000  0.5593860000000  0.5734930000000 1.0
C      1  0.4157090000000  0.5652230000000  0.4946160000000 1.0
C      1  0.5695370000000  0.4296290000000  0.5451870000000 1.0
C      1  0.5445860000000  0.4382020000000  0.4329370000000 1.0
C      1  0.4372020000000  0.4402330000000  0.4585760000000 1.0
C      1  0.4564510000000  0.4348290000000  0.5716680000000 1.0
C      1  0.5674500000000  0.5627500000000  0.4539460000000 1.0
C      1  0.5411120000000  0.5595380000000  0.5623310000000 1.0
C      1  0.4296510000000  0.5634800000000  0.5423710000000 1.0
C      1  0.4555040000000  0.5726120000000  0.4297780000000 1.0
C      1  0.4069280000000  0.4998480000000  0.5120780000000 1.0
C      1  0.5163100000000  0.4991260000000  0.5984810000000 1.0
C      1  0.6059740000000  0.5010680000000  0.4864490000000 1.0
C      1  0.4856360000000  0.5079300000000  0.4023510000000 1.0
C      1  0.4022410000000  0.5008110000000  0.4831680000000 1.0
C      1  0.5138170000000  0.5011350000000  0.3956240000000 1.0
C      1  0.5983110000000  0.4935100000000  0.5142780000000 1.0
C      1  0.4862210000000  0.4974190000000  0.6001500000000 1.0
C      1  0.4883010000000  0.6110000000000  0.5013040000000 1.0
C      1  0.4990300000000  0.3901120000000  0.5120090000000 1.0
C      1  0.4908650000000  0.4997290000000  0.5135750000000 1.0
END
