TITL C-3577090-796-583 -8.90478032310942e-07 125000 -1262.52238440318 0 0 195 (C1) n - 1
REM
REM in /home/bkarasulu/work/CARBON/AIRSS/Generating-Clusters/EDIP-Nigel-Params/with-SteepDescent/Higher-Symm/SD-CG/HFTN-CG
REM
REM
REM
REM
REM
REM ./C.cell (12c818d87b63d06a65506943cc24bca4)
REM
REM compiler GCC version 9.2.1 20190827 (Red Hat 9.2.1-1)
REM options -cpp -mtune=generic -march=x86-64 -g -O0 -fpre-include=/usr/include/finclude/math-vector-fortran.h
REM seed -83033229 547253415 1077563653 1153697022 836034894 -334307752 -1809421122 339496825 -1687073197 426419973 -423635221 -135623021 -695215619 1170537528 1427831906 607039075 -1384239047 -1194486465 1598013328 1654442608 1834735238 -159928501 1667472616 1262744618 -1294443972 -1968455267 -371964316 153423943 -1245592803 -1799527147 999911985 1516401674 -1388754804
REM
CELL 1.54180   50.00000   50.00000   50.00000   90.00000   90.00000   90.00000
LATT -1
SFAC C  
C      1  0.5142040000000  0.5264320000000  0.5591420000000 1.0
C      1  0.5215830000000  0.4908520000000  0.5609250000000 1.0
C      1  0.4923730000000  0.4764410000000  0.5641600000000 1.0
C      1  0.4726950000000  0.4984030000000  0.5707470000000 1.0
C      1  0.4801650000000  0.5268760000000  0.5626410000000 1.0
C      1  0.5188340000000  0.5152770000000  0.4285360000000 1.0
C      1  0.5298230000000  0.4876700000000  0.4361160000000 1.0
C      1  0.5020130000000  0.4690400000000  0.4390430000000 1.0
C      1  0.4740380000000  0.4886360000000  0.4401850000000 1.0
C      1  0.4886150000000  0.5207160000000  0.4364040000000 1.0
C      1  0.5886850000000  0.5647130000000  0.4682290000000 1.0
C      1  0.5873700000000  0.4334650000000  0.4755490000000 1.0
C      1  0.4627820000000  0.3972910000000  0.4731130000000 1.0
C      1  0.3898680000000  0.4999760000000  0.4710880000000 1.0
C      1  0.4665650000000  0.6022680000000  0.4737840000000 1.0
C      1  0.5882450000000  0.5655000000000  0.5273690000000 1.0
C      1  0.5925510000000  0.4312540000000  0.5347060000000 1.0
C      1  0.4644380000000  0.3910000000000  0.5317680000000 1.0
C      1  0.3943970000000  0.5015930000000  0.5275280000000 1.0
C      1  0.4671050000000  0.6087420000000  0.5326040000000 1.0
C      1  0.4883820000000  0.4856730000000  0.4865530000000 1.0
C      1  0.4742780000000  0.5091570000000  0.4789410000000 1.0
C      1  0.4916110000000  0.5295940000000  0.4671250000000 1.0
C      1  0.5189030000000  0.5154960000000  0.4683500000000 1.0
C      1  0.5144380000000  0.4881220000000  0.4775130000000 1.0
C      1  0.4889970000000  0.4737660000000  0.5325860000000 1.0
C      1  0.4773480000000  0.5003930000000  0.5267460000000 1.0
C      1  0.4974510000000  0.5182110000000  0.5155330000000 1.0
C      1  0.5233360000000  0.5081260000000  0.5199360000000 1.0
C      1  0.5214210000000  0.4807140000000  0.5297280000000 1.0
C      1  0.4740120000000  0.4287960000000  0.5665830000000 1.0
C      1  0.4236640000000  0.5034920000000  0.5701890000000 1.0
C      1  0.4773820000000  0.5760640000000  0.5732540000000 1.0
C      1  0.5608830000000  0.5425170000000  0.5674600000000 1.0
C      1  0.5575840000000  0.4548030000000  0.5655140000000 1.0
C      1  0.4747240000000  0.4273300000000  0.4321610000000 1.0
C      1  0.4261190000000  0.5016450000000  0.4313360000000 1.0
C      1  0.4800840000000  0.5696650000000  0.4349490000000 1.0
C      1  0.5624540000000  0.5393980000000  0.4317370000000 1.0
C      1  0.5629600000000  0.4506290000000  0.4311120000000 1.0
C      1  0.5828640000000  0.5906500000000  0.5128750000000 1.0
C      1  0.6140810000000  0.4448310000000  0.5195480000000 1.0
C      1  0.4821240000000  0.3731580000000  0.5149740000000 1.0
C      1  0.3830500000000  0.4781250000000  0.5146670000000 1.0
C      1  0.4413190000000  0.6132270000000  0.5177720000000 1.0
C      1  0.5768550000000  0.5865470000000  0.4837200000000 1.0
C      1  0.6102080000000  0.4464800000000  0.4898100000000 1.0
C      1  0.4797090000000  0.3753240000000  0.4844090000000 1.0
C      1  0.3786440000000  0.4776890000000  0.4857130000000 1.0
C      1  0.4415490000000  0.6101890000000  0.4872680000000 1.0
C      1  0.5773710000000  0.4554840000000  0.4571940000000 1.0
C      1  0.4820580000000  0.4148710000000  0.4580420000000 1.0
C      1  0.4073810000000  0.4888560000000  0.4497520000000 1.0
C      1  0.4611690000000  0.5820910000000  0.4535440000000 1.0
C      1  0.5716600000000  0.5644660000000  0.4440390000000 1.0
C      1  0.5799840000000  0.4546140000000  0.5475300000000 1.0
C      1  0.4823280000000  0.4107110000000  0.5449710000000 1.0
C      1  0.4105550000000  0.4891760000000  0.5483740000000 1.0
C      1  0.4625030000000  0.5840070000000  0.5489820000000 1.0
C      1  0.5689260000000  0.5649430000000  0.5502930000000 1.0
C      1  0.5243950000000  0.4335170000000  0.5187510000000 1.0
C      1  0.4436830000000  0.4569600000000  0.5223790000000 1.0
C      1  0.4547890000000  0.5364420000000  0.5375780000000 1.0
C      1  0.5204400000000  0.5519820000000  0.5362610000000 1.0
C      1  0.5671460000000  0.5002940000000  0.5193990000000 1.0
C      1  0.5164240000000  0.4458010000000  0.4643340000000 1.0
C      1  0.4521100000000  0.4713690000000  0.4650890000000 1.0
C      1  0.4424660000000  0.5414250000000  0.4807440000000 1.0
C      1  0.5266350000000  0.5584870000000  0.4757790000000 1.0
C      1  0.5583310000000  0.4991660000000  0.4603190000000 1.0
C      1  0.4264720000000  0.4788310000000  0.5091860000000 1.0
C      1  0.4695630000000  0.5574000000000  0.5215810000000 1.0
C      1  0.5473890000000  0.5496050000000  0.5214830000000 1.0
C      1  0.5716830000000  0.4768160000000  0.5026840000000 1.0
C      1  0.4984870000000  0.4251850000000  0.5061860000000 1.0
C      1  0.4322590000000  0.4902450000000  0.4799810000000 1.0
C      1  0.4582800000000  0.5635830000000  0.4934540000000 1.0
C      1  0.5445020000000  0.5695750000000  0.4981500000000 1.0
C      1  0.5596370000000  0.4734990000000  0.4750580000000 1.0
C      1  0.4918100000000  0.4366840000000  0.4780380000000 1.0
C      1  0.5375910000000  0.4338390000000  0.5667390000000 1.0
C      1  0.4478820000000  0.4422360000000  0.5690230000000 1.0
C      1  0.4241170000000  0.5331140000000  0.5731240000000 1.0
C      1  0.5065480000000  0.5814820000000  0.5744110000000 1.0
C      1  0.5755230000000  0.5171760000000  0.5667010000000 1.0
C      1  0.5432890000000  0.4283270000000  0.4292200000000 1.0
C      1  0.4475740000000  0.4382630000000  0.4292840000000 1.0
C      1  0.4308390000000  0.5303190000000  0.4323450000000 1.0
C      1  0.5086230000000  0.5763200000000  0.4322460000000 1.0
C      1  0.5807200000000  0.5167490000000  0.4261020000000 1.0
C      1  0.5674490000000  0.4994850000000  0.4050670000000 1.0
C      1  0.5230810000000  0.4365280000000  0.4079420000000 1.0
C      1  0.4496180000000  0.4594180000000  0.4078470000000 1.0
C      1  0.4498170000000  0.5360220000000  0.4103230000000 1.0
C      1  0.5204490000000  0.5606090000000  0.4090030000000 1.0
C      1  0.5623550000000  0.5008170000000  0.5880640000000 1.0
C      1  0.5185030000000  0.4398760000000  0.5887720000000 1.0
C      1  0.4469100000000  0.4621020000000  0.5919270000000 1.0
C      1  0.4443230000000  0.5388090000000  0.5954740000000 1.0
C      1  0.5177580000000  0.5621020000000  0.5942250000000 1.0
C      1  0.4103350000000  0.5493280000000  0.5227800000000 1.0
C      1  0.5153700000000  0.5998100000000  0.5266400000000 1.0
C      1  0.6080840000000  0.5166280000000  0.5222130000000 1.0
C      1  0.5556560000000  0.4015960000000  0.5355180000000 1.0
C      1  0.4242420000000  0.4165000000000  0.5355380000000 1.0
C      1  0.3981380000000  0.5458610000000  0.4660260000000 1.0
C      1  0.5193600000000  0.6048210000000  0.4768610000000 1.0
C      1  0.6013650000000  0.5164990000000  0.4729830000000 1.0
C      1  0.5452930000000  0.4076560000000  0.4800650000000 1.0
C      1  0.4281290000000  0.4306940000000  0.4795600000000 1.0
C      1  0.5666360000000  0.6065880000000  0.4649640000000 1.0
C      1  0.6158130000000  0.4731690000000  0.4778970000000 1.0
C      1  0.5074110000000  0.3804520000000  0.4741980000000 1.0
C      1  0.3901370000000  0.4531470000000  0.4740130000000 1.0
C      1  0.4203500000000  0.5908030000000  0.4777930000000 1.0
C      1  0.5595770000000  0.6041630000000  0.5254710000000 1.0
C      1  0.6223630000000  0.4687690000000  0.5327650000000 1.0
C      1  0.5108420000000  0.3797760000000  0.5223900000000 1.0
C      1  0.3879560000000  0.4528930000000  0.5278420000000 1.0
C      1  0.4228340000000  0.5921970000000  0.5277000000000 1.0
C      1  0.3899820000000  0.5260070000000  0.4838460000000 1.0
C      1  0.4917180000000  0.6095100000000  0.4869290000000 1.0
C      1  0.5940060000000  0.5414370000000  0.4835730000000 1.0
C      1  0.5681350000000  0.4202100000000  0.4925520000000 1.0
C      1  0.4456970000000  0.4115080000000  0.4915860000000 1.0
C      1  0.3999590000000  0.5252260000000  0.5112190000000 1.0
C      1  0.4904040000000  0.6062710000000  0.5156230000000 1.0
C      1  0.6003050000000  0.5433570000000  0.5116050000000 1.0
C      1  0.5761500000000  0.4116910000000  0.5193790000000 1.0
C      1  0.4398970000000  0.4006840000000  0.5181950000000 1.0
C      1  0.4907510000000  0.4490000000000  0.5813620000000 1.0
C      1  0.4470050000000  0.4924290000000  0.5856110000000 1.0
C      1  0.4722700000000  0.5481850000000  0.5848010000000 1.0
C      1  0.5338480000000  0.5394580000000  0.5810710000000 1.0
C      1  0.5447460000000  0.4781530000000  0.5790130000000 1.0
C      1  0.4952460000000  0.4456720000000  0.4185230000000 1.0
C      1  0.4500790000000  0.4881080000000  0.4187450000000 1.0
C      1  0.4771130000000  0.5445380000000  0.4188070000000 1.0
C      1  0.5378890000000  0.5358330000000  0.4149590000000 1.0
C      1  0.5507920000000  0.4750110000000  0.4164450000000 1.0
C      1  0.4337400000000  0.5784860000000  0.5516450000000 1.0
C      1  0.5514640000000  0.5888720000000  0.5505150000000 1.0
C      1  0.5991160000000  0.4762450000000  0.5472320000000 1.0
C      1  0.5090440000000  0.3983260000000  0.5456890000000 1.0
C      1  0.4055710000000  0.4597400000000  0.5495640000000 1.0
C      1  0.4319230000000  0.5769610000000  0.4533500000000 1.0
C      1  0.5542100000000  0.5886620000000  0.4459820000000 1.0
C      1  0.6002630000000  0.4744370000000  0.4519600000000 1.0
C      1  0.5072360000000  0.3998510000000  0.4520900000000 1.0
C      1  0.4065790000000  0.4594280000000  0.4495610000000 1.0
C      1  0.5476330000000  0.5208920000000  0.5095010000000 1.0
C      1  0.5369660000000  0.4600490000000  0.5123410000000 1.0
C      1  0.4726180000000  0.4523700000000  0.5159870000000 1.0
C      1  0.4485610000000  0.5084640000000  0.5201040000000 1.0
C      1  0.4968550000000  0.5474110000000  0.5150380000000 1.0
C      1  0.5462680000000  0.5248120000000  0.4782280000000 1.0
C      1  0.5320250000000  0.4652820000000  0.4821520000000 1.0
C      1  0.4738710000000  0.4605390000000  0.4858360000000 1.0
C      1  0.4482680000000  0.5139080000000  0.4895670000000 1.0
C      1  0.4958740000000  0.5553770000000  0.4850770000000 1.0
C      1  0.4771440000000  0.4555920000000  0.3965760000000 1.0
C      1  0.4541060000000  0.5092300000000  0.3975600000000 1.0
C      1  0.4963550000000  0.5489090000000  0.3957890000000 1.0
C      1  0.5488710000000  0.5196790000000  0.3916310000000 1.0
C      1  0.5355620000000  0.4607410000000  0.3948460000000 1.0
C      1  0.4730660000000  0.4560530000000  0.6052120000000 1.0
C      1  0.4477100000000  0.5113980000000  0.6093040000000 1.0
C      1  0.4932870000000  0.5495460000000  0.6061900000000 1.0
C      1  0.5429820000000  0.5194000000000  0.6012150000000 1.0
C      1  0.5313140000000  0.4633070000000  0.6015970000000 1.0
C      1  0.4779280000000  0.5048180000000  0.3812160000000 1.0
C      1  0.5000410000000  0.5243260000000  0.3791700000000 1.0
C      1  0.5256600000000  0.5083050000000  0.3769650000000 1.0
C      1  0.5181150000000  0.4793880000000  0.3798940000000 1.0
C      1  0.4889020000000  0.4776400000000  0.3812930000000 1.0
C      1  0.4734040000000  0.5060460000000  0.6242990000000 1.0
C      1  0.4967890000000  0.5243550000000  0.6206740000000 1.0
C      1  0.5213200000000  0.5087000000000  0.6177460000000 1.0
C      1  0.5145820000000  0.4803860000000  0.6187170000000 1.0
C      1  0.4849990000000  0.4777190000000  0.6219770000000 1.0
C      1  0.4285910000000  0.5490560000000  0.5473860000000 1.0
C      1  0.5221280000000  0.5809070000000  0.5482740000000 1.0
C      1  0.5879440000000  0.5035570000000  0.5411280000000 1.0
C      1  0.5322210000000  0.4167590000000  0.5425090000000 1.0
C      1  0.4301270000000  0.4430900000000  0.5450600000000 1.0
C      1  0.4252620000000  0.5481280000000  0.4570210000000 1.0
C      1  0.5265520000000  0.5826860000000  0.4559140000000 1.0
C      1  0.5873540000000  0.5022140000000  0.4512440000000 1.0
C      1  0.5303590000000  0.4195510000000  0.4556740000000 1.0
C      1  0.4341620000000  0.4480900000000  0.4549910000000 1.0
C      1  0.4226940000000  0.5722230000000  0.5049740000000 1.0
C      1  0.5210790000000  0.3955330000000  0.4964360000000 1.0
C      1  0.5358280000000  0.5988850000000  0.5052280000000 1.0
C      1  0.6040350000000  0.4969970000000  0.4955240000000 1.0
C      1  0.4093680000000  0.4474050000000  0.4966100000000 1.0
END
