TITL C-3577090-796-319 -4.96644380300975e-07 125000 -1273.34699265776 0 0 200 (C1) n - 1
REM
REM in /home/bkarasulu/work/CARBON/AIRSS/Generating-Clusters/EDIP-Nigel-Params/with-SteepDescent/Higher-Symm/SD-CG/HFTN-CG
REM
REM
REM
REM
REM
REM ./C.cell (12c818d87b63d06a65506943cc24bca4)
REM
REM compiler GCC version 9.2.1 20190827 (Red Hat 9.2.1-1)
REM options -cpp -mtune=generic -march=x86-64 -g -O0 -fpre-include=/usr/include/finclude/math-vector-fortran.h
REM seed -1782194715 -2069343929 937055162 73246320 -2069389690 649284971 55832450 -1149986741 1742901980 2051177434 -616503274 -489144973 -1100485625 -1491624885 -1369918849 -671959130 1905575245 745102115 -621647120 2064093122 -577981161 -952317270 -849611822 980081722 1770202442 -1464711938 1614389126 1869235602 197266343 -1050274978 -224279727 -144662219 -879404540
REM
CELL 1.54180   50.00000   50.00000   50.00000   90.00000   90.00000   90.00000
LATT -1
SFAC C  
C      1  0.5182390000000  0.4085060000000  0.4743100000000 1.0
C      1  0.4028750000000  0.4845890000000  0.5117300000000 1.0
C      1  0.4807830000000  0.5133910000000  0.4135050000000 1.0
C      1  0.4907720000000  0.5979140000000  0.4855800000000 1.0
C      1  0.5222940000000  0.5962460000000  0.5164960000000 1.0
C      1  0.4910970000000  0.4128590000000  0.5177160000000 1.0
C      1  0.5896450000000  0.5195490000000  0.5127680000000 1.0
C      1  0.4059910000000  0.5163530000000  0.4790370000000 1.0
C      1  0.5914350000000  0.4750370000000  0.4813510000000 1.0
C      1  0.5254230000000  0.4823820000000  0.4102660000000 1.0
C      1  0.4809250000000  0.4825160000000  0.5912520000000 1.0
C      1  0.5129060000000  0.5143040000000  0.5940350000000 1.0
C      1  0.5198260000000  0.4130550000000  0.5295270000000 1.0
C      1  0.4052080000000  0.4861950000000  0.4806880000000 1.0
C      1  0.4819270000000  0.5150730000000  0.5883200000000 1.0
C      1  0.4827690000000  0.6000250000000  0.5137020000000 1.0
C      1  0.5206120000000  0.5968600000000  0.4865780000000 1.0
C      1  0.4865080000000  0.4038120000000  0.4901860000000 1.0
C      1  0.5883320000000  0.5302090000000  0.4815360000000 1.0
C      1  0.4055330000000  0.5137560000000  0.5179150000000 1.0
C      1  0.5951240000000  0.4888730000000  0.5126020000000 1.0
C      1  0.5120570000000  0.4811860000000  0.5942820000000 1.0
C      1  0.4708570000000  0.4815810000000  0.4146470000000 1.0
C      1  0.5114640000000  0.5132510000000  0.4077820000000 1.0
C      1  0.4436720000000  0.4069550000000  0.5594820000000 1.0
C      1  0.4101710000000  0.5595820000000  0.4449390000000 1.0
C      1  0.5556410000000  0.4468080000000  0.4093030000000 1.0
C      1  0.5567340000000  0.5911870000000  0.5605190000000 1.0
C      1  0.4477900000000  0.5937970000000  0.4420510000000 1.0
C      1  0.5543130000000  0.4094910000000  0.4446850000000 1.0
C      1  0.5914300000000  0.4448660000000  0.4461480000000 1.0
C      1  0.4078000000000  0.4427890000000  0.5525520000000 1.0
C      1  0.5951330000000  0.5576370000000  0.5557420000000 1.0
C      1  0.4428290000000  0.5553100000000  0.4060190000000 1.0
C      1  0.5586520000000  0.5503530000000  0.5927110000000 1.0
C      1  0.4418250000000  0.4503980000000  0.5926120000000 1.0
C      1  0.4475910000000  0.4055930000000  0.4437100000000 1.0
C      1  0.4098250000000  0.5556100000000  0.5524210000000 1.0
C      1  0.5574130000000  0.4476040000000  0.5915550000000 1.0
C      1  0.5546850000000  0.5926460000000  0.4416130000000 1.0
C      1  0.4469430000000  0.5898090000000  0.5590220000000 1.0
C      1  0.5553310000000  0.4067540000000  0.5596560000000 1.0
C      1  0.5944430000000  0.4435870000000  0.5542150000000 1.0
C      1  0.4090110000000  0.4415550000000  0.4468140000000 1.0
C      1  0.5940080000000  0.5593680000000  0.4444210000000 1.0
C      1  0.4432360000000  0.5478580000000  0.5915850000000 1.0
C      1  0.5568240000000  0.5533820000000  0.4064790000000 1.0
C      1  0.4418520000000  0.4445520000000  0.4074840000000 1.0
C      1  0.4745190000000  0.4665330000000  0.5668220000000 1.0
C      1  0.4763480000000  0.5746940000000  0.4746320000000 1.0
C      1  0.5652990000000  0.4805500000000  0.4667880000000 1.0
C      1  0.5255920000000  0.5256130000000  0.5694770000000 1.0
C      1  0.4763030000000  0.5324050000000  0.4372620000000 1.0
C      1  0.5198170000000  0.4681700000000  0.4362980000000 1.0
C      1  0.5320020000000  0.4352190000000  0.4805400000000 1.0
C      1  0.4690420000000  0.4305490000000  0.5276350000000 1.0
C      1  0.5367400000000  0.5707670000000  0.5250000000000 1.0
C      1  0.4315880000000  0.5250310000000  0.4655210000000 1.0
C      1  0.5654860000000  0.5238300000000  0.5304930000000 1.0
C      1  0.4262910000000  0.4720180000000  0.5244130000000 1.0
C      1  0.4756850000000  0.4656120000000  0.4401560000000 1.0
C      1  0.4729710000000  0.5727670000000  0.5244120000000 1.0
C      1  0.5724790000000  0.4758870000000  0.5262890000000 1.0
C      1  0.5238210000000  0.5276590000000  0.4301880000000 1.0
C      1  0.4784560000000  0.5303330000000  0.5615520000000 1.0
C      1  0.5240340000000  0.4682110000000  0.5694820000000 1.0
C      1  0.5368320000000  0.4387840000000  0.5274670000000 1.0
C      1  0.4733290000000  0.4273160000000  0.4775280000000 1.0
C      1  0.5338090000000  0.5721240000000  0.4753120000000 1.0
C      1  0.4323680000000  0.5207790000000  0.5322990000000 1.0
C      1  0.5626740000000  0.5248400000000  0.4665420000000 1.0
C      1  0.4303730000000  0.4753060000000  0.4676360000000 1.0
C      1  0.4408290000000  0.4240300000000  0.5167840000000 1.0
C      1  0.4242540000000  0.5164770000000  0.4358600000000 1.0
C      1  0.5142360000000  0.4378390000000  0.4297320000000 1.0
C      1  0.5662710000000  0.5780400000000  0.5169850000000 1.0
C      1  0.4452650000000  0.5745700000000  0.4830410000000 1.0
C      1  0.5628390000000  0.4295440000000  0.4867870000000 1.0
C      1  0.5716570000000  0.4868310000000  0.4372240000000 1.0
C      1  0.4235600000000  0.4835060000000  0.5613700000000 1.0
C      1  0.5736940000000  0.5156010000000  0.5573910000000 1.0
C      1  0.4844570000000  0.5590890000000  0.4274160000000 1.0
C      1  0.5179060000000  0.5560880000000  0.5729220000000 1.0
C      1  0.4824680000000  0.4388470000000  0.5752780000000 1.0
C      1  0.4431370000000  0.4247330000000  0.4850050000000 1.0
C      1  0.4232770000000  0.5136220000000  0.5610250000000 1.0
C      1  0.5147010000000  0.4366450000000  0.5756180000000 1.0
C      1  0.5663890000000  0.5774590000000  0.4847900000000 1.0
C      1  0.4435130000000  0.5732970000000  0.5161530000000 1.0
C      1  0.5628780000000  0.4284770000000  0.5177900000000 1.0
C      1  0.5744410000000  0.4844670000000  0.5562990000000 1.0
C      1  0.4243680000000  0.4844770000000  0.4360100000000 1.0
C      1  0.5719500000000  0.5175170000000  0.4391380000000 1.0
C      1  0.4856360000000  0.5573160000000  0.5715350000000 1.0
C      1  0.5158870000000  0.5576930000000  0.4264440000000 1.0
C      1  0.4834940000000  0.4387420000000  0.4297970000000 1.0
C      1  0.6120180000000  0.4870060000000  0.4619590000000 1.0
C      1  0.4846900000000  0.4573170000000  0.6202400000000 1.0
C      1  0.4473240000000  0.6208890000000  0.4877550000000 1.0
C      1  0.3831340000000  0.5171940000000  0.4576870000000 1.0
C      1  0.6170890000000  0.5169750000000  0.5390360000000 1.0
C      1  0.3791000000000  0.4851570000000  0.5425080000000 1.0
C      1  0.5145510000000  0.5365060000000  0.6154850000000 1.0
C      1  0.4832960000000  0.5386440000000  0.3847460000000 1.0
C      1  0.5134620000000  0.4631130000000  0.3897490000000 1.0
C      1  0.5385300000000  0.3888960000000  0.4866470000000 1.0
C      1  0.4509590000000  0.3790790000000  0.5158660000000 1.0
C      1  0.5439110000000  0.6186060000000  0.5176590000000 1.0
C      1  0.6165520000000  0.4872270000000  0.5366720000000 1.0
C      1  0.4832560000000  0.4635160000000  0.3915350000000 1.0
C      1  0.4564950000000  0.6164280000000  0.5143340000000 1.0
C      1  0.3833710000000  0.5141580000000  0.5384400000000 1.0
C      1  0.6107690000000  0.5174600000000  0.4626620000000 1.0
C      1  0.3826320000000  0.4848170000000  0.4583000000000 1.0
C      1  0.5129090000000  0.5357960000000  0.3854240000000 1.0
C      1  0.4853480000000  0.5402080000000  0.6174820000000 1.0
C      1  0.5140770000000  0.4606530000000  0.6168050000000 1.0
C      1  0.5380720000000  0.3902640000000  0.5171710000000 1.0
C      1  0.4613370000000  0.3839070000000  0.4898330000000 1.0
C      1  0.5435440000000  0.6193240000000  0.4851190000000 1.0
C      1  0.5636420000000  0.4003730000000  0.5305360000000 1.0
C      1  0.3965430000000  0.5287020000000  0.5614180000000 1.0
C      1  0.5276040000000  0.5601120000000  0.3977730000000 1.0
C      1  0.4367950000000  0.5999690000000  0.5309770000000 1.0
C      1  0.5651520000000  0.6041680000000  0.4694750000000 1.0
C      1  0.4393100000000  0.3966810000000  0.4722910000000 1.0
C      1  0.6029060000000  0.4729090000000  0.5606040000000 1.0
C      1  0.3975100000000  0.4694300000000  0.4365260000000 1.0
C      1  0.5998970000000  0.5302610000000  0.4371190000000 1.0
C      1  0.4709570000000  0.4375320000000  0.4017130000000 1.0
C      1  0.5293700000000  0.4380990000000  0.6029680000000 1.0
C      1  0.4714600000000  0.5569550000000  0.5984270000000 1.0
C      1  0.5627060000000  0.4019600000000  0.4735590000000 1.0
C      1  0.3974940000000  0.5315900000000  0.4353830000000 1.0
C      1  0.5298060000000  0.5589420000000  0.6015000000000 1.0
C      1  0.4368440000000  0.6007970000000  0.4708290000000 1.0
C      1  0.5665130000000  0.6046480000000  0.5325230000000 1.0
C      1  0.4354510000000  0.3977180000000  0.5305950000000 1.0
C      1  0.5993180000000  0.4737280000000  0.4373980000000 1.0
C      1  0.3967760000000  0.4704880000000  0.5605820000000 1.0
C      1  0.6007730000000  0.5284860000000  0.5603640000000 1.0
C      1  0.4692450000000  0.4402160000000  0.6023550000000 1.0
C      1  0.5267600000000  0.4383250000000  0.4017230000000 1.0
C      1  0.4717330000000  0.5604560000000  0.4001730000000 1.0
C      1  0.5164820000000  0.5111150000000  0.5423430000000 1.0
C      1  0.5279950000000  0.5449750000000  0.5132560000000 1.0
C      1  0.5379100000000  0.5178440000000  0.5215380000000 1.0
C      1  0.4856560000000  0.4751020000000  0.5415190000000 1.0
C      1  0.5110560000000  0.4839210000000  0.4596890000000 1.0
C      1  0.4829120000000  0.5251760000000  0.4654700000000 1.0
C      1  0.4749650000000  0.4600420000000  0.5180010000000 1.0
C      1  0.5152390000000  0.4553890000000  0.4927330000000 1.0
C      1  0.4904680000000  0.5482390000000  0.4845200000000 1.0
C      1  0.4531790000000  0.4804540000000  0.5116270000000 1.0
C      1  0.5418180000000  0.4888250000000  0.4821350000000 1.0
C      1  0.4569870000000  0.5143670000000  0.4763350000000 1.0
C      1  0.5135840000000  0.5140410000000  0.4567910000000 1.0
C      1  0.5212370000000  0.5471130000000  0.4860250000000 1.0
C      1  0.5351970000000  0.5197720000000  0.4772080000000 1.0
C      1  0.4815160000000  0.4752450000000  0.4680970000000 1.0
C      1  0.5135710000000  0.4800650000000  0.5433080000000 1.0
C      1  0.4843100000000  0.5222320000000  0.5331840000000 1.0
C      1  0.4866140000000  0.4539150000000  0.4885250000000 1.0
C      1  0.5257460000000  0.4649350000000  0.5189630000000 1.0
C      1  0.4839560000000  0.5466300000000  0.5144990000000 1.0
C      1  0.4553390000000  0.4863310000000  0.4810280000000 1.0
C      1  0.5459110000000  0.4848960000000  0.5118540000000 1.0
C      1  0.4587360000000  0.5065760000000  0.5254890000000 1.0
C      1  0.5245520000000  0.4117480000000  0.5599930000000 1.0
C      1  0.4281240000000  0.5503270000000  0.5290760000000 1.0
C      1  0.5521410000000  0.5277370000000  0.4206130000000 1.0
C      1  0.4739120000000  0.5779350000000  0.5535020000000 1.0
C      1  0.5299640000000  0.5764020000000  0.4463990000000 1.0
C      1  0.4735960000000  0.4189880000000  0.4488220000000 1.0
C      1  0.5824900000000  0.4475340000000  0.5272980000000 1.0
C      1  0.4257510000000  0.4461880000000  0.4711720000000 1.0
C      1  0.5888920000000  0.5597530000000  0.4745030000000 1.0
C      1  0.4415720000000  0.4745310000000  0.4132580000000 1.0
C      1  0.5531100000000  0.4715270000000  0.5742840000000 1.0
C      1  0.4391400000000  0.5184380000000  0.5858610000000 1.0
C      1  0.5241800000000  0.4113420000000  0.4442550000000 1.0
C      1  0.4281020000000  0.5537570000000  0.4684740000000 1.0
C      1  0.5540560000000  0.5251850000000  0.5771900000000 1.0
C      1  0.4745080000000  0.5803090000000  0.4457430000000 1.0
C      1  0.5328520000000  0.5743870000000  0.5537580000000 1.0
C      1  0.4697530000000  0.4203480000000  0.5557270000000 1.0
C      1  0.5891520000000  0.4446900000000  0.4764580000000 1.0
C      1  0.4199320000000  0.4438060000000  0.5252920000000 1.0
C      1  0.5871670000000  0.5620870000000  0.5288870000000 1.0
C      1  0.4379670000000  0.4798890000000  0.5874470000000 1.0
C      1  0.5556060000000  0.4769830000000  0.4118290000000 1.0
C      1  0.4393330000000  0.5283290000000  0.4142460000000 1.0
C      1  0.5728260000000  0.4287620000000  0.5730650000000 1.0
C      1  0.4290940000000  0.5679860000000  0.5724700000000 1.0
C      1  0.5726420000000  0.5729920000000  0.4265340000000 1.0
C      1  0.4290750000000  0.5747340000000  0.4256540000000 1.0
C      1  0.5658240000000  0.4350100000000  0.4346590000000 1.0
C      1  0.4294180000000  0.4318730000000  0.5707870000000 1.0
C      1  0.4282030000000  0.4263240000000  0.4284110000000 1.0
C      1  0.5751210000000  0.5707170000000  0.5751490000000 1.0
END
