TITL C-3578207-9274-602 6.56756699953797e-08 125000 -801.976568699065 0 0 130 (C1) n - 1
REM
REM in /home/bkarasulu/work/CARBON/AIRSS/Generating-Clusters/EDIP-Nigel-Params/with-SteepDescent/Higher-Symm/SD-CG/HFTN-CG
REM
REM
REM
REM
REM
REM ./C.cell (12c818d87b63d06a65506943cc24bca4)
REM
REM compiler GCC version 9.2.1 20190827 (Red Hat 9.2.1-1)
REM options -cpp -mtune=generic -march=x86-64 -g -O0 -fpre-include=/usr/include/finclude/math-vector-fortran.h
REM seed -947323708 -1619857457 2098486312 42112393 2007777782 610143267 -690596643 9830252 232387761 2033789955 -2098898093 -989847424 540980100 -1201987892 -1906699758 1298384463 -982765200 -2043730066 -1003254862 -1532889841 1446754868 -2013057572 663900789 -1152489092 1889307668 -21774063 1737408884 1984401796 -2052900507 -1148676697 -1820250588 527784263 -2070263826
REM
CELL 1.54180   50.00000   50.00000   50.00000   90.00000   90.00000   90.00000
LATT -1
SFAC C  
C      1  0.4701730000000  0.5140620000000  0.5912800000000 1.0
C      1  0.5291520000000  0.5144820000000  0.5902640000000 1.0
C      1  0.5283540000000  0.4713900000000  0.4236610000000 1.0
C      1  0.4702160000000  0.4716980000000  0.4251720000000 1.0
C      1  0.5151090000000  0.5381270000000  0.4739770000000 1.0
C      1  0.4870840000000  0.5449540000000  0.4797690000000 1.0
C      1  0.4289490000000  0.5328770000000  0.4392180000000 1.0
C      1  0.5755810000000  0.5279860000000  0.4395310000000 1.0
C      1  0.5266420000000  0.4214280000000  0.4254650000000 1.0
C      1  0.4721840000000  0.4213660000000  0.4254990000000 1.0
C      1  0.4847800000000  0.4395680000000  0.5001010000000 1.0
C      1  0.5161440000000  0.4395480000000  0.4989540000000 1.0
C      1  0.4755650000000  0.5640390000000  0.4576640000000 1.0
C      1  0.5278750000000  0.5596610000000  0.4568890000000 1.0
C      1  0.5802200000000  0.4853930000000  0.5159990000000 1.0
C      1  0.4126390000000  0.4823540000000  0.5202080000000 1.0
C      1  0.4439360000000  0.5173900000000  0.5781850000000 1.0
C      1  0.5553190000000  0.5166820000000  0.5801020000000 1.0
C      1  0.5549480000000  0.5138540000000  0.4268780000000 1.0
C      1  0.4476900000000  0.5177530000000  0.4220880000000 1.0
C      1  0.4219440000000  0.4927780000000  0.4610060000000 1.0
C      1  0.5697310000000  0.4914360000000  0.4617730000000 1.0
C      1  0.5290450000000  0.4613560000000  0.5831490000000 1.0
C      1  0.4690730000000  0.4537380000000  0.5876010000000 1.0
C      1  0.4870820000000  0.5517760000000  0.4309930000000 1.0
C      1  0.5175030000000  0.5526390000000  0.4294060000000 1.0
C      1  0.4013100000000  0.5059480000000  0.4783910000000 1.0
C      1  0.5914630000000  0.5052730000000  0.4783090000000 1.0
C      1  0.4426600000000  0.4490660000000  0.5733140000000 1.0
C      1  0.5561430000000  0.4557320000000  0.5695840000000 1.0
C      1  0.4250170000000  0.4612750000000  0.4382430000000 1.0
C      1  0.5755690000000  0.4653480000000  0.4335540000000 1.0
C      1  0.5158390000000  0.5422360000000  0.5409830000000 1.0
C      1  0.4840910000000  0.5370470000000  0.5409000000000 1.0
C      1  0.5756290000000  0.5116420000000  0.5307870000000 1.0
C      1  0.4194920000000  0.5074300000000  0.5351330000000 1.0
C      1  0.4855100000000  0.4736740000000  0.4664810000000 1.0
C      1  0.5181400000000  0.4700000000000  0.4664720000000 1.0
C      1  0.4722970000000  0.4848470000000  0.5559740000000 1.0
C      1  0.5271580000000  0.4927320000000  0.5473100000000 1.0
C      1  0.5334540000000  0.5313890000000  0.4146280000000 1.0
C      1  0.4725260000000  0.5323320000000  0.4141350000000 1.0
C      1  0.5544070000000  0.4790370000000  0.5510150000000 1.0
C      1  0.4438980000000  0.4736510000000  0.5567310000000 1.0
C      1  0.4714000000000  0.5559040000000  0.5610730000000 1.0
C      1  0.5266840000000  0.5582550000000  0.5652400000000 1.0
C      1  0.5109100000000  0.5864450000000  0.5584570000000 1.0
C      1  0.4821500000000  0.5836890000000  0.5539790000000 1.0
C      1  0.4837690000000  0.4953290000000  0.4346500000000 1.0
C      1  0.5145600000000  0.4960810000000  0.4313110000000 1.0
C      1  0.6015580000000  0.4881620000000  0.4981440000000 1.0
C      1  0.3949290000000  0.4895850000000  0.5000750000000 1.0
C      1  0.4081460000000  0.5338170000000  0.4846320000000 1.0
C      1  0.5841990000000  0.5317210000000  0.4871840000000 1.0
C      1  0.5572940000000  0.4292420000000  0.5521710000000 1.0
C      1  0.4430150000000  0.4247690000000  0.5534920000000 1.0
C      1  0.4748000000000  0.6039160000000  0.4853800000000 1.0
C      1  0.5337410000000  0.6009670000000  0.4849230000000 1.0
C      1  0.5160250000000  0.4896410000000  0.5780660000000 1.0
C      1  0.4843990000000  0.4872520000000  0.5835130000000 1.0
C      1  0.4660810000000  0.5121780000000  0.5472670000000 1.0
C      1  0.5324350000000  0.5192860000000  0.5347970000000 1.0
C      1  0.4890610000000  0.5136630000000  0.4006830000000 1.0
C      1  0.5168000000000  0.5155290000000  0.3977690000000 1.0
C      1  0.5092670000000  0.4927200000000  0.4976960000000 1.0
C      1  0.4817400000000  0.4940980000000  0.4878960000000 1.0
C      1  0.5186660000000  0.4090210000000  0.5006490000000 1.0
C      1  0.4817520000000  0.4090170000000  0.5003720000000 1.0
C      1  0.4503920000000  0.5070080000000  0.4588990000000 1.0
C      1  0.5370960000000  0.4959570000000  0.4627900000000 1.0
C      1  0.4561540000000  0.5289110000000  0.5075290000000 1.0
C      1  0.5459550000000  0.5538970000000  0.5036660000000 1.0
C      1  0.4271340000000  0.4978880000000  0.5640180000000 1.0
C      1  0.5706080000000  0.5030160000000  0.5607860000000 1.0
C      1  0.4457530000000  0.5673480000000  0.5347790000000 1.0
C      1  0.5539210000000  0.5766650000000  0.5448180000000 1.0
C      1  0.4847600000000  0.4463810000000  0.4226830000000 1.0
C      1  0.5138410000000  0.4461750000000  0.4208390000000 1.0
C      1  0.5138940000000  0.4119560000000  0.4489380000000 1.0
C      1  0.4849210000000  0.4101050000000  0.4481210000000 1.0
C      1  0.5285880000000  0.4313270000000  0.5441630000000 1.0
C      1  0.4717700000000  0.4275760000000  0.5458050000000 1.0
C      1  0.5570080000000  0.4673110000000  0.5085760000000 1.0
C      1  0.4413050000000  0.4708470000000  0.5129290000000 1.0
C      1  0.5776440000000  0.4615050000000  0.4630120000000 1.0
C      1  0.4212010000000  0.4625440000000  0.4669980000000 1.0
C      1  0.4872070000000  0.4705500000000  0.5361260000000 1.0
C      1  0.5127610000000  0.4780390000000  0.5256900000000 1.0
C      1  0.4928680000000  0.6134290000000  0.5049930000000 1.0
C      1  0.5204130000000  0.6092410000000  0.5103530000000 1.0
C      1  0.5300010000000  0.4541570000000  0.5212240000000 1.0
C      1  0.4709440000000  0.4503930000000  0.5246110000000 1.0
C      1  0.5556980000000  0.4831190000000  0.4210000000000 1.0
C      1  0.4425970000000  0.4794360000000  0.4252880000000 1.0
C      1  0.5764560000000  0.5446700000000  0.4622310000000 1.0
C      1  0.4291170000000  0.5448170000000  0.4655220000000 1.0
C      1  0.5859580000000  0.5393680000000  0.5168660000000 1.0
C      1  0.4120990000000  0.5381670000000  0.5138060000000 1.0
C      1  0.5287040000000  0.4043560000000  0.4722150000000 1.0
C      1  0.4700400000000  0.4081550000000  0.4722230000000 1.0
C      1  0.4279380000000  0.4258870000000  0.5295890000000 1.0
C      1  0.5729420000000  0.4272800000000  0.5284420000000 1.0
C      1  0.4379060000000  0.5516160000000  0.5120750000000 1.0
C      1  0.5679090000000  0.5638170000000  0.5222630000000 1.0
C      1  0.5279180000000  0.5138720000000  0.4856960000000 1.0
C      1  0.4684380000000  0.5197500000000  0.4820020000000 1.0
C      1  0.4403590000000  0.4522310000000  0.4878280000000 1.0
C      1  0.5610560000000  0.4484860000000  0.4854150000000 1.0
C      1  0.5729470000000  0.4266780000000  0.5009720000000 1.0
C      1  0.4302070000000  0.4293830000000  0.5026770000000 1.0
C      1  0.4507210000000  0.5877230000000  0.4901450000000 1.0
C      1  0.5579640000000  0.5849940000000  0.4849240000000 1.0
C      1  0.5161470000000  0.4057360000000  0.5320980000000 1.0
C      1  0.4858090000000  0.4040670000000  0.5320260000000 1.0
C      1  0.4485310000000  0.5071230000000  0.5244020000000 1.0
C      1  0.5463490000000  0.5231030000000  0.5083240000000 1.0
C      1  0.4703630000000  0.5803530000000  0.5223240000000 1.0
C      1  0.5271610000000  0.5879440000000  0.5322730000000 1.0
C      1  0.4891220000000  0.5584480000000  0.5090090000000 1.0
C      1  0.5194510000000  0.5618830000000  0.5180170000000 1.0
C      1  0.4692580000000  0.4471260000000  0.4756070000000 1.0
C      1  0.5322710000000  0.4430050000000  0.4741180000000 1.0
C      1  0.5569230000000  0.5659910000000  0.4630200000000 1.0
C      1  0.4468290000000  0.5688140000000  0.4673730000000 1.0
C      1  0.4855400000000  0.4368560000000  0.5707700000000 1.0
C      1  0.5141780000000  0.4408090000000  0.5684340000000 1.0
C      1  0.5142670000000  0.5402020000000  0.5867940000000 1.0
C      1  0.4845140000000  0.5396860000000  0.5853060000000 1.0
C      1  0.4885330000000  0.5898260000000  0.4638590000000 1.0
C      1  0.5167180000000  0.5857090000000  0.4665240000000 1.0
END
