TITL C-3577082-504-740 -8.9336931758806e-07 125000 -690.086531667969 0 0 112 (C1) n - 1
REM
REM in /home/bkarasulu/work/CARBON/AIRSS/Generating-Clusters/EDIP-Nigel-Params/with-SteepDescent/Higher-Symm/SD-CG/HFTN-CG
REM
REM
REM
REM
REM
REM ./C.cell (12c818d87b63d06a65506943cc24bca4)
REM
REM compiler GCC version 9.2.1 20190827 (Red Hat 9.2.1-1)
REM options -cpp -mtune=generic -march=x86-64 -g -O0 -fpre-include=/usr/include/finclude/math-vector-fortran.h
REM seed -117217365 -566821010 1482344973 -1786057474 8089763 -1864144054 435389078 -1916612896 -1832621641 1625908350 -630488976 -1961396892 -2106035224 285459486 2044346260 -2028569412 -2052567604 -929017915 -278494224 1463019793 -1824084298 -1247705171 1368191839 827000080 -14674400 -350397706 -1169500964 596909873 -936394908 1970839701 -1468664522 1249079488 756501377
REM
CELL 1.54180   50.00000   50.00000   50.00000   90.00000   90.00000   90.00000
LATT -1
SFAC C  
C      1  0.5953680000000  0.4798650000000  0.5128040000000 1.0
C      1  0.5776050000000  0.4777410000000  0.5581450000000 1.0
C      1  0.4217370000000  0.5000900000000  0.4295190000000 1.0
C      1  0.5521120000000  0.4496610000000  0.5351670000000 1.0
C      1  0.5508050000000  0.4931640000000  0.5535730000000 1.0
C      1  0.4864270000000  0.4086370000000  0.4545260000000 1.0
C      1  0.5372310000000  0.5367880000000  0.5115310000000 1.0
C      1  0.5144150000000  0.4475290000000  0.5747450000000 1.0
C      1  0.5035660000000  0.5026820000000  0.4731430000000 1.0
C      1  0.5180400000000  0.4911180000000  0.5991890000000 1.0
C      1  0.4952940000000  0.5713670000000  0.5858240000000 1.0
C      1  0.4558060000000  0.5068400000000  0.5538910000000 1.0
C      1  0.5681350000000  0.4746690000000  0.4398360000000 1.0
C      1  0.5200520000000  0.5419750000000  0.4853620000000 1.0
C      1  0.5625560000000  0.4473790000000  0.4417100000000 1.0
C      1  0.5537030000000  0.4867270000000  0.5021540000000 1.0
C      1  0.4702970000000  0.4466480000000  0.5130680000000 1.0
C      1  0.4658870000000  0.5036370000000  0.5817140000000 1.0
C      1  0.5296260000000  0.5801340000000  0.5055920000000 1.0
C      1  0.5543510000000  0.5590780000000  0.5386790000000 1.0
C      1  0.5121060000000  0.4440750000000  0.4274530000000 1.0
C      1  0.4800320000000  0.5173020000000  0.5095440000000 1.0
C      1  0.5320070000000  0.5219060000000  0.4204580000000 1.0
C      1  0.4594570000000  0.4605990000000  0.5594000000000 1.0
C      1  0.4955520000000  0.4938110000000  0.5018880000000 1.0
C      1  0.4799270000000  0.4171400000000  0.5610590000000 1.0
C      1  0.5083380000000  0.4284500000000  0.4548500000000 1.0
C      1  0.4397000000000  0.4860890000000  0.4930920000000 1.0
C      1  0.5032140000000  0.5569040000000  0.4429160000000 1.0
C      1  0.5408250000000  0.4767070000000  0.5291650000000 1.0
C      1  0.5425090000000  0.5531490000000  0.4625270000000 1.0
C      1  0.5457110000000  0.5142640000000  0.4656960000000 1.0
C      1  0.4467670000000  0.5028160000000  0.4130390000000 1.0
C      1  0.4721030000000  0.4744250000000  0.4088250000000 1.0
C      1  0.4591340000000  0.5133900000000  0.4487920000000 1.0
C      1  0.4354010000000  0.5425180000000  0.4596760000000 1.0
C      1  0.4861840000000  0.5726990000000  0.5309690000000 1.0
C      1  0.5150720000000  0.5785280000000  0.5308070000000 1.0
C      1  0.4513810000000  0.5535180000000  0.4175030000000 1.0
C      1  0.5668610000000  0.5593040000000  0.4802150000000 1.0
C      1  0.5919940000000  0.4934650000000  0.5374080000000 1.0
C      1  0.5085040000000  0.4784000000000  0.5293300000000 1.0
C      1  0.5844830000000  0.5146660000000  0.4639280000000 1.0
C      1  0.4859300000000  0.5394400000000  0.4891550000000 1.0
C      1  0.4726760000000  0.5723620000000  0.5045810000000 1.0
C      1  0.5327970000000  0.5379140000000  0.5907960000000 1.0
C      1  0.4525990000000  0.4849140000000  0.4615280000000 1.0
C      1  0.4173770000000  0.4831830000000  0.5424890000000 1.0
C      1  0.4934030000000  0.4483960000000  0.4731530000000 1.0
C      1  0.4578820000000  0.4324870000000  0.5528960000000 1.0
C      1  0.5147190000000  0.4549400000000  0.4926310000000 1.0
C      1  0.4791620000000  0.5675380000000  0.4550960000000 1.0
C      1  0.4266080000000  0.5272690000000  0.5283050000000 1.0
C      1  0.4407570000000  0.5528700000000  0.5340030000000 1.0
C      1  0.4602640000000  0.5289670000000  0.4076730000000 1.0
C      1  0.4429890000000  0.4254940000000  0.5290240000000 1.0
C      1  0.4839980000000  0.4567110000000  0.4303530000000 1.0
C      1  0.4418410000000  0.5385710000000  0.4879920000000 1.0
C      1  0.5786670000000  0.5194920000000  0.5322370000000 1.0
C      1  0.4479630000000  0.4315290000000  0.4345090000000 1.0
C      1  0.5266440000000  0.4918260000000  0.4598000000000 1.0
C      1  0.5352920000000  0.4639520000000  0.4216200000000 1.0
C      1  0.4860280000000  0.5820560000000  0.4795550000000 1.0
C      1  0.5075650000000  0.5387740000000  0.4216550000000 1.0
C      1  0.4589250000000  0.4155660000000  0.4547370000000 1.0
C      1  0.4878960000000  0.5249880000000  0.4590430000000 1.0
C      1  0.5323770000000  0.5722020000000  0.5533280000000 1.0
C      1  0.4517910000000  0.5622090000000  0.4440370000000 1.0
C      1  0.5145690000000  0.5804280000000  0.4815370000000 1.0
C      1  0.5583850000000  0.5741280000000  0.5045410000000 1.0
C      1  0.4305380000000  0.4750190000000  0.4430330000000 1.0
C      1  0.4301770000000  0.5155730000000  0.5009810000000 1.0
C      1  0.5222360000000  0.4918630000000  0.4260400000000 1.0
C      1  0.5468660000000  0.4285830000000  0.5181330000000 1.0
C      1  0.4726680000000  0.4323810000000  0.4857850000000 1.0
C      1  0.5798460000000  0.5326120000000  0.4862780000000 1.0
C      1  0.5226260000000  0.5282470000000  0.5341570000000 1.0
C      1  0.5039600000000  0.4695350000000  0.5881230000000 1.0
C      1  0.4186960000000  0.5224700000000  0.4467090000000 1.0
C      1  0.4789230000000  0.5215780000000  0.5391020000000 1.0
C      1  0.5336310000000  0.4212980000000  0.4712510000000 1.0
C      1  0.4952840000000  0.4944010000000  0.4102570000000 1.0
C      1  0.4764400000000  0.4758250000000  0.5791340000000 1.0
C      1  0.4986710000000  0.4481910000000  0.5275630000000 1.0
C      1  0.5021640000000  0.4330660000000  0.5539700000000 1.0
C      1  0.4867690000000  0.5210070000000  0.4154130000000 1.0
C      1  0.5621190000000  0.5190330000000  0.5067000000000 1.0
C      1  0.4852280000000  0.5249530000000  0.5861950000000 1.0
C      1  0.5752640000000  0.4503940000000  0.5509820000000 1.0
C      1  0.4616120000000  0.4773300000000  0.5124480000000 1.0
C      1  0.5698540000000  0.5382470000000  0.5537400000000 1.0
C      1  0.4269530000000  0.4417060000000  0.5128170000000 1.0
C      1  0.4766680000000  0.5520620000000  0.5773460000000 1.0
C      1  0.5559800000000  0.5242560000000  0.5762350000000 1.0
C      1  0.5796090000000  0.4864620000000  0.4640100000000 1.0
C      1  0.4449990000000  0.5614980000000  0.5059270000000 1.0
C      1  0.5379100000000  0.4697470000000  0.4792240000000 1.0
C      1  0.5861570000000  0.4713630000000  0.4880200000000 1.0
C      1  0.5114290000000  0.5186170000000  0.5989600000000 1.0
C      1  0.5259880000000  0.4274840000000  0.4998790000000 1.0
C      1  0.4011960000000  0.4780360000000  0.5198540000000 1.0
C      1  0.4173470000000  0.5111350000000  0.5502060000000 1.0
C      1  0.4481760000000  0.4802180000000  0.5408980000000 1.0
C      1  0.4705070000000  0.5517590000000  0.5470170000000 1.0
C      1  0.5240150000000  0.5119770000000  0.5572950000000 1.0
C      1  0.5509040000000  0.5314730000000  0.4406130000000 1.0
C      1  0.5522920000000  0.4443450000000  0.4681660000000 1.0
C      1  0.4407120000000  0.4562990000000  0.4236320000000 1.0
C      1  0.4184230000000  0.4659860000000  0.5015780000000 1.0
C      1  0.5200180000000  0.5608360000000  0.5770550000000 1.0
C      1  0.4981750000000  0.4956900000000  0.5533510000000 1.0
C      1  0.4795910000000  0.4693830000000  0.4569320000000 1.0
END
