TITL C-3578201-9217-581 -1.28563555268954e-07 125000 -49.1601805853165 0 0 9 (D3h) n - 1
REM
REM in /home/bkarasulu/work/CARBON/AIRSS/Generating-Clusters/EDIP-Nigel-Params/with-SteepDescent/Higher-Symm/SD-CG/HFTN-CG
REM
REM
REM
REM
REM
REM ./C.cell (12c818d87b63d06a65506943cc24bca4)
REM
REM compiler GCC version 9.2.1 20190827 (Red Hat 9.2.1-1)
REM options -cpp -mtune=generic -march=x86-64 -g -O0 -fpre-include=/usr/include/finclude/math-vector-fortran.h
REM seed 445750603 -1314053276 -509347773 257758889 -1365665295 -455691133 488354797 608780328 -479856465 793234391 -906953248 -1380689511 -1961436083 670569394 -968622056 1814767711 -1376928296 1099472682 -2039826039 -1235995175 -1233760540 -604329788 -1740991859 -55666547 -1886179248 936564871 -1852666473 1280771486 772527321 1185584917 -610654613 7210132 1511108617
REM
CELL 1.54180   50.00000   50.00000   50.00000   90.00000   90.00000   90.00000
LATT -1
SFAC C  
C      1  0.5321850000000  0.5000000000000  0.4781850000000 1.0
C      1  0.5106330000000  0.5000000000000  0.4626000000000 1.0
C      1  0.4841050000000  0.5000000000000  0.4645150000000 1.0
C      1  0.4650150000000  0.5000000000000  0.4830340000000 1.0
C      1  0.4622940000000  0.5000000000000  0.5094910000000 1.0
C      1  0.4772170000000  0.5000000000000  0.5315070000000 1.0
C      1  0.5028000000000  0.5000000000000  0.5387810000000 1.0
C      1  0.5270720000000  0.5000000000000  0.5279080000000 1.0
C      1  0.5386780000000  0.5000000000000  0.5039770000000 1.0
END
