TITL C-3577081-279-215 4.92107207051621e-07 125000 -833.101603517462 0 0 134 (C1) n - 1
REM
REM in /home/bkarasulu/work/CARBON/AIRSS/Generating-Clusters/EDIP-Nigel-Params/with-SteepDescent/Higher-Symm/SD-CG/HFTN-CG
REM
REM
REM
REM
REM
REM ./C.cell (12c818d87b63d06a65506943cc24bca4)
REM
REM compiler GCC version 9.2.1 20190827 (Red Hat 9.2.1-1)
REM options -cpp -mtune=generic -march=x86-64 -g -O0 -fpre-include=/usr/include/finclude/math-vector-fortran.h
REM seed -842967437 -1646732119 1259824852 2095214876 973116739 -1414488160 617882733 -110534194 -1965251779 -454132066 941028464 -143297926 704747722 268024494 1028503402 2057311733 652380305 -1784824200 193627456 698723072 1153698784 -884821509 1775904748 -1857832393 985497915 680652423 -1970711435 -545377693 1036046971 361839574 -114076752 1112043126 -838710144
REM
CELL 1.54180   50.00000   50.00000   50.00000   90.00000   90.00000   90.00000
LATT -1
SFAC C  
C      1  0.4973360000000  0.5125430000000  0.5014080000000 1.0
C      1  0.5854420000000  0.4660980000000  0.4594060000000 1.0
C      1  0.4094300000000  0.5352370000000  0.4746290000000 1.0
C      1  0.4578540000000  0.5698420000000  0.4503260000000 1.0
C      1  0.5220210000000  0.4293460000000  0.4958070000000 1.0
C      1  0.4691290000000  0.5492800000000  0.5744660000000 1.0
C      1  0.4409010000000  0.4151410000000  0.5281300000000 1.0
C      1  0.4558360000000  0.5587020000000  0.5262570000000 1.0
C      1  0.4198730000000  0.4342310000000  0.5224270000000 1.0
C      1  0.5085380000000  0.4204030000000  0.5446910000000 1.0
C      1  0.5461150000000  0.4625740000000  0.5695000000000 1.0
C      1  0.5544190000000  0.4350560000000  0.5668990000000 1.0
C      1  0.5221220000000  0.6041630000000  0.4672100000000 1.0
C      1  0.4992590000000  0.4568200000000  0.4308930000000 1.0
C      1  0.5634230000000  0.4570190000000  0.4419780000000 1.0
C      1  0.4590000000000  0.4775160000000  0.5046610000000 1.0
C      1  0.4981090000000  0.5514940000000  0.4282190000000 1.0
C      1  0.4484350000000  0.5093430000000  0.5659960000000 1.0
C      1  0.4577020000000  0.4966010000000  0.5924780000000 1.0
C      1  0.4496380000000  0.4580540000000  0.5256190000000 1.0
C      1  0.5526480000000  0.5026030000000  0.4793230000000 1.0
C      1  0.4533120000000  0.5340030000000  0.4147460000000 1.0
C      1  0.4785730000000  0.4563550000000  0.5778560000000 1.0
C      1  0.5302900000000  0.5033660000000  0.5377860000000 1.0
C      1  0.4464680000000  0.5033630000000  0.5027870000000 1.0
C      1  0.5005990000000  0.4937480000000  0.4766320000000 1.0
C      1  0.5497540000000  0.4667480000000  0.5197470000000 1.0
C      1  0.5922010000000  0.4866850000000  0.5137950000000 1.0
C      1  0.4516650000000  0.4090250000000  0.5012630000000 1.0
C      1  0.4684180000000  0.5256950000000  0.4604410000000 1.0
C      1  0.5438970000000  0.5935480000000  0.5089400000000 1.0
C      1  0.4575220000000  0.4165020000000  0.5514920000000 1.0
C      1  0.4774330000000  0.4685020000000  0.4822070000000 1.0
C      1  0.5949800000000  0.5058490000000  0.5362310000000 1.0
C      1  0.4019580000000  0.4886380000000  0.5096380000000 1.0
C      1  0.5751770000000  0.5010020000000  0.5578340000000 1.0
C      1  0.4048360000000  0.4692980000000  0.4893460000000 1.0
C      1  0.5027420000000  0.5584210000000  0.5175490000000 1.0
C      1  0.4391730000000  0.4261930000000  0.4798720000000 1.0
C      1  0.4481820000000  0.5536270000000  0.4973600000000 1.0
C      1  0.5713940000000  0.4220970000000  0.4750190000000 1.0
C      1  0.5932680000000  0.5351770000000  0.5287750000000 1.0
C      1  0.4326250000000  0.4582420000000  0.5753740000000 1.0
C      1  0.5447160000000  0.5795940000000  0.5342700000000 1.0
C      1  0.4513040000000  0.4738970000000  0.4132440000000 1.0
C      1  0.4422210000000  0.5383080000000  0.5682550000000 1.0
C      1  0.5890050000000  0.4932030000000  0.4685230000000 1.0
C      1  0.4626780000000  0.4744290000000  0.4580650000000 1.0
C      1  0.5182180000000  0.5990510000000  0.4958850000000 1.0
C      1  0.5226640000000  0.4044150000000  0.4750990000000 1.0
C      1  0.5151380000000  0.5381810000000  0.5604390000000 1.0
C      1  0.4620740000000  0.6018220000000  0.4905050000000 1.0
C      1  0.4662010000000  0.5841810000000  0.5363040000000 1.0
C      1  0.5496370000000  0.5919610000000  0.4652510000000 1.0
C      1  0.4680000000000  0.6064490000000  0.5181200000000 1.0
C      1  0.5779560000000  0.4413660000000  0.5277810000000 1.0
C      1  0.5668480000000  0.5713570000000  0.5485540000000 1.0
C      1  0.4776870000000  0.4505450000000  0.5343570000000 1.0
C      1  0.4979940000000  0.4797200000000  0.5707560000000 1.0
C      1  0.4268280000000  0.4827810000000  0.4239200000000 1.0
C      1  0.5410430000000  0.4182290000000  0.5474670000000 1.0
C      1  0.4722490000000  0.4991960000000  0.4505970000000 1.0
C      1  0.4213400000000  0.5256890000000  0.4515550000000 1.0
C      1  0.5187650000000  0.4600600000000  0.5606830000000 1.0
C      1  0.4324220000000  0.5500500000000  0.5425510000000 1.0
C      1  0.5307430000000  0.5473420000000  0.4198310000000 1.0
C      1  0.4940350000000  0.5834210000000  0.5018640000000 1.0
C      1  0.5102250000000  0.4428920000000  0.4549210000000 1.0
C      1  0.4800700000000  0.5426470000000  0.5286040000000 1.0
C      1  0.4808040000000  0.4022340000000  0.5011020000000 1.0
C      1  0.5571460000000  0.5050050000000  0.4234490000000 1.0
C      1  0.5528470000000  0.4844570000000  0.5466870000000 1.0
C      1  0.5088470000000  0.4992920000000  0.5924000000000 1.0
C      1  0.5049990000000  0.5805260000000  0.5684520000000 1.0
C      1  0.5152750000000  0.5571160000000  0.5841220000000 1.0
C      1  0.5387040000000  0.4786770000000  0.4927220000000 1.0
C      1  0.5281250000000  0.4187840000000  0.4491650000000 1.0
C      1  0.4860360000000  0.5310890000000  0.5553040000000 1.0
C      1  0.5014320000000  0.5950210000000  0.4503290000000 1.0
C      1  0.5468720000000  0.4774870000000  0.4288560000000 1.0
C      1  0.4624510000000  0.4986250000000  0.4028290000000 1.0
C      1  0.4035010000000  0.4806850000000  0.4640590000000 1.0
C      1  0.4140670000000  0.5352220000000  0.5233950000000 1.0
C      1  0.5677850000000  0.5430200000000  0.5444990000000 1.0
C      1  0.5868160000000  0.4469960000000  0.4812640000000 1.0
C      1  0.5226950000000  0.4545040000000  0.5315930000000 1.0
C      1  0.4184410000000  0.5486760000000  0.4971660000000 1.0
C      1  0.4573940000000  0.5756660000000  0.4792880000000 1.0
C      1  0.5341560000000  0.5282570000000  0.4728110000000 1.0
C      1  0.5666220000000  0.5243950000000  0.4433930000000 1.0
C      1  0.4628820000000  0.5261810000000  0.4914500000000 1.0
C      1  0.4760890000000  0.4055380000000  0.4536940000000 1.0
C      1  0.4807940000000  0.5388570000000  0.4065350000000 1.0
C      1  0.4223670000000  0.5061100000000  0.5210240000000 1.0
C      1  0.5113220000000  0.5038620000000  0.4179500000000 1.0
C      1  0.5880880000000  0.5209990000000  0.4628350000000 1.0
C      1  0.5865610000000  0.5336810000000  0.4986810000000 1.0
C      1  0.5022100000000  0.4956870000000  0.5271260000000 1.0
C      1  0.4592480000000  0.4298270000000  0.4568720000000 1.0
C      1  0.4281480000000  0.4961190000000  0.5487200000000 1.0
C      1  0.4678470000000  0.4577060000000  0.4341840000000 1.0
C      1  0.5642230000000  0.5981770000000  0.4895820000000 1.0
C      1  0.4476580000000  0.5400710000000  0.4432740000000 1.0
C      1  0.4990990000000  0.4670390000000  0.5209270000000 1.0
C      1  0.5910000000000  0.4577010000000  0.5085810000000 1.0
C      1  0.4844330000000  0.5770560000000  0.4370960000000 1.0
C      1  0.5467960000000  0.5633290000000  0.4626350000000 1.0
C      1  0.5549500000000  0.4087590000000  0.4963650000000 1.0
C      1  0.5422620000000  0.5248120000000  0.5214390000000 1.0
C      1  0.5349110000000  0.5196190000000  0.4099680000000 1.0
C      1  0.5240330000000  0.4570260000000  0.4796460000000 1.0
C      1  0.5619550000000  0.5251910000000  0.5695470000000 1.0
C      1  0.4884740000000  0.5112050000000  0.4004000000000 1.0
C      1  0.5651300000000  0.5126460000000  0.5041140000000 1.0
C      1  0.4547120000000  0.4668190000000  0.5903280000000 1.0
C      1  0.5561450000000  0.4235630000000  0.5226450000000 1.0
C      1  0.5129520000000  0.5149360000000  0.4554580000000 1.0
C      1  0.4835420000000  0.4998930000000  0.5506690000000 1.0
C      1  0.4816760000000  0.4269110000000  0.5647870000000 1.0
C      1  0.5530060000000  0.5495730000000  0.4390920000000 1.0
C      1  0.4847320000000  0.4377420000000  0.4747960000000 1.0
C      1  0.4751600000000  0.5790270000000  0.5652420000000 1.0
C      1  0.4947380000000  0.5371620000000  0.4539840000000 1.0
C      1  0.4829210000000  0.5057680000000  0.6032460000000 1.0
C      1  0.4311120000000  0.4678520000000  0.5488790000000 1.0
C      1  0.4156260000000  0.4970970000000  0.4452090000000 1.0
C      1  0.5306210000000  0.5217560000000  0.5819340000000 1.0
C      1  0.5200730000000  0.5342630000000  0.5014420000000 1.0
C      1  0.5569400000000  0.4281380000000  0.4490660000000 1.0
C      1  0.4975390000000  0.4232940000000  0.5141960000000 1.0
C      1  0.4209820000000  0.4446980000000  0.4953820000000 1.0
C      1  0.4929210000000  0.3946610000000  0.4748870000000 1.0
C      1  0.5189080000000  0.4754250000000  0.4190210000000 1.0
C      1  0.5184430000000  0.5695560000000  0.5418020000000 1.0
END
