TITL C-3578205-846-332 -3.84163144502504e-06 125000 -873.883359099044 0 0 139 (C1) n - 1
REM
REM in /home/bkarasulu/work/CARBON/AIRSS/Generating-Clusters/EDIP-Nigel-Params/with-SteepDescent/Higher-Symm/SD-CG/HFTN-CG
REM
REM
REM
REM
REM
REM ./C.cell (12c818d87b63d06a65506943cc24bca4)
REM
REM compiler GCC version 9.2.1 20190827 (Red Hat 9.2.1-1)
REM options -cpp -mtune=generic -march=x86-64 -g -O0 -fpre-include=/usr/include/finclude/math-vector-fortran.h
REM seed -1115448014 2030208176 290010273 1136968992 -39374152 -239286557 -2085168370 1137104708 1051595046 -460642895 -97914706 -212133716 1442290365 -890329123 -1438269708 -342523248 -303436189 -321306981 1711969666 1404901623 -1687777539 598562183 1586573120 -1069570044 -2050319226 1748221950 -1677611675 2030234735 -2043533235 -796592983 70635243 -157967607 2123216878
REM
CELL 1.54180   50.00000   50.00000   50.00000   90.00000   90.00000   90.00000
LATT -1
SFAC C  
C      1  0.4694400000000  0.5589370000000  0.4368890000000 1.0
C      1  0.5301660000000  0.4411750000000  0.4377560000000 1.0
C      1  0.5309370000000  0.5586050000000  0.4358550000000 1.0
C      1  0.4682240000000  0.4404840000000  0.4369200000000 1.0
C      1  0.5139560000000  0.5492590000000  0.4125870000000 1.0
C      1  0.4850340000000  0.4494290000000  0.4131430000000 1.0
C      1  0.4851680000000  0.5519350000000  0.4124800000000 1.0
C      1  0.5140250000000  0.4481460000000  0.4135610000000 1.0
C      1  0.4729750000000  0.4646480000000  0.3926410000000 1.0
C      1  0.5259270000000  0.5335950000000  0.3924210000000 1.0
C      1  0.5281910000000  0.4629750000000  0.3950750000000 1.0
C      1  0.4708970000000  0.5367310000000  0.3943780000000 1.0
C      1  0.4377910000000  0.5137660000000  0.4297390000000 1.0
C      1  0.5622540000000  0.4862710000000  0.4308880000000 1.0
C      1  0.5536060000000  0.5154730000000  0.4281360000000 1.0
C      1  0.4459850000000  0.4840330000000  0.4278230000000 1.0
C      1  0.5238800000000  0.5222420000000  0.4896380000000 1.0
C      1  0.4758330000000  0.4778090000000  0.4895690000000 1.0
C      1  0.4742260000000  0.5217430000000  0.4882500000000 1.0
C      1  0.5256420000000  0.4782780000000  0.4894100000000 1.0
C      1  0.4878820000000  0.4856410000000  0.5971230000000 1.0
C      1  0.5208940000000  0.5144900000000  0.6004230000000 1.0
C      1  0.5146480000000  0.4767000000000  0.6004910000000 1.0
C      1  0.4903650000000  0.5148530000000  0.5960770000000 1.0
C      1  0.5494740000000  0.5139370000000  0.5354540000000 1.0
C      1  0.4499990000000  0.4864860000000  0.5335890000000 1.0
C      1  0.4485740000000  0.5170100000000  0.5346850000000 1.0
C      1  0.5511960000000  0.4831220000000  0.5354540000000 1.0
C      1  0.4835160000000  0.5793950000000  0.5625790000000 1.0
C      1  0.5175550000000  0.4193940000000  0.5627480000000 1.0
C      1  0.5155060000000  0.5782420000000  0.5613500000000 1.0
C      1  0.4847470000000  0.4220960000000  0.5629480000000 1.0
C      1  0.4867700000000  0.5723850000000  0.4579360000000 1.0
C      1  0.5130720000000  0.4276730000000  0.4588400000000 1.0
C      1  0.5152990000000  0.5745890000000  0.4563010000000 1.0
C      1  0.4845650000000  0.4253650000000  0.4576550000000 1.0
C      1  0.5148780000000  0.4082610000000  0.5085980000000 1.0
C      1  0.4859930000000  0.5909900000000  0.5079320000000 1.0
C      1  0.4843510000000  0.4089070000000  0.5093550000000 1.0
C      1  0.5165420000000  0.5887300000000  0.5077900000000 1.0
C      1  0.3964890000000  0.5169300000000  0.4941090000000 1.0
C      1  0.6036820000000  0.4849100000000  0.4949010000000 1.0
C      1  0.6017630000000  0.5135300000000  0.4943780000000 1.0
C      1  0.3974580000000  0.4882820000000  0.4930830000000 1.0
C      1  0.4099860000000  0.4763570000000  0.5175770000000 1.0
C      1  0.5891720000000  0.5246820000000  0.5192230000000 1.0
C      1  0.5920470000000  0.4751450000000  0.5195180000000 1.0
C      1  0.4078770000000  0.5262210000000  0.5191460000000 1.0
C      1  0.5733750000000  0.4512160000000  0.5148360000000 1.0
C      1  0.4270380000000  0.5495310000000  0.5146410000000 1.0
C      1  0.4265670000000  0.4499490000000  0.5153770000000 1.0
C      1  0.5733380000000  0.5506350000000  0.5159690000000 1.0
C      1  0.5581760000000  0.4816430000000  0.5825370000000 1.0
C      1  0.4429650000000  0.5151010000000  0.5814090000000 1.0
C      1  0.4435690000000  0.4856780000000  0.5801930000000 1.0
C      1  0.5568180000000  0.5106940000000  0.5848930000000 1.0
C      1  0.4412230000000  0.4164660000000  0.4787830000000 1.0
C      1  0.5593640000000  0.5781960000000  0.4751740000000 1.0
C      1  0.5559240000000  0.4221080000000  0.4800080000000 1.0
C      1  0.4443160000000  0.5787940000000  0.4796480000000 1.0
C      1  0.4415730000000  0.4326850000000  0.5352260000000 1.0
C      1  0.5578120000000  0.5660500000000  0.5360710000000 1.0
C      1  0.5599110000000  0.4313680000000  0.5335850000000 1.0
C      1  0.4403240000000  0.5686020000000  0.5344210000000 1.0
C      1  0.4701980000000  0.5288870000000  0.5766920000000 1.0
C      1  0.5316750000000  0.4673870000000  0.5782340000000 1.0
C      1  0.5256460000000  0.5301330000000  0.5743620000000 1.0
C      1  0.4709910000000  0.4728610000000  0.5760590000000 1.0
C      1  0.5334420000000  0.5592030000000  0.5772830000000 1.0
C      1  0.4658660000000  0.4421570000000  0.5774670000000 1.0
C      1  0.4643120000000  0.5599620000000  0.5779380000000 1.0
C      1  0.5378860000000  0.4373670000000  0.5776010000000 1.0
C      1  0.5131640000000  0.5452930000000  0.4993530000000 1.0
C      1  0.4861600000000  0.4546020000000  0.4996630000000 1.0
C      1  0.4825820000000  0.5468590000000  0.4977330000000 1.0
C      1  0.5167470000000  0.4529880000000  0.4988390000000 1.0
C      1  0.4096850000000  0.4834280000000  0.4672020000000 1.0
C      1  0.5893110000000  0.5184330000000  0.4684480000000 1.0
C      1  0.5880430000000  0.4891260000000  0.4597980000000 1.0
C      1  0.4117000000000  0.5125230000000  0.4586680000000 1.0
C      1  0.5533120000000  0.5745490000000  0.4264360000000 1.0
C      1  0.4461400000000  0.4236120000000  0.4286530000000 1.0
C      1  0.4476730000000  0.5769000000000  0.4302490000000 1.0
C      1  0.5518110000000  0.4231860000000  0.4307580000000 1.0
C      1  0.4638180000000  0.4878450000000  0.4054330000000 1.0
C      1  0.5358440000000  0.5111310000000  0.4059100000000 1.0
C      1  0.5456920000000  0.4840890000000  0.3982780000000 1.0
C      1  0.4536650000000  0.5153780000000  0.3979580000000 1.0
C      1  0.5253850000000  0.4741350000000  0.5474050000000 1.0
C      1  0.4737150000000  0.5253330000000  0.5464150000000 1.0
C      1  0.4782450000000  0.4785230000000  0.5455890000000 1.0
C      1  0.5216920000000  0.5211390000000  0.5450760000000 1.0
C      1  0.5638980000000  0.4414390000000  0.5606340000000 1.0
C      1  0.4372240000000  0.5573680000000  0.5615400000000 1.0
C      1  0.4390940000000  0.4449640000000  0.5614250000000 1.0
C      1  0.5603660000000  0.5542830000000  0.5625310000000 1.0
C      1  0.4820700000000  0.5487910000000  0.5305180000000 1.0
C      1  0.5171820000000  0.4501810000000  0.5308140000000 1.0
C      1  0.5134790000000  0.5470110000000  0.5295400000000 1.0
C      1  0.4851990000000  0.4519030000000  0.5300400000000 1.0
C      1  0.4285820000000  0.5271260000000  0.5578880000000 1.0
C      1  0.5716030000000  0.4719100000000  0.5580290000000 1.0
C      1  0.5673670000000  0.5242530000000  0.5591350000000 1.0
C      1  0.4301630000000  0.4743190000000  0.5564340000000 1.0
C      1  0.4484930000000  0.4835130000000  0.4969340000000 1.0
C      1  0.5511770000000  0.5174640000000  0.4977290000000 1.0
C      1  0.5526250000000  0.4860310000000  0.4973660000000 1.0
C      1  0.4472560000000  0.5147850000000  0.4963000000000 1.0
C      1  0.5735320000000  0.4446060000000  0.4864450000000 1.0
C      1  0.4268550000000  0.5563260000000  0.4861790000000 1.0
C      1  0.4268310000000  0.4414620000000  0.4871900000000 1.0
C      1  0.5782330000000  0.5651620000000  0.4919000000000 1.0
C      1  0.5608800000000  0.4130420000000  0.4540300000000 1.0
C      1  0.4393070000000  0.5875230000000  0.4535730000000 1.0
C      1  0.4363290000000  0.4126370000000  0.4512950000000 1.0
C      1  0.5669010000000  0.5815800000000  0.4486120000000 1.0
C      1  0.4709070000000  0.4169810000000  0.4826530000000 1.0
C      1  0.5303130000000  0.5812050000000  0.4807300000000 1.0
C      1  0.5260100000000  0.4263210000000  0.4856280000000 1.0
C      1  0.4740290000000  0.5738670000000  0.4848190000000 1.0
C      1  0.4340490000000  0.5302530000000  0.4715380000000 1.0
C      1  0.5659810000000  0.4707700000000  0.4725790000000 1.0
C      1  0.5644450000000  0.5341040000000  0.4740890000000 1.0
C      1  0.4343100000000  0.4675700000000  0.4731030000000 1.0
C      1  0.4573100000000  0.5308390000000  0.4481360000000 1.0
C      1  0.5427600000000  0.4693170000000  0.4492330000000 1.0
C      1  0.5427460000000  0.5321150000000  0.4495880000000 1.0
C      1  0.4565370000000  0.4676720000000  0.4494900000000 1.0
C      1  0.4808190000000  0.4829080000000  0.4615240000000 1.0
C      1  0.5184150000000  0.5166920000000  0.4617330000000 1.0
C      1  0.5191720000000  0.4854700000000  0.4616310000000 1.0
C      1  0.4813370000000  0.5142610000000  0.4606620000000 1.0
C      1  0.4711240000000  0.5773780000000  0.5340550000000 1.0
C      1  0.5291800000000  0.4221890000000  0.5340380000000 1.0
C      1  0.5277160000000  0.5737270000000  0.5336150000000 1.0
C      1  0.4720170000000  0.4245550000000  0.5345170000000 1.0
C      1  0.5911390000000  0.5003920000000  0.5388910000000 1.0
C      1  0.4081770000000  0.5006080000000  0.5374220000000 1.0
C      1  0.5050640000000  0.4949910000000  0.5436280000000 1.0
END
