TITL C-3578208-4450-37 -2.39276512385804e-07 125000 -132.068064759619 0 0 22 (C2v) n - 1
REM
REM in /home/bkarasulu/work/CARBON/AIRSS/Generating-Clusters/EDIP-Nigel-Params/with-SteepDescent/Higher-Symm/SD-CG/HFTN-CG
REM
REM
REM
REM
REM
REM ./C.cell (12c818d87b63d06a65506943cc24bca4)
REM
REM compiler GCC version 9.2.1 20190827 (Red Hat 9.2.1-1)
REM options -cpp -mtune=generic -march=x86-64 -g -O0 -fpre-include=/usr/include/finclude/math-vector-fortran.h
REM seed -1081251954 -669807599 -1816537309 -1210785896 459402720 1267606131 575468346 524138147 1943154312 -1532644758 2104173000 -1910238757 1538748361 1595774006 1457619566 519058745 -1374058141 -762413556 -1024698295 -397962056 372950778 -842154326 506659052 1749746797 -1746716703 502668786 -984242497 870556319 895821038 1552735588 -2084969609 1314808107 1920444830
REM
CELL 1.54180   50.00000   50.00000   50.00000   90.00000   90.00000   90.00000
LATT -1
SFAC C  
C      1  0.5218300000000  0.4689850000000  0.4791930000000 1.0
C      1  0.5218300000000  0.5310150000000  0.4791930000000 1.0
C      1  0.5265330000000  0.4866410000000  0.5434080000000 1.0
C      1  0.5265330000000  0.5133590000000  0.5434080000000 1.0
C      1  0.4897000000000  0.5401130000000  0.5320700000000 1.0
C      1  0.4897000000000  0.4598870000000  0.5320700000000 1.0
C      1  0.4872170000000  0.4865510000000  0.4500710000000 1.0
C      1  0.4872170000000  0.5134490000000  0.4500710000000 1.0
C      1  0.4531530000000  0.4866410000000  0.5198410000000 1.0
C      1  0.4531530000000  0.5133590000000  0.5198410000000 1.0
C      1  0.4684180000000  0.4641870000000  0.5147650000000 1.0
C      1  0.4684180000000  0.5358130000000  0.5147650000000 1.0
C      1  0.4943670000000  0.4689850000000  0.4703730000000 1.0
C      1  0.4943670000000  0.5310150000000  0.4703730000000 1.0
C      1  0.5271910000000  0.5401450000000  0.5048900000000 1.0
C      1  0.5271910000000  0.4598550000000  0.5048900000000 1.0
C      1  0.5170790000000  0.4641870000000  0.5303930000000 1.0
C      1  0.5170790000000  0.5358130000000  0.5303930000000 1.0
C      1  0.4750470000000  0.4598550000000  0.4881430000000 1.0
C      1  0.4750470000000  0.5401450000000  0.4881430000000 1.0
C      1  0.5394650000000  0.4865510000000  0.4668510000000 1.0
C      1  0.5394650000000  0.5134490000000  0.4668510000000 1.0
END
