TITL C-3577089-586-128 4.51062750147752e-07 125000 -626.240739475004 0 0 101 (C1) n - 1
REM
REM in /home/bkarasulu/work/CARBON/AIRSS/Generating-Clusters/EDIP-Nigel-Params/with-SteepDescent/Higher-Symm/SD-CG/HFTN-CG
REM
REM
REM
REM
REM
REM ./C.cell (12c818d87b63d06a65506943cc24bca4)
REM
REM compiler GCC version 9.2.1 20190827 (Red Hat 9.2.1-1)
REM options -cpp -mtune=generic -march=x86-64 -g -O0 -fpre-include=/usr/include/finclude/math-vector-fortran.h
REM seed 1857323259 -1184995407 1304859427 1108348235 -141699353 -1898996913 -120866326 614528075 145112203 230037378 1327899518 -1823569853 -906001126 1120898942 1326416237 89910137 144511185 1026210448 409157905 -1176586778 -745043332 275181390 1018703283 1437340944 451745833 -1099087468 234701858 900173317 -1793539965 62407231 1880147277 -417877990 827117095
REM
CELL 1.54180   50.00000   50.00000   50.00000   90.00000   90.00000   90.00000
LATT -1
SFAC C  
C      1  0.4617560000000  0.4237060000000  0.5116480000000 1.0
C      1  0.4598700000000  0.5642640000000  0.5146670000000 1.0
C      1  0.5804730000000  0.5074140000000  0.5103930000000 1.0
C      1  0.5757320000000  0.5536180000000  0.5258040000000 1.0
C      1  0.5051190000000  0.4056290000000  0.5256920000000 1.0
C      1  0.4202470000000  0.5401350000000  0.5276640000000 1.0
C      1  0.4833890000000  0.5449040000000  0.5179540000000 1.0
C      1  0.5420010000000  0.4854980000000  0.5088970000000 1.0
C      1  0.4648970000000  0.4626480000000  0.5083470000000 1.0
C      1  0.5401480000000  0.4662200000000  0.5332980000000 1.0
C      1  0.4508110000000  0.4778870000000  0.5329310000000 1.0
C      1  0.5057480000000  0.5534180000000  0.5384420000000 1.0
C      1  0.5171480000000  0.4486330000000  0.5264760000000 1.0
C      1  0.4487900000000  0.5056000000000  0.5240290000000 1.0
C      1  0.5320010000000  0.5418290000000  0.5292540000000 1.0
C      1  0.4377880000000  0.4889340000000  0.4425610000000 1.0
C      1  0.5153150000000  0.5552260000000  0.4396140000000 1.0
C      1  0.5416580000000  0.4531850000000  0.4404270000000 1.0
C      1  0.4451140000000  0.5553730000000  0.4899480000000 1.0
C      1  0.5769350000000  0.5250400000000  0.4872130000000 1.0
C      1  0.4776160000000  0.4162070000000  0.4872110000000 1.0
C      1  0.5406620000000  0.5876650000000  0.5385330000000 1.0
C      1  0.5529830000000  0.4190040000000  0.5373980000000 1.0
C      1  0.4065240000000  0.4943200000000  0.5423010000000 1.0
C      1  0.4726840000000  0.5900960000000  0.5109780000000 1.0
C      1  0.5853280000000  0.4788930000000  0.5081410000000 1.0
C      1  0.4332560000000  0.4329850000000  0.5093500000000 1.0
C      1  0.5180580000000  0.4854200000000  0.4057320000000 1.0
C      1  0.4709580000000  0.5020030000000  0.4090170000000 1.0
C      1  0.5136910000000  0.5346850000000  0.3967670000000 1.0
C      1  0.4850800000000  0.4366060000000  0.5533950000000 1.0
C      1  0.4517420000000  0.5492680000000  0.5610830000000 1.0
C      1  0.5612830000000  0.5201920000000  0.5536300000000 1.0
C      1  0.5478220000000  0.4841670000000  0.4776880000000 1.0
C      1  0.4585120000000  0.4613440000000  0.4764900000000 1.0
C      1  0.4772670000000  0.5777780000000  0.4597980000000 1.0
C      1  0.4903330000000  0.4636140000000  0.5578680000000 1.0
C      1  0.4716940000000  0.5348290000000  0.5744540000000 1.0
C      1  0.5360980000000  0.5093170000000  0.5584960000000 1.0
C      1  0.4785590000000  0.4159630000000  0.5355530000000 1.0
C      1  0.4406310000000  0.5597070000000  0.5375960000000 1.0
C      1  0.5808730000000  0.5251770000000  0.5341890000000 1.0
C      1  0.4309410000000  0.4683580000000  0.4655310000000 1.0
C      1  0.5044620000000  0.5715810000000  0.4619610000000 1.0
C      1  0.5606080000000  0.4584750000000  0.4645820000000 1.0
C      1  0.4201410000000  0.4796490000000  0.4902290000000 1.0
C      1  0.5157130000000  0.5724170000000  0.4893930000000 1.0
C      1  0.5559920000000  0.4416990000000  0.4884350000000 1.0
C      1  0.5209150000000  0.4778550000000  0.4628720000000 1.0
C      1  0.4715680000000  0.4865500000000  0.4628060000000 1.0
C      1  0.5045560000000  0.5232410000000  0.4680120000000 1.0
C      1  0.4998350000000  0.5418420000000  0.5674520000000 1.0
C      1  0.5353990000000  0.4804880000000  0.5598580000000 1.0
C      1  0.4669390000000  0.4803930000000  0.5598400000000 1.0
C      1  0.4577610000000  0.4801050000000  0.4215330000000 1.0
C      1  0.4985650000000  0.5475790000000  0.4167530000000 1.0
C      1  0.5402810000000  0.4783080000000  0.4229550000000 1.0
C      1  0.4880570000000  0.4401890000000  0.4428540000000 1.0
C      1  0.4523260000000  0.5399450000000  0.4415990000000 1.0
C      1  0.5566950000000  0.5227710000000  0.4427350000000 1.0
C      1  0.5189470000000  0.5209160000000  0.5792160000000 1.0
C      1  0.5115260000000  0.4728160000000  0.5756930000000 1.0
C      1  0.4725200000000  0.5045210000000  0.5820960000000 1.0
C      1  0.4331700000000  0.5187320000000  0.4456400000000 1.0
C      1  0.5417230000000  0.5457830000000  0.4376130000000 1.0
C      1  0.5165560000000  0.4374960000000  0.4475910000000 1.0
C      1  0.5251020000000  0.4226300000000  0.5403390000000 1.0
C      1  0.4260950000000  0.5148310000000  0.5419340000000 1.0
C      1  0.5514750000000  0.5617550000000  0.5414150000000 1.0
C      1  0.5055360000000  0.4575080000000  0.4793730000000 1.0
C      1  0.4577470000000  0.5111220000000  0.4744000000000 1.0
C      1  0.5296300000000  0.5253530000000  0.4842060000000 1.0
C      1  0.5566980000000  0.5007300000000  0.4261370000000 1.0
C      1  0.4766290000000  0.4602770000000  0.4273100000000 1.0
C      1  0.4707460000000  0.5379530000000  0.4191050000000 1.0
C      1  0.5364600000000  0.5509640000000  0.4984810000000 1.0
C      1  0.5228040000000  0.4388760000000  0.4964400000000 1.0
C      1  0.4367140000000  0.5066730000000  0.4961720000000 1.0
C      1  0.5675770000000  0.5521550000000  0.4967570000000 1.0
C      1  0.5068560000000  0.4123190000000  0.4959690000000 1.0
C      1  0.4245340000000  0.5349740000000  0.4979030000000 1.0
C      1  0.5626140000000  0.4457700000000  0.5352800000000 1.0
C      1  0.4217300000000  0.4707880000000  0.5375780000000 1.0
C      1  0.5126780000000  0.5829230000000  0.5367740000000 1.0
C      1  0.4177480000000  0.4573870000000  0.5114430000000 1.0
C      1  0.5011850000000  0.5885260000000  0.5102280000000 1.0
C      1  0.5754010000000  0.4517420000000  0.5096570000000 1.0
C      1  0.4933200000000  0.4709370000000  0.5053850000000 1.0
C      1  0.4803940000000  0.5295480000000  0.4832250000000 1.0
C      1  0.5243800000000  0.5093580000000  0.5093540000000 1.0
C      1  0.5549360000000  0.5141670000000  0.4707040000000 1.0
C      1  0.4702920000000  0.4354920000000  0.4655460000000 1.0
C      1  0.4561110000000  0.5595830000000  0.4627270000000 1.0
C      1  0.4930030000000  0.5072770000000  0.5497660000000 1.0
C      1  0.5239730000000  0.5096130000000  0.3906590000000 1.0
C      1  0.5025890000000  0.4976720000000  0.5918920000000 1.0
C      1  0.5055150000000  0.4953160000000  0.6189820000000 1.0
C      1  0.4781230000000  0.5158140000000  0.5252760000000 1.0
C      1  0.4999330000000  0.4979960000000  0.4527740000000 1.0
C      1  0.4958230000000  0.5015340000000  0.5055270000000 1.0
C      1  0.4983620000000  0.5036670000000  0.4208720000000 1.0
END
