TITL C-3578201-9217-508 -6.53452489600129e-06 125000 -830.176092504348 0 0 135 (C1) n - 1
REM
REM in /home/bkarasulu/work/CARBON/AIRSS/Generating-Clusters/EDIP-Nigel-Params/with-SteepDescent/Higher-Symm/SD-CG/HFTN-CG
REM
REM
REM
REM
REM
REM ./C.cell (12c818d87b63d06a65506943cc24bca4)
REM
REM compiler GCC version 9.2.1 20190827 (Red Hat 9.2.1-1)
REM options -cpp -mtune=generic -march=x86-64 -g -O0 -fpre-include=/usr/include/finclude/math-vector-fortran.h
REM seed 893211566 -970344087 -883518610 -657577130 -1999714523 241712619 -636502879 -2106108543 -1208589777 1854858207 -240809948 2003486475 603448628 -1975823043 -1476117456 201769848 1640962522 1416993107 -1076021621 -18351435 667928702 -1284259967 -1990176451 -1404451419 962931758 160089672 -773438317 1155699232 -726300508 722701232 -308032185 1762018428 1505229266
REM
CELL 1.54180   50.00000   50.00000   50.00000   90.00000   90.00000   90.00000
LATT -1
SFAC C  
C      1  0.5070820000000  0.4731060000000  0.5616910000000 1.0
C      1  0.5245210000000  0.5205450000000  0.5601920000000 1.0
C      1  0.4713030000000  0.5100680000000  0.5618230000000 1.0
C      1  0.5061130000000  0.4677520000000  0.4445710000000 1.0
C      1  0.5295640000000  0.5205100000000  0.4240240000000 1.0
C      1  0.4760310000000  0.5096460000000  0.4403960000000 1.0
C      1  0.4932490000000  0.5314040000000  0.5709460000000 1.0
C      1  0.5312450000000  0.4916210000000  0.5708230000000 1.0
C      1  0.4826630000000  0.4847170000000  0.5742640000000 1.0
C      1  0.5078490000000  0.5324270000000  0.4422400000000 1.0
C      1  0.5293200000000  0.4814990000000  0.4259890000000 1.0
C      1  0.4791880000000  0.4791420000000  0.4363100000000 1.0
C      1  0.4975760000000  0.5592140000000  0.5140150000000 1.0
C      1  0.4577980000000  0.4552580000000  0.5121010000000 1.0
C      1  0.5665690000000  0.4781480000000  0.5193460000000 1.0
C      1  0.4887270000000  0.5531590000000  0.4868070000000 1.0
C      1  0.4540040000000  0.4667120000000  0.4851960000000 1.0
C      1  0.5619170000000  0.4637110000000  0.4924780000000 1.0
C      1  0.4863190000000  0.4440730000000  0.5153290000000 1.0
C      1  0.4546050000000  0.5277560000000  0.5135280000000 1.0
C      1  0.5671920000000  0.5095270000000  0.5161670000000 1.0
C      1  0.4985390000000  0.4406390000000  0.4874970000000 1.0
C      1  0.4642330000000  0.5343900000000  0.4860130000000 1.0
C      1  0.5589000000000  0.5239590000000  0.4906620000000 1.0
C      1  0.4994170000000  0.5331830000000  0.5300930000000 1.0
C      1  0.4844380000000  0.4898270000000  0.5171510000000 1.0
C      1  0.5283450000000  0.4887740000000  0.5199030000000 1.0
C      1  0.5105910000000  0.5248390000000  0.4711720000000 1.0
C      1  0.4810030000000  0.4848080000000  0.4872450000000 1.0
C      1  0.5324350000000  0.4825160000000  0.4895590000000 1.0
C      1  0.5047340000000  0.4721590000000  0.5306640000000 1.0
C      1  0.4754900000000  0.5143150000000  0.5301070000000 1.0
C      1  0.5262310000000  0.5179430000000  0.5289000000000 1.0
C      1  0.5061860000000  0.4689630000000  0.4768590000000 1.0
C      1  0.4810200000000  0.5119080000000  0.4719700000000 1.0
C      1  0.5364330000000  0.5092120000000  0.4768510000000 1.0
C      1  0.5123690000000  0.4824460000000  0.6130790000000 1.0
C      1  0.5224450000000  0.5294380000000  0.6005720000000 1.0
C      1  0.4765660000000  0.5137080000000  0.6131240000000 1.0
C      1  0.4949510000000  0.4738450000000  0.3912530000000 1.0
C      1  0.5170050000000  0.5155030000000  0.3968690000000 1.0
C      1  0.4693110000000  0.5114660000000  0.4078480000000 1.0
C      1  0.4921640000000  0.5337040000000  0.6012130000000 1.0
C      1  0.5298440000000  0.4995500000000  0.5993160000000 1.0
C      1  0.4868280000000  0.4893980000000  0.6032670000000 1.0
C      1  0.4901950000000  0.5235030000000  0.3933500000000 1.0
C      1  0.5192960000000  0.4864920000000  0.3977790000000 1.0
C      1  0.4726520000000  0.4809540000000  0.4070050000000 1.0
C      1  0.5246010000000  0.4110940000000  0.5064440000000 1.0
C      1  0.5708420000000  0.5667600000000  0.5184010000000 1.0
C      1  0.3924710000000  0.5275640000000  0.5148130000000 1.0
C      1  0.5177450000000  0.4078990000000  0.4801550000000 1.0
C      1  0.5701430000000  0.5665040000000  0.4911850000000 1.0
C      1  0.3928980000000  0.5291550000000  0.4881320000000 1.0
C      1  0.5249270000000  0.5938440000000  0.5132520000000 1.0
C      1  0.5751870000000  0.4304540000000  0.5086530000000 1.0
C      1  0.3934070000000  0.4720200000000  0.5124470000000 1.0
C      1  0.5198220000000  0.5869710000000  0.4874030000000 1.0
C      1  0.5691310000000  0.4232980000000  0.4825830000000 1.0
C      1  0.3923030000000  0.4727890000000  0.4858770000000 1.0
C      1  0.5320290000000  0.5846120000000  0.5387780000000 1.0
C      1  0.4053380000000  0.4847560000000  0.5336330000000 1.0
C      1  0.5575020000000  0.4361540000000  0.5301090000000 1.0
C      1  0.5295680000000  0.5730710000000  0.4652530000000 1.0
C      1  0.3983640000000  0.4873510000000  0.4632350000000 1.0
C      1  0.5539460000000  0.4334290000000  0.4612810000000 1.0
C      1  0.5318060000000  0.4241020000000  0.5296250000000 1.0
C      1  0.4058950000000  0.5133740000000  0.5344310000000 1.0
C      1  0.5557460000000  0.5690750000000  0.5418490000000 1.0
C      1  0.5275970000000  0.4238290000000  0.4587950000000 1.0
C      1  0.4025560000000  0.5156110000000  0.4659390000000 1.0
C      1  0.5554810000000  0.5615880000000  0.4675060000000 1.0
C      1  0.4868070000000  0.5792600000000  0.4450710000000 1.0
C      1  0.4243370000000  0.4480660000000  0.4482360000000 1.0
C      1  0.5808260000000  0.4727870000000  0.4478600000000 1.0
C      1  0.4853200000000  0.5876470000000  0.5521620000000 1.0
C      1  0.4279820000000  0.4417230000000  0.5465040000000 1.0
C      1  0.5908280000000  0.4662580000000  0.5538780000000 1.0
C      1  0.4824860000000  0.4232410000000  0.4437720000000 1.0
C      1  0.4347410000000  0.5465030000000  0.4450950000000 1.0
C      1  0.5832260000000  0.5249790000000  0.4490630000000 1.0
C      1  0.4873160000000  0.4155410000000  0.5489170000000 1.0
C      1  0.4312260000000  0.5553160000000  0.5473880000000 1.0
C      1  0.5776340000000  0.5301580000000  0.5617800000000 1.0
C      1  0.4115210000000  0.4851720000000  0.4163140000000 1.0
C      1  0.5440270000000  0.4559600000000  0.4186480000000 1.0
C      1  0.5293550000000  0.5682990000000  0.4184480000000 1.0
C      1  0.4313520000000  0.4845160000000  0.5738070000000 1.0
C      1  0.5455980000000  0.4564410000000  0.5736000000000 1.0
C      1  0.5221560000000  0.5755830000000  0.5850350000000 1.0
C      1  0.4108510000000  0.5121170000000  0.4195980000000 1.0
C      1  0.5470910000000  0.5456240000000  0.4207480000000 1.0
C      1  0.5245950000000  0.4349780000000  0.4137480000000 1.0
C      1  0.4416340000000  0.5106700000000  0.5701930000000 1.0
C      1  0.5381950000000  0.5525900000000  0.5869440000000 1.0
C      1  0.5218760000000  0.4402800000000  0.5743210000000 1.0
C      1  0.5919620000000  0.4853520000000  0.5742870000000 1.0
C      1  0.4633280000000  0.5861630000000  0.5692660000000 1.0
C      1  0.4434510000000  0.4291830000000  0.5661350000000 1.0
C      1  0.5979820000000  0.4871630000000  0.4312800000000 1.0
C      1  0.4665510000000  0.5770600000000  0.4262300000000 1.0
C      1  0.4376550000000  0.4333890000000  0.4286110000000 1.0
C      1  0.5828700000000  0.5100110000000  0.5800750000000 1.0
C      1  0.4684550000000  0.4199580000000  0.5688250000000 1.0
C      1  0.4403970000000  0.5722440000000  0.5677980000000 1.0
C      1  0.6021540000000  0.5138920000000  0.4314720000000 1.0
C      1  0.4620740000000  0.4229580000000  0.4251080000000 1.0
C      1  0.4429030000000  0.5645120000000  0.4255940000000 1.0
C      1  0.5129400000000  0.5841220000000  0.5601500000000 1.0
C      1  0.4221170000000  0.4702580000000  0.5515250000000 1.0
C      1  0.5656610000000  0.4506970000000  0.5538130000000 1.0
C      1  0.5127140000000  0.5639900000000  0.4422130000000 1.0
C      1  0.4124950000000  0.4739020000000  0.4420360000000 1.0
C      1  0.5641450000000  0.4503300000000  0.4396370000000 1.0
C      1  0.5119700000000  0.4307270000000  0.5493490000000 1.0
C      1  0.4225900000000  0.5274370000000  0.5544380000000 1.0
C      1  0.5567270000000  0.5498570000000  0.5640200000000 1.0
C      1  0.5093750000000  0.4365260000000  0.4388610000000 1.0
C      1  0.4119760000000  0.5289020000000  0.4419610000000 1.0
C      1  0.5662490000000  0.5480440000000  0.4433950000000 1.0
C      1  0.4435200000000  0.5511970000000  0.4720460000000 1.0
C      1  0.4755090000000  0.4301260000000  0.4716090000000 1.0
C      1  0.5860520000000  0.5217370000000  0.4780800000000 1.0
C      1  0.4473060000000  0.5544420000000  0.5225470000000 1.0
C      1  0.4761050000000  0.4160080000000  0.5221800000000 1.0
C      1  0.5830930000000  0.5241300000000  0.5353060000000 1.0
C      1  0.4347350000000  0.4456120000000  0.4755400000000 1.0
C      1  0.4787670000000  0.5776550000000  0.4731870000000 1.0
C      1  0.5846320000000  0.4731170000000  0.4763640000000 1.0
C      1  0.4369670000000  0.4360410000000  0.5187430000000 1.0
C      1  0.4815880000000  0.5818530000000  0.5240090000000 1.0
C      1  0.5961130000000  0.4763420000000  0.5263450000000 1.0
C      1  0.4548080000000  0.4172440000000  0.4904380000000 1.0
C      1  0.4524000000000  0.5756680000000  0.5001940000000 1.0
C      1  0.5949210000000  0.4956960000000  0.4925500000000 1.0
END
