TITL C-3577080-309-380 -4.48868514632657e-06 125000 -1173.20451608182 0 0 185 (C1) n - 1
REM
REM in /home/bkarasulu/work/CARBON/AIRSS/Generating-Clusters/EDIP-Nigel-Params/with-SteepDescent/Higher-Symm/SD-CG/HFTN-CG
REM
REM
REM
REM
REM
REM ./C.cell (12c818d87b63d06a65506943cc24bca4)
REM
REM compiler GCC version 9.2.1 20190827 (Red Hat 9.2.1-1)
REM options -cpp -mtune=generic -march=x86-64 -g -O0 -fpre-include=/usr/include/finclude/math-vector-fortran.h
REM seed 184582562 -1452896189 1698076089 -84479741 -1047820128 -786485824 1523871620 -154351588 -392119237 -1002849412 -1014701896 1732333614 -1710404179 1159546550 1662343984 425830929 592571559 -501705953 389660093 1823611483 -1002116435 -1890859024 248063280 1853431809 -1429669036 -851686686 1681228477 -1963765084 -1519518900 -1098266099 -1101171079 -1189185664 968434679
REM
CELL 1.54180   50.00000   50.00000   50.00000   90.00000   90.00000   90.00000
LATT -1
SFAC C  
C      1  0.5280070000000  0.4051470000000  0.5037510000000 1.0
C      1  0.5136300000000  0.4064900000000  0.4737480000000 1.0
C      1  0.4814700000000  0.4075180000000  0.4765260000000 1.0
C      1  0.4735590000000  0.4045330000000  0.5145240000000 1.0
C      1  0.5000510000000  0.4089330000000  0.5304920000000 1.0
C      1  0.5366240000000  0.4864890000000  0.5525820000000 1.0
C      1  0.5610000000000  0.4852750000000  0.4806060000000 1.0
C      1  0.4996290000000  0.4833700000000  0.4332810000000 1.0
C      1  0.4385320000000  0.4827640000000  0.4774870000000 1.0
C      1  0.4590810000000  0.4830160000000  0.5513930000000 1.0
C      1  0.5860160000000  0.5066690000000  0.4340600000000 1.0
C      1  0.4626390000000  0.5036120000000  0.3955840000000 1.0
C      1  0.3903290000000  0.5046940000000  0.4977200000000 1.0
C      1  0.4654030000000  0.5089160000000  0.6025980000000 1.0
C      1  0.5904560000000  0.5056910000000  0.5635990000000 1.0
C      1  0.5497980000000  0.5908030000000  0.5063410000000 1.0
C      1  0.5204000000000  0.5885640000000  0.4545430000000 1.0
C      1  0.4610620000000  0.5879690000000  0.4658430000000 1.0
C      1  0.4549450000000  0.5898950000000  0.5257690000000 1.0
C      1  0.5113600000000  0.5939030000000  0.5512580000000 1.0
C      1  0.5191890000000  0.4771070000000  0.4556770000000 1.0
C      1  0.4664560000000  0.4795680000000  0.4677850000000 1.0
C      1  0.4561860000000  0.4756350000000  0.5222870000000 1.0
C      1  0.5063490000000  0.4842610000000  0.5439760000000 1.0
C      1  0.5483710000000  0.4758740000000  0.5059400000000 1.0
C      1  0.5823700000000  0.4357120000000  0.5145330000000 1.0
C      1  0.5396330000000  0.4352090000000  0.4236620000000 1.0
C      1  0.4422290000000  0.4337840000000  0.4382610000000 1.0
C      1  0.4220680000000  0.4333970000000  0.5350990000000 1.0
C      1  0.5093340000000  0.4358010000000  0.5838980000000 1.0
C      1  0.5340140000000  0.5418370000000  0.4767630000000 1.0
C      1  0.4832650000000  0.5328400000000  0.4638540000000 1.0
C      1  0.4585120000000  0.5249240000000  0.5172820000000 1.0
C      1  0.4932450000000  0.5317130000000  0.5468040000000 1.0
C      1  0.5385110000000  0.5404640000000  0.5274510000000 1.0
C      1  0.5699420000000  0.4165960000000  0.4944880000000 1.0
C      1  0.5176880000000  0.4150810000000  0.4297300000000 1.0
C      1  0.4404700000000  0.4129840000000  0.4603420000000 1.0
C      1  0.4438150000000  0.4152550000000  0.5456080000000 1.0
C      1  0.5243230000000  0.4154680000000  0.5670490000000 1.0
C      1  0.5301780000000  0.5151940000000  0.5157620000000 1.0
C      1  0.5250580000000  0.5149050000000  0.4835100000000 1.0
C      1  0.4948350000000  0.5112840000000  0.4805680000000 1.0
C      1  0.4822730000000  0.5079560000000  0.5073780000000 1.0
C      1  0.5027730000000  0.5097210000000  0.5283570000000 1.0
C      1  0.5135070000000  0.4578480000000  0.4773110000000 1.0
C      1  0.4830650000000  0.4576670000000  0.4789850000000 1.0
C      1  0.4746370000000  0.4565450000000  0.5086770000000 1.0
C      1  0.5006470000000  0.4592150000000  0.5259730000000 1.0
C      1  0.5249280000000  0.4575820000000  0.5062990000000 1.0
C      1  0.6075590000000  0.4793770000000  0.5242580000000 1.0
C      1  0.5548420000000  0.4803460000000  0.4049280000000 1.0
C      1  0.4268770000000  0.4778980000000  0.4181770000000 1.0
C      1  0.3982180000000  0.4777380000000  0.5405300000000 1.0
C      1  0.5088610000000  0.4801070000000  0.6086680000000 1.0
C      1  0.4037250000000  0.4988170000000  0.5592820000000 1.0
C      1  0.5284680000000  0.5010040000000  0.6151950000000 1.0
C      1  0.6185920000000  0.5011860000000  0.5076240000000 1.0
C      1  0.5431740000000  0.5017720000000  0.3885740000000 1.0
C      1  0.4079920000000  0.4997940000000  0.4239200000000 1.0
C      1  0.4687580000000  0.4564810000000  0.4036490000000 1.0
C      1  0.4008060000000  0.4562650000000  0.4971030000000 1.0
C      1  0.4665310000000  0.4587740000000  0.5961630000000 1.0
C      1  0.5782460000000  0.4592700000000  0.5575240000000 1.0
C      1  0.5784450000000  0.4601070000000  0.4410000000000 1.0
C      1  0.4826670000000  0.4845170000000  0.5942140000000 1.0
C      1  0.5853540000000  0.4845820000000  0.5433610000000 1.0
C      1  0.5655030000000  0.4853960000000  0.4322960000000 1.0
C      1  0.4561310000000  0.4817120000000  0.4146320000000 1.0
C      1  0.4052630000000  0.4821270000000  0.5117630000000 1.0
C      1  0.3990070000000  0.5102690000000  0.4684180000000 1.0
C      1  0.4397430000000  0.5056790000000  0.5888380000000 1.0
C      1  0.5664910000000  0.5090070000000  0.5856310000000 1.0
C      1  0.6000690000000  0.5097520000000  0.4642730000000 1.0
C      1  0.4955230000000  0.5085920000000  0.3919520000000 1.0
C      1  0.4627270000000  0.5351880000000  0.4051830000000 1.0
C      1  0.3960390000000  0.5407540000000  0.4992850000000 1.0
C      1  0.4692040000000  0.5399900000000  0.5907210000000 1.0
C      1  0.5873090000000  0.5377320000000  0.5591050000000 1.0
C      1  0.5805370000000  0.5382190000000  0.4367020000000 1.0
C      1  0.5094080000000  0.6024230000000  0.4781040000000 1.0
C      1  0.4803940000000  0.6012150000000  0.4836330000000 1.0
C      1  0.4772730000000  0.6040120000000  0.5124620000000 1.0
C      1  0.5044640000000  0.6045870000000  0.5246120000000 1.0
C      1  0.5243560000000  0.6048690000000  0.5034390000000 1.0
C      1  0.5168930000000  0.4909720000000  0.3779530000000 1.0
C      1  0.3914230000000  0.4899640000000  0.4462200000000 1.0
C      1  0.4167430000000  0.4888020000000  0.5831810000000 1.0
C      1  0.5556100000000  0.4899000000000  0.6076580000000 1.0
C      1  0.6190820000000  0.4907390000000  0.4792490000000 1.0
C      1  0.4353100000000  0.4896080000000  0.5066390000000 1.0
C      1  0.4856140000000  0.4874040000000  0.5640550000000 1.0
C      1  0.5511100000000  0.4945030000000  0.5271120000000 1.0
C      1  0.5405570000000  0.4953950000000  0.4608520000000 1.0
C      1  0.4717540000000  0.4876220000000  0.4406430000000 1.0
C      1  0.5418940000000  0.5110790000000  0.5687090000000 1.0
C      1  0.5763190000000  0.5112040000000  0.4825520000000 1.0
C      1  0.5052850000000  0.5089730000000  0.4201770000000 1.0
C      1  0.4294840000000  0.5093640000000  0.4672290000000 1.0
C      1  0.4455790000000  0.5105120000000  0.5507620000000 1.0
C      1  0.4405870000000  0.5719500000000  0.5742700000000 1.0
C      1  0.5639100000000  0.5637400000000  0.5932400000000 1.0
C      1  0.6064660000000  0.5640170000000  0.4683920000000 1.0
C      1  0.5003490000000  0.5621690000000  0.3908330000000 1.0
C      1  0.4172450000000  0.5616710000000  0.4600500000000 1.0
C      1  0.4545380000000  0.5552710000000  0.4278410000000 1.0
C      1  0.4136790000000  0.5572450000000  0.5160730000000 1.0
C      1  0.4922780000000  0.5599930000000  0.5877760000000 1.0
C      1  0.5804160000000  0.5588890000000  0.5359210000000 1.0
C      1  0.5567560000000  0.5583040000000  0.4353140000000 1.0
C      1  0.4205160000000  0.5456780000000  0.5407270000000 1.0
C      1  0.5186270000000  0.5505310000000  0.5929920000000 1.0
C      1  0.5933360000000  0.5508840000000  0.5116370000000 1.0
C      1  0.5376020000000  0.5494610000000  0.4160280000000 1.0
C      1  0.4274220000000  0.5498120000000  0.4355030000000 1.0
C      1  0.5637810000000  0.5825680000000  0.4814870000000 1.0
C      1  0.5004100000000  0.5786780000000  0.4354390000000 1.0
C      1  0.4360040000000  0.5774810000000  0.4773550000000 1.0
C      1  0.4597620000000  0.5906010000000  0.5586970000000 1.0
C      1  0.5382960000000  0.5832540000000  0.5564660000000 1.0
C      1  0.5401320000000  0.4551360000000  0.4014290000000 1.0
C      1  0.4198830000000  0.4522040000000  0.4300460000000 1.0
C      1  0.4073970000000  0.4523600000000  0.5524910000000 1.0
C      1  0.5223490000000  0.4547930000000  0.6024770000000 1.0
C      1  0.6044960000000  0.4547130000000  0.5083000000000 1.0
C      1  0.4714100000000  0.5758710000000  0.4412960000000 1.0
C      1  0.4333520000000  0.5770940000000  0.5066190000000 1.0
C      1  0.4882700000000  0.5804850000000  0.5652590000000 1.0
C      1  0.5577300000000  0.5797950000000  0.5337120000000 1.0
C      1  0.5482350000000  0.5783040000000  0.4560030000000 1.0
C      1  0.4468160000000  0.5544790000000  0.5500950000000 1.0
C      1  0.5412210000000  0.5601970000000  0.5757480000000 1.0
C      1  0.5831040000000  0.5601780000000  0.4849770000000 1.0
C      1  0.5088600000000  0.5569280000000  0.4179860000000 1.0
C      1  0.4531650000000  0.5387300000000  0.4687150000000 1.0
C      1  0.4660620000000  0.4319700000000  0.5596680000000 1.0
C      1  0.5439540000000  0.4306670000000  0.5474260000000 1.0
C      1  0.5583930000000  0.4320520000000  0.4701170000000 1.0
C      1  0.4910210000000  0.4308460000000  0.4326490000000 1.0
C      1  0.4353860000000  0.4282840000000  0.4872250000000 1.0
C      1  0.4471510000000  0.5576060000000  0.5975450000000 1.0
C      1  0.5789320000000  0.5407140000000  0.5888140000000 1.0
C      1  0.6068970000000  0.5410790000000  0.4527930000000 1.0
C      1  0.4856790000000  0.5396300000000  0.3843480000000 1.0
C      1  0.3945050000000  0.5478190000000  0.4711650000000 1.0
C      1  0.5645770000000  0.4334790000000  0.4390490000000 1.0
C      1  0.4633820000000  0.4306450000000  0.4178660000000 1.0
C      1  0.4116090000000  0.4304070000000  0.5076770000000 1.0
C      1  0.4803850000000  0.4321990000000  0.5887180000000 1.0
C      1  0.5755470000000  0.4331330000000  0.5430750000000 1.0
C      1  0.5498340000000  0.4621110000000  0.5962390000000 1.0
C      1  0.6071600000000  0.4627330000000  0.4803040000000 1.0
C      1  0.5150410000000  0.4622520000000  0.3883520000000 1.0
C      1  0.4010230000000  0.4610110000000  0.4505080000000 1.0
C      1  0.4216060000000  0.4597530000000  0.5772720000000 1.0
C      1  0.4370710000000  0.5270620000000  0.4949380000000 1.0
C      1  0.4656650000000  0.5324610000000  0.5605970000000 1.0
C      1  0.5484510000000  0.5374720000000  0.5560120000000 1.0
C      1  0.5652460000000  0.5379580000000  0.4727230000000 1.0
C      1  0.4923400000000  0.5334970000000  0.4305960000000 1.0
C      1  0.5440530000000  0.5281450000000  0.3990150000000 1.0
C      1  0.4150170000000  0.5271840000000  0.4244310000000 1.0
C      1  0.4057180000000  0.5254310000000  0.5520760000000 1.0
C      1  0.5223650000000  0.5280340000000  0.6093250000000 1.0
C      1  0.6095440000000  0.5278670000000  0.5120510000000 1.0
C      1  0.4599180000000  0.4303870000000  0.5069910000000 1.0
C      1  0.4931750000000  0.4350260000000  0.5427780000000 1.0
C      1  0.5348310000000  0.4316690000000  0.5172130000000 1.0
C      1  0.5270680000000  0.4328610000000  0.4693230000000 1.0
C      1  0.4796660000000  0.4332270000000  0.4620760000000 1.0
C      1  0.4937110000000  0.5578250000000  0.5342030000000 1.0
C      1  0.5216090000000  0.5642120000000  0.5204800000000 1.0
C      1  0.5157890000000  0.5643860000000  0.4889740000000 1.0
C      1  0.4842150000000  0.5574620000000  0.4850010000000 1.0
C      1  0.4705500000000  0.5551410000000  0.5142650000000 1.0
C      1  0.5545000000000  0.3942540000000  0.5031530000000 1.0
C      1  0.5219290000000  0.3939400000000  0.4487500000000 1.0
C      1  0.4612190000000  0.3929560000000  0.4616910000000 1.0
C      1  0.4527590000000  0.3929340000000  0.5303770000000 1.0
C      1  0.5084070000000  0.3949610000000  0.5544300000000 1.0
C      1  0.4505080000000  0.4593340000000  0.5701100000000 1.0
C      1  0.5497600000000  0.4611940000000  0.5657400000000 1.0
C      1  0.5783900000000  0.4619280000000  0.4702230000000 1.0
C      1  0.4973120000000  0.4597740000000  0.4131720000000 1.0
C      1  0.4195930000000  0.4582910000000  0.4740590000000 1.0
END
