TITL C-3578205-846-143 -7.6863749262031e-07 125000 -619.265654738505 0 0 100 (C1) n - 1
REM
REM in /home/bkarasulu/work/CARBON/AIRSS/Generating-Clusters/EDIP-Nigel-Params/with-SteepDescent/Higher-Symm/SD-CG/HFTN-CG
REM
REM
REM
REM
REM
REM ./C.cell (12c818d87b63d06a65506943cc24bca4)
REM
REM compiler GCC version 9.2.1 20190827 (Red Hat 9.2.1-1)
REM options -cpp -mtune=generic -march=x86-64 -g -O0 -fpre-include=/usr/include/finclude/math-vector-fortran.h
REM seed 591252812 1860841338 882950100 1802856032 806324035 2041483990 871651673 1027634145 194977583 58327257 1104718200 -958865663 -810038529 711692530 1473042939 -1598402560 1286517281 1028350760 -102269603 -1103644963 -192906538 -936692224 -1171031134 -372795316 1656337998 -583964710 808660449 145810744 1938798310 1711653124 -177695856 -966155614 -406843424
REM
CELL 1.54180   50.00000   50.00000   50.00000   90.00000   90.00000   90.00000
LATT -1
SFAC C  
C      1  0.4621620000000  0.5308150000000  0.4324570000000 1.0
C      1  0.5312290000000  0.4302270000000  0.4625040000000 1.0
C      1  0.4334670000000  0.4619590000000  0.5287160000000 1.0
C      1  0.5391560000000  0.4684040000000  0.4316100000000 1.0
C      1  0.4595070000000  0.4677390000000  0.5711320000000 1.0
C      1  0.5377410000000  0.5291650000000  0.5632330000000 1.0
C      1  0.4702040000000  0.5652830000000  0.4639990000000 1.0
C      1  0.5300570000000  0.5690600000000  0.5367920000000 1.0
C      1  0.4657290000000  0.4262800000000  0.5399120000000 1.0
C      1  0.5702430000000  0.5412440000000  0.5285460000000 1.0
C      1  0.4312540000000  0.5389060000000  0.4694080000000 1.0
C      1  0.5718950000000  0.4605720000000  0.4699080000000 1.0
C      1  0.5355600000000  0.4199870000000  0.4903610000000 1.0
C      1  0.4229190000000  0.4884930000000  0.5331480000000 1.0
C      1  0.4886100000000  0.5364730000000  0.4188680000000 1.0
C      1  0.4627460000000  0.5761540000000  0.4894450000000 1.0
C      1  0.5355890000000  0.5826220000000  0.5107050000000 1.0
C      1  0.4616240000000  0.4150770000000  0.5120720000000 1.0
C      1  0.5840180000000  0.5150940000000  0.5344790000000 1.0
C      1  0.4186980000000  0.5128260000000  0.4635390000000 1.0
C      1  0.5845980000000  0.4866810000000  0.4626350000000 1.0
C      1  0.5123060000000  0.4636270000000  0.4182710000000 1.0
C      1  0.4871120000000  0.4629980000000  0.5817690000000 1.0
C      1  0.5129200000000  0.5342850000000  0.5774110000000 1.0
C      1  0.4273800000000  0.5003370000000  0.5579440000000 1.0
C      1  0.5017210000000  0.5584700000000  0.4308940000000 1.0
C      1  0.5557740000000  0.4336570000000  0.5061700000000 1.0
C      1  0.5735350000000  0.5003380000000  0.5560650000000 1.0
C      1  0.4309460000000  0.4988180000000  0.4420920000000 1.0
C      1  0.5735640000000  0.4979890000000  0.4397050000000 1.0
C      1  0.4962430000000  0.4423610000000  0.4297320000000 1.0
C      1  0.4986250000000  0.4395340000000  0.5710160000000 1.0
C      1  0.5008380000000  0.5592200000000  0.5733870000000 1.0
C      1  0.4357530000000  0.5790240000000  0.4963780000000 1.0
C      1  0.5559190000000  0.5703280000000  0.4935900000000 1.0
C      1  0.4387860000000  0.4253610000000  0.4991380000000 1.0
C      1  0.4664270000000  0.5172490000000  0.5796180000000 1.0
C      1  0.5178500000000  0.5662120000000  0.4713440000000 1.0
C      1  0.5839880000000  0.4693580000000  0.5165920000000 1.0
C      1  0.5308470000000  0.4800780000000  0.5636640000000 1.0
C      1  0.4716100000000  0.4831800000000  0.4344630000000 1.0
C      1  0.5321720000000  0.5187440000000  0.4344650000000 1.0
C      1  0.4824820000000  0.4221830000000  0.4668540000000 1.0
C      1  0.5146420000000  0.4332440000000  0.5304870000000 1.0
C      1  0.4814400000000  0.5813280000000  0.5352980000000 1.0
C      1  0.4305920000000  0.5350060000000  0.5173220000000 1.0
C      1  0.5659560000000  0.5289620000000  0.4807760000000 1.0
C      1  0.4357890000000  0.4689810000000  0.4787330000000 1.0
C      1  0.4561560000000  0.4961330000000  0.5614570000000 1.0
C      1  0.4962730000000  0.5507850000000  0.4599640000000 1.0
C      1  0.5620880000000  0.4614210000000  0.4982460000000 1.0
C      1  0.5446000000000  0.5028060000000  0.5507560000000 1.0
C      1  0.4596840000000  0.5057740000000  0.4486620000000 1.0
C      1  0.5447250000000  0.4944110000000  0.4452490000000 1.0
C      1  0.5036270000000  0.4409540000000  0.4581370000000 1.0
C      1  0.4898300000000  0.4449400000000  0.5413310000000 1.0
C      1  0.5015870000000  0.5609830000000  0.5439170000000 1.0
C      1  0.4252970000000  0.5529780000000  0.4943830000000 1.0
C      1  0.5536150000000  0.5426450000000  0.5035080000000 1.0
C      1  0.4443650000000  0.4540610000000  0.5020460000000 1.0
C      1  0.4768410000000  0.4742080000000  0.4930380000000 1.0
C      1  0.4745730000000  0.5058950000000  0.4836030000000 1.0
C      1  0.5005910000000  0.4677670000000  0.4737710000000 1.0
C      1  0.5190010000000  0.5260380000000  0.5074230000000 1.0
C      1  0.4664860000000  0.5200740000000  0.5118590000000 1.0
C      1  0.5384240000000  0.4820230000000  0.4995110000000 1.0
C      1  0.5226180000000  0.4898100000000  0.4742320000000 1.0
C      1  0.4749010000000  0.4993970000000  0.5350550000000 1.0
C      1  0.5350920000000  0.5029390000000  0.5197830000000 1.0
C      1  0.5046060000000  0.5178830000000  0.4790970000000 1.0
C      1  0.4950840000000  0.5319790000000  0.5267470000000 1.0
C      1  0.4846010000000  0.4732310000000  0.5231820000000 1.0
C      1  0.4952950000000  0.5121180000000  0.5801110000000 1.0
C      1  0.5116780000000  0.5830270000000  0.4942800000000 1.0
C      1  0.5897490000000  0.4972660000000  0.5118170000000 1.0
C      1  0.5057970000000  0.4851330000000  0.5781790000000 1.0
C      1  0.4948780000000  0.4874760000000  0.4172710000000 1.0
C      1  0.5076040000000  0.5141790000000  0.4191170000000 1.0
C      1  0.4849280000000  0.4200370000000  0.4956400000000 1.0
C      1  0.5114470000000  0.4170370000000  0.5071370000000 1.0
C      1  0.4848550000000  0.5821710000000  0.5063950000000 1.0
C      1  0.4248260000000  0.5060550000000  0.5112550000000 1.0
C      1  0.5852580000000  0.5070360000000  0.4842610000000 1.0
C      1  0.4207830000000  0.4938040000000  0.4851060000000 1.0
C      1  0.5461880000000  0.4550520000000  0.5626140000000 1.0
C      1  0.4549970000000  0.5728870000000  0.5440490000000 1.0
C      1  0.5659780000000  0.5507540000000  0.4611130000000 1.0
C      1  0.4576940000000  0.5430760000000  0.5691260000000 1.0
C      1  0.5478400000000  0.5443510000000  0.4367550000000 1.0
C      1  0.4481020000000  0.4660340000000  0.4294160000000 1.0
C      1  0.5322370000000  0.4300030000000  0.5541630000000 1.0
C      1  0.4618520000000  0.4329690000000  0.4452790000000 1.0
C      1  0.5349320000000  0.5701090000000  0.4471800000000 1.0
C      1  0.4382050000000  0.4522950000000  0.4540950000000 1.0
C      1  0.5650320000000  0.4466190000000  0.5404430000000 1.0
C      1  0.4465470000000  0.5454370000000  0.5420680000000 1.0
C      1  0.5518570000000  0.4480470000000  0.4501280000000 1.0
C      1  0.4463460000000  0.4474560000000  0.5513470000000 1.0
C      1  0.4490810000000  0.5516660000000  0.4493890000000 1.0
C      1  0.5508690000000  0.5514760000000  0.5490480000000 1.0
END
