TITL C-3578195-8548-403 -2.12853139389868e-06 125000 -519.99092702278 0 0 84 (C1) n - 1
REM
REM in /home/bkarasulu/work/CARBON/AIRSS/Generating-Clusters/EDIP-Nigel-Params/with-SteepDescent/Higher-Symm/SD-CG/HFTN-CG
REM
REM
REM
REM
REM
REM ./C.cell (12c818d87b63d06a65506943cc24bca4)
REM
REM compiler GCC version 9.2.1 20190827 (Red Hat 9.2.1-1)
REM options -cpp -mtune=generic -march=x86-64 -g -O0 -fpre-include=/usr/include/finclude/math-vector-fortran.h
REM seed 102075295 980803200 629720178 1923773942 591663425 -7208540 1289282197 2078752499 307173810 -1766391522 1827013930 -1782826003 254400481 693126866 342384855 -1025960066 -1308627853 -1096375958 -254589409 793766890 2102600880 -300230909 -78188884 -1650010728 257769654 -366244977 2075446315 15451979 451304970 -1527700862 427833189 -191846439 2019024540
REM
CELL 1.54180   50.00000   50.00000   50.00000   90.00000   90.00000   90.00000
LATT -1
SFAC C  
C      1  0.4455640000000  0.5638490000000  0.4889080000000 1.0
C      1  0.4792890000000  0.5653920000000  0.4431420000000 1.0
C      1  0.5349730000000  0.5689850000000  0.4633730000000 1.0
C      1  0.5430300000000  0.5546930000000  0.4882840000000 1.0
C      1  0.5481780000000  0.5706950000000  0.5140870000000 1.0
C      1  0.4979770000000  0.5520470000000  0.5488800000000 1.0
C      1  0.4678100000000  0.5631920000000  0.5446660000000 1.0
C      1  0.5436020000000  0.5106000000000  0.5694850000000 1.0
C      1  0.4827920000000  0.5159500000000  0.5748210000000 1.0
C      1  0.4248690000000  0.5114690000000  0.5317640000000 1.0
C      1  0.4289270000000  0.5123450000000  0.4575090000000 1.0
C      1  0.4940290000000  0.5218900000000  0.4278120000000 1.0
C      1  0.5502200000000  0.5124480000000  0.4361420000000 1.0
C      1  0.5716620000000  0.5179580000000  0.5045430000000 1.0
C      1  0.5335450000000  0.4301130000000  0.5460450000000 1.0
C      1  0.4859240000000  0.4290110000000  0.5558470000000 1.0
C      1  0.4523510000000  0.4314420000000  0.5216070000000 1.0
C      1  0.4502340000000  0.4310750000000  0.4735780000000 1.0
C      1  0.4888820000000  0.4334180000000  0.4451540000000 1.0
C      1  0.5357010000000  0.4314560000000  0.4567040000000 1.0
C      1  0.5513180000000  0.4330840000000  0.5017880000000 1.0
C      1  0.5469390000000  0.5588870000000  0.4392960000000 1.0
C      1  0.5644160000000  0.5358490000000  0.4801440000000 1.0
C      1  0.5524680000000  0.5539040000000  0.5379320000000 1.0
C      1  0.5089930000000  0.5434360000000  0.5751260000000 1.0
C      1  0.4447590000000  0.5427490000000  0.5445610000000 1.0
C      1  0.4356920000000  0.5494310000000  0.4665450000000 1.0
C      1  0.4709750000000  0.5399910000000  0.4340670000000 1.0
C      1  0.5691650000000  0.4882810000000  0.5012230000000 1.0
C      1  0.5401060000000  0.4850600000000  0.5588770000000 1.0
C      1  0.4851690000000  0.4863410000000  0.5709910000000 1.0
C      1  0.4339170000000  0.4841670000000  0.5290130000000 1.0
C      1  0.4347240000000  0.4853710000000  0.4659890000000 1.0
C      1  0.4895490000000  0.4919190000000  0.4310180000000 1.0
C      1  0.5444020000000  0.4865890000000  0.4467570000000 1.0
C      1  0.4782130000000  0.5801830000000  0.5211010000000 1.0
C      1  0.4723820000000  0.5723100000000  0.4927430000000 1.0
C      1  0.4863380000000  0.5787850000000  0.4670390000000 1.0
C      1  0.5139220000000  0.5895740000000  0.4674920000000 1.0
C      1  0.5191620000000  0.6023710000000  0.4918000000000 1.0
C      1  0.5279160000000  0.5923160000000  0.5164150000000 1.0
C      1  0.5054740000000  0.5840660000000  0.5328110000000 1.0
C      1  0.5117600000000  0.4435870000000  0.5622320000000 1.0
C      1  0.4619210000000  0.4452250000000  0.5463030000000 1.0
C      1  0.4386170000000  0.4446920000000  0.4982930000000 1.0
C      1  0.4648320000000  0.4480840000000  0.4535300000000 1.0
C      1  0.5142580000000  0.4475390000000  0.4439270000000 1.0
C      1  0.5549760000000  0.4463430000000  0.4752820000000 1.0
C      1  0.5509850000000  0.4473850000000  0.5277800000000 1.0
C      1  0.5169710000000  0.4760660000000  0.4360270000000 1.0
C      1  0.5516380000000  0.4766710000000  0.4763290000000 1.0
C      1  0.5520740000000  0.4780090000000  0.5291390000000 1.0
C      1  0.5109500000000  0.4737450000000  0.5581810000000 1.0
C      1  0.4604440000000  0.4756970000000  0.5479220000000 1.0
C      1  0.4398590000000  0.4748180000000  0.4983730000000 1.0
C      1  0.4626070000000  0.4785500000000  0.4515180000000 1.0
C      1  0.4320070000000  0.5287560000000  0.5109150000000 1.0
C      1  0.4529770000000  0.5289710000000  0.4559990000000 1.0
C      1  0.5187610000000  0.5328660000000  0.4430160000000 1.0
C      1  0.5623010000000  0.5355460000000  0.4488770000000 1.0
C      1  0.5533470000000  0.5257290000000  0.5293020000000 1.0
C      1  0.5367280000000  0.5375320000000  0.5685850000000 1.0
C      1  0.4625150000000  0.5198250000000  0.5532690000000 1.0
C      1  0.5284530000000  0.4153330000000  0.5008390000000 1.0
C      1  0.5210090000000  0.4081740000000  0.5288210000000 1.0
C      1  0.4915740000000  0.4075780000000  0.5347410000000 1.0
C      1  0.4735820000000  0.4142960000000  0.5118140000000 1.0
C      1  0.4694110000000  0.4091810000000  0.4826700000000 1.0
C      1  0.4924570000000  0.4088920000000  0.4623680000000 1.0
C      1  0.5216980000000  0.4093470000000  0.4724290000000 1.0
C      1  0.5021100000000  0.5281780000000  0.5323950000000 1.0
C      1  0.4765170000000  0.5162770000000  0.5273320000000 1.0
C      1  0.4610960000000  0.5316090000000  0.5046700000000 1.0
C      1  0.4710330000000  0.5207150000000  0.4778700000000 1.0
C      1  0.5087200000000  0.5238960000000  0.4703350000000 1.0
C      1  0.5221410000000  0.5351130000000  0.4933680000000 1.0
C      1  0.5257670000000  0.5194140000000  0.5176020000000 1.0
C      1  0.5251100000000  0.4800130000000  0.4881010000000 1.0
C      1  0.5260920000000  0.4888400000000  0.5152180000000 1.0
C      1  0.5047390000000  0.4767960000000  0.5298750000000 1.0
C      1  0.4783370000000  0.4863790000000  0.5248270000000 1.0
C      1  0.4689570000000  0.4772840000000  0.4993000000000 1.0
C      1  0.4778350000000  0.4909690000000  0.4756850000000 1.0
C      1  0.5072740000000  0.4933840000000  0.4698600000000 1.0
END
