TITL C-3578194-7807-612 -1.73371292440113e-06 125000 -414.62392589276 0 0 67 (C1) n - 1
REM
REM in /home/bkarasulu/work/CARBON/AIRSS/Generating-Clusters/EDIP-Nigel-Params/with-SteepDescent/Higher-Symm/SD-CG/HFTN-CG
REM
REM
REM
REM
REM
REM ./C.cell (12c818d87b63d06a65506943cc24bca4)
REM
REM compiler GCC version 9.2.1 20190827 (Red Hat 9.2.1-1)
REM options -cpp -mtune=generic -march=x86-64 -g -O0 -fpre-include=/usr/include/finclude/math-vector-fortran.h
REM seed 396343792 995336492 -1092098265 -96285826 -973004210 2094395135 -415216227 -680695879 -1807464592 -860862607 -847387057 290718906 -22101370 -478023461 670783592 235359808 2134988637 100589085 521363976 711077720 137982742 -1890762582 817374165 -454413980 -675378741 105896957 -1113827261 456316772 1011266463 -1554261188 -1002058140 -161523110 -1671888946
REM
CELL 1.54180   50.00000   50.00000   50.00000   90.00000   90.00000   90.00000
LATT -1
SFAC C  
C      1  0.4692300000000  0.4909020000000  0.4273110000000 1.0
C      1  0.4211700000000  0.4960630000000  0.5196830000000 1.0
C      1  0.4826060000000  0.4967790000000  0.5833410000000 1.0
C      1  0.5734420000000  0.4914050000000  0.5329850000000 1.0
C      1  0.5554520000000  0.4896920000000  0.4513710000000 1.0
C      1  0.4715170000000  0.4766260000000  0.5218490000000 1.0
C      1  0.5152310000000  0.4749290000000  0.5367820000000 1.0
C      1  0.5370800000000  0.4765050000000  0.4919110000000 1.0
C      1  0.5081710000000  0.4742580000000  0.4662610000000 1.0
C      1  0.4714750000000  0.4725820000000  0.4782330000000 1.0
C      1  0.4314150000000  0.4597760000000  0.5185830000000 1.0
C      1  0.4939820000000  0.4714580000000  0.5789520000000 1.0
C      1  0.5663450000000  0.4642400000000  0.5226650000000 1.0
C      1  0.5445760000000  0.4648450000000  0.4433090000000 1.0
C      1  0.4621790000000  0.4649910000000  0.4359010000000 1.0
C      1  0.5260650000000  0.5325260000000  0.4534150000000 1.0
C      1  0.4626850000000  0.5282680000000  0.4603390000000 1.0
C      1  0.4591630000000  0.5254280000000  0.5201440000000 1.0
C      1  0.5077790000000  0.5245710000000  0.5488960000000 1.0
C      1  0.5536650000000  0.5320520000000  0.5108610000000 1.0
C      1  0.4348910000000  0.4976890000000  0.5480080000000 1.0
C      1  0.5364100000000  0.4953240000000  0.5771430000000 1.0
C      1  0.5820050000000  0.4988190000000  0.4964050000000 1.0
C      1  0.5169790000000  0.4963880000000  0.4216670000000 1.0
C      1  0.4290800000000  0.4927330000000  0.4596910000000 1.0
C      1  0.4774780000000  0.5161610000000  0.4367460000000 1.0
C      1  0.4355500000000  0.5160940000000  0.5036300000000 1.0
C      1  0.4813830000000  0.5172650000000  0.5642880000000 1.0
C      1  0.5539510000000  0.5131130000000  0.5348920000000 1.0
C      1  0.5499810000000  0.5149810000000  0.4628750000000 1.0
C      1  0.4665110000000  0.5536130000000  0.5133310000000 1.0
C      1  0.5091300000000  0.5536060000000  0.5411460000000 1.0
C      1  0.5425820000000  0.5593590000000  0.5127310000000 1.0
C      1  0.5167380000000  0.5580700000000  0.4662390000000 1.0
C      1  0.4665520000000  0.5569240000000  0.4651410000000 1.0
C      1  0.4487380000000  0.4482360000000  0.4976220000000 1.0
C      1  0.4778490000000  0.4550510000000  0.5613650000000 1.0
C      1  0.5346960000000  0.4596130000000  0.5181080000000 1.0
C      1  0.5403290000000  0.4445180000000  0.4622810000000 1.0
C      1  0.4821610000000  0.4466900000000  0.4455400000000 1.0
C      1  0.4910800000000  0.4342220000000  0.4702630000000 1.0
C      1  0.4745310000000  0.4326750000000  0.4954000000000 1.0
C      1  0.4939220000000  0.4335180000000  0.5183270000000 1.0
C      1  0.5218360000000  0.4338770000000  0.5078010000000 1.0
C      1  0.5196200000000  0.4334930000000  0.4782240000000 1.0
C      1  0.5087190000000  0.5048440000000  0.4751980000000 1.0
C      1  0.4800850000000  0.5022780000000  0.4838720000000 1.0
C      1  0.4800210000000  0.5037330000000  0.5133260000000 1.0
C      1  0.5083240000000  0.5039720000000  0.5247260000000 1.0
C      1  0.5272310000000  0.5057550000000  0.5001890000000 1.0
C      1  0.4916020000000  0.5664750000000  0.4576690000000 1.0
C      1  0.4565080000000  0.5646840000000  0.4898310000000 1.0
C      1  0.4909700000000  0.5657110000000  0.5221030000000 1.0
C      1  0.5348050000000  0.5654540000000  0.5393130000000 1.0
C      1  0.5235660000000  0.5693760000000  0.4925510000000 1.0
C      1  0.5208520000000  0.4745880000000  0.5664830000000 1.0
C      1  0.5687480000000  0.4733580000000  0.4930650000000 1.0
C      1  0.5171820000000  0.4722690000000  0.4363530000000 1.0
C      1  0.4464030000000  0.4705250000000  0.4597740000000 1.0
C      1  0.4482920000000  0.4708270000000  0.5415120000000 1.0
C      1  0.5067300000000  0.5194710000000  0.4336520000000 1.0
C      1  0.4389400000000  0.5147210000000  0.4738300000000 1.0
C      1  0.4551110000000  0.5204540000000  0.5492940000000 1.0
C      1  0.5354980000000  0.5156470000000  0.5581070000000 1.0
C      1  0.5665120000000  0.5213110000000  0.4863370000000 1.0
C      1  0.4904050000000  0.4585560000000  0.5347320000000 1.0
C      1  0.5031670000000  0.5853780000000  0.5050790000000 1.0
END
