TITL C-3578204-4308-570 -2.78497868425336e-07 125000 -187.216659208044 0 0 30 (C2) n - 1
REM
REM in /home/bkarasulu/work/CARBON/AIRSS/Generating-Clusters/EDIP-Nigel-Params/with-SteepDescent/Higher-Symm/SD-CG/HFTN-CG
REM
REM
REM
REM
REM
REM ./C.cell (12c818d87b63d06a65506943cc24bca4)
REM
REM compiler GCC version 9.2.1 20190827 (Red Hat 9.2.1-1)
REM options -cpp -mtune=generic -march=x86-64 -g -O0 -fpre-include=/usr/include/finclude/math-vector-fortran.h
REM seed 1574568799 -2081971618 -530179896 -738009099 145726659 1660244850 42562616 1953406952 450223169 687409350 1971330302 1951619218 -1599762813 -668640081 -1208306263 2077567379 1429918704 1908845068 -1088077615 -1505618869 1329061304 -1661179524 -1552392954 1216351166 406198599 502943950 -1337528287 -977959016 -842229401 1467832983 -908095249 365723556 -1944601222
REM
CELL 1.54180   50.00000   50.00000   50.00000   90.00000   90.00000   90.00000
LATT -1
SFAC C  
C      1  0.4692930000000  0.5100610000000  0.5416460000000 1.0
C      1  0.4708320000000  0.4651680000000  0.5215140000000 1.0
C      1  0.4707570000000  0.4692710000000  0.4726970000000 1.0
C      1  0.4701410000000  0.5162990000000  0.4606460000000 1.0
C      1  0.4706310000000  0.5411050000000  0.5034860000000 1.0
C      1  0.5130800000000  0.5261680000000  0.5226620000000 1.0
C      1  0.5158540000000  0.4819110000000  0.5420660000000 1.0
C      1  0.5149900000000  0.4566690000000  0.4966760000000 1.0
C      1  0.5135590000000  0.4918640000000  0.4629900000000 1.0
C      1  0.5157310000000  0.5390340000000  0.4758390000000 1.0
C      1  0.4843450000000  0.4899620000000  0.4551780000000 1.0
C      1  0.4865050000000  0.5321450000000  0.4798910000000 1.0
C      1  0.4849820000000  0.5327050000000  0.5286040000000 1.0
C      1  0.4840530000000  0.4826160000000  0.5423270000000 1.0
C      1  0.4868980000000  0.4655100000000  0.4971360000000 1.0
C      1  0.5560370000000  0.5103190000000  0.4756170000000 1.0
C      1  0.5557750000000  0.5260670000000  0.5018430000000 1.0
C      1  0.5556480000000  0.5057730000000  0.5252920000000 1.0
C      1  0.5561410000000  0.4775800000000  0.5133400000000 1.0
C      1  0.5558170000000  0.4802150000000  0.4828600000000 1.0
C      1  0.5299460000000  0.5166880000000  0.4608760000000 1.0
C      1  0.5292700000000  0.5409840000000  0.5029050000000 1.0
C      1  0.5291000000000  0.5089780000000  0.5399940000000 1.0
C      1  0.5306360000000  0.4631830000000  0.5220090000000 1.0
C      1  0.5293950000000  0.4687260000000  0.4731270000000 1.0
C      1  0.4442420000000  0.4804880000000  0.4825620000000 1.0
C      1  0.4440170000000  0.5102440000000  0.4754620000000 1.0
C      1  0.4442000000000  0.5261330000000  0.5020380000000 1.0
C      1  0.4438170000000  0.5062010000000  0.5252460000000 1.0
C      1  0.4443090000000  0.4779350000000  0.5134680000000 1.0
END
