TITL C-3577091-527-12 -1.60218085871328e-06 125000 -831.478882450525 0 0 136 (C1) n - 1
REM
REM in /home/bkarasulu/work/CARBON/AIRSS/Generating-Clusters/EDIP-Nigel-Params/with-SteepDescent/Higher-Symm/SD-CG/HFTN-CG
REM
REM
REM
REM
REM
REM ./C.cell (12c818d87b63d06a65506943cc24bca4)
REM
REM compiler GCC version 9.2.1 20190827 (Red Hat 9.2.1-1)
REM options -cpp -mtune=generic -march=x86-64 -g -O0 -fpre-include=/usr/include/finclude/math-vector-fortran.h
REM seed -289177843 -1910769139 1462805263 -471326716 -849466251 204329146 1299053714 216600778 1035631760 1005216377 -2054633933 1322452789 -1920876071 -466896 1372982646 -1399101902 -1958680020 752203389 523194940 159623333 -111485616 1469753950 1819602740 1530409948 -1760925442 1601629101 -287678986 -35140029 -2060588923 1939901603 -1055386197 1388749525 -1343680202
REM
CELL 1.54180   50.00000   50.00000   50.00000   90.00000   90.00000   90.00000
LATT -1
SFAC C  
C      1  0.5008400000000  0.4568590000000  0.5153310000000 1.0
C      1  0.4520600000000  0.4961020000000  0.5240770000000 1.0
C      1  0.4956150000000  0.5488630000000  0.5268190000000 1.0
C      1  0.5496560000000  0.5094090000000  0.5292170000000 1.0
C      1  0.5287470000000  0.5329110000000  0.4065330000000 1.0
C      1  0.5450900000000  0.4701130000000  0.4135340000000 1.0
C      1  0.4585710000000  0.4573710000000  0.4129220000000 1.0
C      1  0.4608880000000  0.5282000000000  0.4028770000000 1.0
C      1  0.5289420000000  0.5853990000000  0.4681060000000 1.0
C      1  0.5839560000000  0.4732440000000  0.4723570000000 1.0
C      1  0.4675770000000  0.4109100000000  0.4669020000000 1.0
C      1  0.4125650000000  0.5290600000000  0.4689710000000 1.0
C      1  0.4562600000000  0.4183580000000  0.5144150000000 1.0
C      1  0.4204750000000  0.5462760000000  0.5165480000000 1.0
C      1  0.5459320000000  0.5828130000000  0.5155220000000 1.0
C      1  0.5704990000000  0.4580650000000  0.5174350000000 1.0
C      1  0.5356300000000  0.5664860000000  0.5630040000000 1.0
C      1  0.5690860000000  0.4675270000000  0.5672630000000 1.0
C      1  0.4684590000000  0.4382560000000  0.5584730000000 1.0
C      1  0.4342830000000  0.5340130000000  0.5644980000000 1.0
C      1  0.5155300000000  0.5617280000000  0.5024000000000 1.0
C      1  0.5660810000000  0.4943350000000  0.5071240000000 1.0
C      1  0.4816690000000  0.4413930000000  0.4953160000000 1.0
C      1  0.4377950000000  0.5145800000000  0.5015030000000 1.0
C      1  0.4465750000000  0.4158250000000  0.4875130000000 1.0
C      1  0.4178540000000  0.5516670000000  0.4880180000000 1.0
C      1  0.5520990000000  0.5845620000000  0.4871150000000 1.0
C      1  0.5771320000000  0.4507110000000  0.4898780000000 1.0
C      1  0.5494480000000  0.5455510000000  0.5801400000000 1.0
C      1  0.5454280000000  0.4522700000000  0.5766320000000 1.0
C      1  0.4513220000000  0.4554760000000  0.5763520000000 1.0
C      1  0.4536070000000  0.5488390000000  0.5810460000000 1.0
C      1  0.4948320000000  0.4039190000000  0.4760430000000 1.0
C      1  0.4003310000000  0.5054620000000  0.4801370000000 1.0
C      1  0.5044770000000  0.5965110000000  0.4778240000000 1.0
C      1  0.6004200000000  0.4962160000000  0.4800540000000 1.0
C      1  0.5813660000000  0.4720530000000  0.5412590000000 1.0
C      1  0.4757960000000  0.4226560000000  0.5344960000000 1.0
C      1  0.4203650000000  0.5288090000000  0.5391950000000 1.0
C      1  0.5291770000000  0.5822910000000  0.5386510000000 1.0
C      1  0.5004680000000  0.4565710000000  0.5479990000000 1.0
C      1  0.4510220000000  0.5014360000000  0.5547870000000 1.0
C      1  0.4998590000000  0.5548660000000  0.5564880000000 1.0
C      1  0.5531570000000  0.5010830000000  0.5582730000000 1.0
C      1  0.3965840000000  0.5041340000000  0.5073550000000 1.0
C      1  0.5032030000000  0.6026920000000  0.5046990000000 1.0
C      1  0.6044370000000  0.5008210000000  0.5082630000000 1.0
C      1  0.4993340000000  0.3959850000000  0.5026840000000 1.0
C      1  0.5509670000000  0.5297180000000  0.4372170000000 1.0
C      1  0.5426540000000  0.4412300000000  0.4241820000000 1.0
C      1  0.4390070000000  0.4647100000000  0.4345050000000 1.0
C      1  0.4680090000000  0.5467190000000  0.4358010000000 1.0
C      1  0.5304800000000  0.4556700000000  0.4760610000000 1.0
C      1  0.4550940000000  0.4602240000000  0.4907480000000 1.0
C      1  0.4609600000000  0.5402380000000  0.4936790000000 1.0
C      1  0.5438950000000  0.5418360000000  0.4959220000000 1.0
C      1  0.4078360000000  0.5037390000000  0.5325060000000 1.0
C      1  0.5033950000000  0.5934160000000  0.5307550000000 1.0
C      1  0.5978200000000  0.4975480000000  0.5363260000000 1.0
C      1  0.4998550000000  0.4067420000000  0.5288310000000 1.0
C      1  0.5245350000000  0.5589600000000  0.4169290000000 1.0
C      1  0.5700520000000  0.4822500000000  0.4208380000000 1.0
C      1  0.4673230000000  0.4299350000000  0.4153230000000 1.0
C      1  0.4349920000000  0.5261330000000  0.4144150000000 1.0
C      1  0.4585310000000  0.5813820000000  0.5205830000000 1.0
C      1  0.5844420000000  0.5427290000000  0.5228450000000 1.0
C      1  0.5387380000000  0.4251080000000  0.5117330000000 1.0
C      1  0.4192790000000  0.4585140000000  0.5224670000000 1.0
C      1  0.4520440000000  0.4896710000000  0.4790330000000 1.0
C      1  0.4917190000000  0.5434540000000  0.4826290000000 1.0
C      1  0.5515460000000  0.5129430000000  0.4844570000000 1.0
C      1  0.5013010000000  0.4467060000000  0.4689240000000 1.0
C      1  0.4443050000000  0.5602360000000  0.4772570000000 1.0
C      1  0.5635640000000  0.5578340000000  0.4782520000000 1.0
C      1  0.5551370000000  0.4371470000000  0.4717370000000 1.0
C      1  0.4333890000000  0.4419580000000  0.4783210000000 1.0
C      1  0.4786470000000  0.5034310000000  0.5149640000000 1.0
C      1  0.4981320000000  0.5201210000000  0.5288220000000 1.0
C      1  0.5221120000000  0.5055510000000  0.5216580000000 1.0
C      1  0.4967920000000  0.4831700000000  0.5052330000000 1.0
C      1  0.4267130000000  0.5308910000000  0.4417720000000 1.0
C      1  0.5314510000000  0.5691580000000  0.4428590000000 1.0
C      1  0.5770340000000  0.4678450000000  0.4441940000000 1.0
C      1  0.4577460000000  0.4231270000000  0.4413010000000 1.0
C      1  0.5561080000000  0.5380400000000  0.5229520000000 1.0
C      1  0.5284020000000  0.4518510000000  0.5057990000000 1.0
C      1  0.4462230000000  0.4672750000000  0.5174960000000 1.0
C      1  0.4671740000000  0.5539260000000  0.5189890000000 1.0
C      1  0.4796800000000  0.5068290000000  0.4148530000000 1.0
C      1  0.5115600000000  0.5129240000000  0.4216170000000 1.0
C      1  0.5234080000000  0.4835180000000  0.4288580000000 1.0
C      1  0.4804460000000  0.4766620000000  0.4073420000000 1.0
C      1  0.5323500000000  0.4659440000000  0.5998520000000 1.0
C      1  0.4669630000000  0.4658970000000  0.5990820000000 1.0
C      1  0.4670040000000  0.5329880000000  0.6020970000000 1.0
C      1  0.5327350000000  0.5331390000000  0.6016200000000 1.0
C      1  0.4793590000000  0.4954670000000  0.4640480000000 1.0
C      1  0.5025020000000  0.5150940000000  0.4718190000000 1.0
C      1  0.5268140000000  0.4998020000000  0.4780790000000 1.0
C      1  0.4888140000000  0.4686820000000  0.4542220000000 1.0
C      1  0.4901360000000  0.5587760000000  0.4540900000000 1.0
C      1  0.5647270000000  0.5089300000000  0.4550260000000 1.0
C      1  0.5165930000000  0.4305340000000  0.4366750000000 1.0
C      1  0.4334530000000  0.4890410000000  0.4519110000000 1.0
C      1  0.5561540000000  0.5557790000000  0.4491210000000 1.0
C      1  0.5641190000000  0.4416940000000  0.4438570000000 1.0
C      1  0.4356390000000  0.4401700000000  0.4488010000000 1.0
C      1  0.4430720000000  0.5538180000000  0.4482030000000 1.0
C      1  0.4568850000000  0.5867280000000  0.4828600000000 1.0
C      1  0.5897880000000  0.5442070000000  0.4851680000000 1.0
C      1  0.5429940000000  0.4102460000000  0.4770600000000 1.0
C      1  0.4084710000000  0.4571810000000  0.4860150000000 1.0
C      1  0.4772720000000  0.5716970000000  0.5657960000000 1.0
C      1  0.5693810000000  0.5236860000000  0.5691130000000 1.0
C      1  0.5244980000000  0.4402460000000  0.5562220000000 1.0
C      1  0.4341640000000  0.4791950000000  0.5658990000000 1.0
C      1  0.5261850000000  0.5005730000000  0.5732960000000 1.0
C      1  0.5002520000000  0.4807960000000  0.5690050000000 1.0
C      1  0.4781750000000  0.5032950000000  0.5708100000000 1.0
C      1  0.4996270000000  0.5289790000000  0.5728870000000 1.0
C      1  0.4807270000000  0.5860840000000  0.4654600000000 1.0
C      1  0.5916920000000  0.5208320000000  0.4667410000000 1.0
C      1  0.5190130000000  0.4087340000000  0.4594970000000 1.0
C      1  0.4082420000000  0.4808830000000  0.4680050000000 1.0
C      1  0.5272110000000  0.4163010000000  0.5374100000000 1.0
C      1  0.4123090000000  0.4766870000000  0.5446610000000 1.0
C      1  0.4761450000000  0.5905480000000  0.5426200000000 1.0
C      1  0.5915180000000  0.5261190000000  0.5470870000000 1.0
C      1  0.4954130000000  0.4660590000000  0.5944580000000 1.0
C      1  0.4675090000000  0.5040130000000  0.5986490000000 1.0
C      1  0.5041410000000  0.5381260000000  0.6009870000000 1.0
C      1  0.5350070000000  0.4951910000000  0.6012760000000 1.0
C      1  0.5136280000000  0.5289410000000  0.4472380000000 1.0
C      1  0.5371940000000  0.4815970000000  0.4568580000000 1.0
C      1  0.5000980000000  0.4645550000000  0.4277670000000 1.0
C      1  0.4650260000000  0.5089970000000  0.4416260000000 1.0
END
