TITL C-3578207-9274-247 -2.83636617973934e-06 125000 -865.64392462798 0 0 135 (C1) n - 1
REM
REM in /home/bkarasulu/work/CARBON/AIRSS/Generating-Clusters/EDIP-Nigel-Params/with-SteepDescent/Higher-Symm/SD-CG/HFTN-CG
REM
REM
REM
REM
REM
REM ./C.cell (12c818d87b63d06a65506943cc24bca4)
REM
REM compiler GCC version 9.2.1 20190827 (Red Hat 9.2.1-1)
REM options -cpp -mtune=generic -march=x86-64 -g -O0 -fpre-include=/usr/include/finclude/math-vector-fortran.h
REM seed 110262599 -897954469 -632283021 -55156099 -364814518 320346570 -600718394 1359592431 1355722566 -88900510 1126860849 -627857600 -2120512952 1825254635 415585587 309698129 -523826520 -54519431 1070822962 1251486070 78065188 1537695489 475049802 618687211 1598661610 1007126511 1423900949 880465163 507830663 -1682148292 -627649983 1722156707 709433315
REM
CELL 1.54180   50.00000   50.00000   50.00000   90.00000   90.00000   90.00000
LATT -1
SFAC C  
C      1  0.5470700000000  0.4527220000000  0.5176250000000 1.0
C      1  0.4506150000000  0.4508480000000  0.5223140000000 1.0
C      1  0.4503400000000  0.5493800000000  0.5180480000000 1.0
C      1  0.5478400000000  0.5475630000000  0.5183360000000 1.0
C      1  0.5498710000000  0.4541130000000  0.4838850000000 1.0
C      1  0.4524120000000  0.4514060000000  0.4851220000000 1.0
C      1  0.4500800000000  0.5468060000000  0.4812820000000 1.0
C      1  0.5461090000000  0.5495810000000  0.4845240000000 1.0
C      1  0.4271020000000  0.4579500000000  0.4689270000000 1.0
C      1  0.4490750000000  0.5715670000000  0.4644330000000 1.0
C      1  0.5707230000000  0.5506470000000  0.4671190000000 1.0
C      1  0.5511230000000  0.4288890000000  0.4672320000000 1.0
C      1  0.4255240000000  0.4487860000000  0.5387720000000 1.0
C      1  0.4615410000000  0.5739530000000  0.5331460000000 1.0
C      1  0.5734460000000  0.5386860000000  0.5331930000000 1.0
C      1  0.5393300000000  0.4271580000000  0.5332100000000 1.0
C      1  0.5115680000000  0.5865260000000  0.5314630000000 1.0
C      1  0.5870280000000  0.4884830000000  0.5318240000000 1.0
C      1  0.4891860000000  0.4190570000000  0.5320960000000 1.0
C      1  0.4175500000000  0.5077270000000  0.5257010000000 1.0
C      1  0.5089170000000  0.5843420000000  0.4751220000000 1.0
C      1  0.5839950000000  0.4916550000000  0.4757650000000 1.0
C      1  0.4915750000000  0.4159630000000  0.4762350000000 1.0
C      1  0.4199630000000  0.5075990000000  0.4698400000000 1.0
C      1  0.5345840000000  0.5777930000000  0.4883470000000 1.0
C      1  0.5777950000000  0.4659800000000  0.4884500000000 1.0
C      1  0.4649110000000  0.4218230000000  0.4877060000000 1.0
C      1  0.4223650000000  0.5332170000000  0.4837530000000 1.0
C      1  0.5355490000000  0.5838400000000  0.5164990000000 1.0
C      1  0.5834980000000  0.4646740000000  0.5166560000000 1.0
C      1  0.4641810000000  0.4232530000000  0.5173530000000 1.0
C      1  0.4223680000000  0.5336150000000  0.5132110000000 1.0
C      1  0.5189360000000  0.5132810000000  0.5614260000000 1.0
C      1  0.5145600000000  0.4815360000000  0.5613890000000 1.0
C      1  0.4832140000000  0.4863230000000  0.5633800000000 1.0
C      1  0.4879420000000  0.5177150000000  0.5629510000000 1.0
C      1  0.5168520000000  0.5153210000000  0.4412810000000 1.0
C      1  0.5139700000000  0.4838440000000  0.4412670000000 1.0
C      1  0.4823850000000  0.4868620000000  0.4401000000000 1.0
C      1  0.4853910000000  0.5182450000000  0.4403600000000 1.0
C      1  0.5629540000000  0.5415880000000  0.4404500000000 1.0
C      1  0.5417980000000  0.4367720000000  0.4406170000000 1.0
C      1  0.4374110000000  0.4629810000000  0.4409600000000 1.0
C      1  0.4589840000000  0.5639410000000  0.4379140000000 1.0
C      1  0.5653900000000  0.5343880000000  0.5616260000000 1.0
C      1  0.5352420000000  0.4356370000000  0.5618220000000 1.0
C      1  0.4336880000000  0.4598300000000  0.5650890000000 1.0
C      1  0.4667040000000  0.5634950000000  0.5604010000000 1.0
C      1  0.4302590000000  0.4883580000000  0.4270890000000 1.0
C      1  0.4880710000000  0.5679960000000  0.4317000000000 1.0
C      1  0.5671950000000  0.5126910000000  0.4334010000000 1.0
C      1  0.5126100000000  0.4331330000000  0.4341490000000 1.0
C      1  0.4329310000000  0.4894950000000  0.5694720000000 1.0
C      1  0.4930230000000  0.5690150000000  0.5727860000000 1.0
C      1  0.5689540000000  0.5070700000000  0.5725670000000 1.0
C      1  0.5087330000000  0.4306740000000  0.5743620000000 1.0
C      1  0.4741750000000  0.4536050000000  0.4070920000000 1.0
C      1  0.4540900000000  0.5264410000000  0.4040290000000 1.0
C      1  0.5260000000000  0.5471380000000  0.4068750000000 1.0
C      1  0.5468930000000  0.4748470000000  0.4080780000000 1.0
C      1  0.4719960000000  0.4549890000000  0.5982980000000 1.0
C      1  0.4553020000000  0.5284530000000  0.5949900000000 1.0
C      1  0.5297790000000  0.5447870000000  0.5964850000000 1.0
C      1  0.5456250000000  0.4708070000000  0.5971030000000 1.0
C      1  0.4847850000000  0.5274430000000  0.5927500000000 1.0
C      1  0.5281880000000  0.5156230000000  0.5925270000000 1.0
C      1  0.5164770000000  0.4725620000000  0.5929880000000 1.0
C      1  0.4730030000000  0.4839890000000  0.5933610000000 1.0
C      1  0.4830300000000  0.5271750000000  0.4092940000000 1.0
C      1  0.5267320000000  0.5179030000000  0.4106940000000 1.0
C      1  0.5176600000000  0.4738170000000  0.4111590000000 1.0
C      1  0.4738410000000  0.4829950000000  0.4096870000000 1.0
C      1  0.4606680000000  0.4168900000000  0.5714540000000 1.0
C      1  0.4224630000000  0.5360540000000  0.5622850000000 1.0
C      1  0.5418770000000  0.5809800000000  0.5679160000000 1.0
C      1  0.5818980000000  0.4585460000000  0.5683410000000 1.0
C      1  0.4660300000000  0.4193760000000  0.4380840000000 1.0
C      1  0.4160210000000  0.5363310000000  0.4309930000000 1.0
C      1  0.5350360000000  0.5844030000000  0.4352490000000 1.0
C      1  0.5841340000000  0.4656900000000  0.4360260000000 1.0
C      1  0.4173810000000  0.5100700000000  0.4415110000000 1.0
C      1  0.5088780000000  0.5838000000000  0.4458790000000 1.0
C      1  0.5834150000000  0.4918440000000  0.4467690000000 1.0
C      1  0.4923050000000  0.4161760000000  0.4473310000000 1.0
C      1  0.4178210000000  0.5095000000000  0.5544690000000 1.0
C      1  0.5151120000000  0.5815420000000  0.5589790000000 1.0
C      1  0.5827340000000  0.4852800000000  0.5595080000000 1.0
C      1  0.4867480000000  0.4179380000000  0.5604730000000 1.0
C      1  0.4140410000000  0.4820350000000  0.4824590000000 1.0
C      1  0.4615540000000  0.5931910000000  0.4765110000000 1.0
C      1  0.5935260000000  0.5390620000000  0.4778240000000 1.0
C      1  0.5391820000000  0.4062440000000  0.4781310000000 1.0
C      1  0.4037660000000  0.4610240000000  0.5264510000000 1.0
C      1  0.4855340000000  0.5847140000000  0.5188700000000 1.0
C      1  0.5854170000000  0.5147430000000  0.5195560000000 1.0
C      1  0.5152740000000  0.4145140000000  0.5200420000000 1.0
C      1  0.4689160000000  0.4743460000000  0.5361220000000 1.0
C      1  0.4720230000000  0.5294210000000  0.5325370000000 1.0
C      1  0.5259270000000  0.5261720000000  0.5284710000000 1.0
C      1  0.5257900000000  0.4745890000000  0.5276080000000 1.0
C      1  0.4746160000000  0.4712750000000  0.4721870000000 1.0
C      1  0.4738710000000  0.5265760000000  0.4712620000000 1.0
C      1  0.5243260000000  0.5270620000000  0.4735930000000 1.0
C      1  0.5254600000000  0.4743010000000  0.4727800000000 1.0
C      1  0.4461840000000  0.5458940000000  0.5733470000000 1.0
C      1  0.5464210000000  0.5540520000000  0.5743150000000 1.0
C      1  0.5550230000000  0.4541420000000  0.5748900000000 1.0
C      1  0.4549370000000  0.4434780000000  0.5778250000000 1.0
C      1  0.4425330000000  0.5427090000000  0.4250230000000 1.0
C      1  0.5409690000000  0.5579040000000  0.4290300000000 1.0
C      1  0.5576470000000  0.4595680000000  0.4299640000000 1.0
C      1  0.4561170000000  0.4433880000000  0.4278570000000 1.0
C      1  0.5008030000000  0.4622170000000  0.4845330000000 1.0
C      1  0.4680960000000  0.4990070000000  0.4839510000000 1.0
C      1  0.4985050000000  0.5363680000000  0.4854480000000 1.0
C      1  0.5291830000000  0.5007020000000  0.4868570000000 1.0
C      1  0.4991810000000  0.4699880000000  0.5135330000000 1.0
C      1  0.4609450000000  0.5014180000000  0.5225170000000 1.0
C      1  0.4990640000000  0.5353030000000  0.5160390000000 1.0
C      1  0.5324210000000  0.5004830000000  0.5150870000000 1.0
C      1  0.4968490000000  0.5539670000000  0.4075020000000 1.0
C      1  0.5534510000000  0.5041120000000  0.4091400000000 1.0
C      1  0.5036990000000  0.4469220000000  0.4098840000000 1.0
C      1  0.4474660000000  0.4968960000000  0.4047520000000 1.0
C      1  0.5005580000000  0.5530190000000  0.5959380000000 1.0
C      1  0.5536910000000  0.4998940000000  0.5961600000000 1.0
C      1  0.5011160000000  0.4470020000000  0.5973840000000 1.0
C      1  0.4469130000000  0.4992430000000  0.5934720000000 1.0
C      1  0.4104210000000  0.4834430000000  0.5114710000000 1.0
C      1  0.5152020000000  0.4091830000000  0.4916080000000 1.0
C      1  0.4852830000000  0.5912820000000  0.4905600000000 1.0
C      1  0.5909090000000  0.5150560000000  0.4911970000000 1.0
C      1  0.5003130000000  0.5005440000000  0.6095110000000 1.0
C      1  0.5008110000000  0.4999180000000  0.3935800000000 1.0
C      1  0.4889040000000  0.4987590000000  0.5059530000000 1.0
END
