TITL C-3578197-9521-200 -3.61389333645608e-06 125000 -1252.12481270207 0 0 199 (C1) n - 1
REM
REM in /home/bkarasulu/work/CARBON/AIRSS/Generating-Clusters/EDIP-Nigel-Params/with-SteepDescent/Higher-Symm/SD-CG/HFTN-CG
REM
REM
REM
REM
REM
REM ./C.cell (12c818d87b63d06a65506943cc24bca4)
REM
REM compiler GCC version 9.2.1 20190827 (Red Hat 9.2.1-1)
REM options -cpp -mtune=generic -march=x86-64 -g -O0 -fpre-include=/usr/include/finclude/math-vector-fortran.h
REM seed -653078193 1324509546 -1757667494 -77203382 -1327811711 -1074588201 999884146 1782888071 215720664 991289739 -274576797 -248589795 77259773 44458132 -1946194545 127912925 1037583432 1561313783 187543204 -1937556444 -1922397964 833907002 1656501916 -749072055 -624794319 734928625 -913532449 1618978931 1585224785 -1063121421 658921206 -322513008 789438036
REM
CELL 1.54180   50.00000   50.00000   50.00000   90.00000   90.00000   90.00000
LATT -1
SFAC C  
C      1  0.5340010000000  0.4544730000000  0.4501980000000 1.0
C      1  0.5502440000000  0.4487120000000  0.5149720000000 1.0
C      1  0.4979150000000  0.4482840000000  0.5554760000000 1.0
C      1  0.4488470000000  0.4490330000000  0.5213690000000 1.0
C      1  0.4685630000000  0.4467330000000  0.4599080000000 1.0
C      1  0.5416580000000  0.5812640000000  0.4687750000000 1.0
C      1  0.5405000000000  0.5797850000000  0.5334800000000 1.0
C      1  0.4830550000000  0.5807020000000  0.5471190000000 1.0
C      1  0.4530310000000  0.5810140000000  0.4956670000000 1.0
C      1  0.4812910000000  0.5876170000000  0.4403820000000 1.0
C      1  0.5629670000000  0.4595700000000  0.4900040000000 1.0
C      1  0.5304880000000  0.4691880000000  0.5566300000000 1.0
C      1  0.4525000000000  0.4692750000000  0.5469730000000 1.0
C      1  0.4445660000000  0.4581140000000  0.4736190000000 1.0
C      1  0.5082450000000  0.4717140000000  0.4338820000000 1.0
C      1  0.5846920000000  0.4501240000000  0.4483960000000 1.0
C      1  0.5734230000000  0.4478430000000  0.5624480000000 1.0
C      1  0.4604670000000  0.4481720000000  0.5917430000000 1.0
C      1  0.4042310000000  0.4508240000000  0.4941110000000 1.0
C      1  0.4752130000000  0.4503780000000  0.4065200000000 1.0
C      1  0.5241510000000  0.4895000000000  0.6089440000000 1.0
C      1  0.4028220000000  0.4875960000000  0.5605760000000 1.0
C      1  0.4158260000000  0.4904470000000  0.4296420000000 1.0
C      1  0.5399160000000  0.4883480000000  0.3983520000000 1.0
C      1  0.6147390000000  0.4882430000000  0.5120690000000 1.0
C      1  0.5442310000000  0.5342460000000  0.5962660000000 1.0
C      1  0.4284600000000  0.5307220000000  0.5699890000000 1.0
C      1  0.4074490000000  0.5330650000000  0.4511230000000 1.0
C      1  0.5157550000000  0.5348200000000  0.4001530000000 1.0
C      1  0.5912620000000  0.5253340000000  0.4932520000000 1.0
C      1  0.5516620000000  0.4414020000000  0.4117190000000 1.0
C      1  0.5951750000000  0.4428170000000  0.5203350000000 1.0
C      1  0.5079580000000  0.4431880000000  0.5983200000000 1.0
C      1  0.4060340000000  0.4408660000000  0.5416340000000 1.0
C      1  0.4344560000000  0.4435890000000  0.4292690000000 1.0
C      1  0.5103180000000  0.5119250000000  0.4576410000000 1.0
C      1  0.5340120000000  0.5252950000000  0.4950120000000 1.0
C      1  0.5205670000000  0.5255060000000  0.5417700000000 1.0
C      1  0.4662980000000  0.5247990000000  0.5263000000000 1.0
C      1  0.4842650000000  0.5243430000000  0.4752050000000 1.0
C      1  0.4279640000000  0.5286960000000  0.4032100000000 1.0
C      1  0.5672200000000  0.5280040000000  0.4061320000000 1.0
C      1  0.6060890000000  0.5269710000000  0.5426810000000 1.0
C      1  0.4942030000000  0.5313710000000  0.6051720000000 1.0
C      1  0.4081790000000  0.5271490000000  0.5270490000000 1.0
C      1  0.5164650000000  0.5758270000000  0.5837650000000 1.0
C      1  0.4269360000000  0.5737150000000  0.5381920000000 1.0
C      1  0.4330910000000  0.5788280000000  0.4406280000000 1.0
C      1  0.5353840000000  0.5790110000000  0.4188880000000 1.0
C      1  0.5840370000000  0.5739590000000  0.5092460000000 1.0
C      1  0.4429130000000  0.5982850000000  0.5410280000000 1.0
C      1  0.4391990000000  0.6011290000000  0.4589190000000 1.0
C      1  0.5213300000000  0.6031360000000  0.4286010000000 1.0
C      1  0.5700420000000  0.5974860000000  0.4989150000000 1.0
C      1  0.5225750000000  0.6002460000000  0.5681940000000 1.0
C      1  0.5429890000000  0.5978440000000  0.5095250000000 1.0
C      1  0.5041450000000  0.6015680000000  0.5455340000000 1.0
C      1  0.4589340000000  0.6012280000000  0.5166130000000 1.0
C      1  0.4681000000000  0.6036440000000  0.4622740000000 1.0
C      1  0.5199170000000  0.5996870000000  0.4585220000000 1.0
C      1  0.4697970000000  0.5012020000000  0.3953180000000 1.0
C      1  0.5795580000000  0.5006070000000  0.4480300000000 1.0
C      1  0.5888370000000  0.4925570000000  0.5755160000000 1.0
C      1  0.4561280000000  0.4950810000000  0.6090420000000 1.0
C      1  0.3864850000000  0.5007700000000  0.4958400000000 1.0
C      1  0.4966770000000  0.6050730000000  0.4120030000000 1.0
C      1  0.5704280000000  0.5950910000000  0.4700590000000 1.0
C      1  0.5509900000000  0.6009880000000  0.5636470000000 1.0
C      1  0.4551920000000  0.5982470000000  0.5670760000000 1.0
C      1  0.4216060000000  0.5987360000000  0.4811840000000 1.0
C      1  0.5929340000000  0.4699300000000  0.5585110000000 1.0
C      1  0.4703530000000  0.4701380000000  0.6097730000000 1.0
C      1  0.4019060000000  0.4773780000000  0.5090990000000 1.0
C      1  0.4573880000000  0.4748330000000  0.4014730000000 1.0
C      1  0.5818820000000  0.4747210000000  0.4312920000000 1.0
C      1  0.5987960000000  0.5056760000000  0.4704190000000 1.0
C      1  0.5567700000000  0.5142590000000  0.5779810000000 1.0
C      1  0.4527620000000  0.5167770000000  0.5774230000000 1.0
C      1  0.4048580000000  0.5093770000000  0.4722600000000 1.0
C      1  0.4953810000000  0.5192960000000  0.4155900000000 1.0
C      1  0.5437010000000  0.4729440000000  0.4729550000000 1.0
C      1  0.5421670000000  0.4744510000000  0.5291260000000 1.0
C      1  0.4830420000000  0.4740210000000  0.5509690000000 1.0
C      1  0.4505640000000  0.4694860000000  0.4997370000000 1.0
C      1  0.4842310000000  0.4713750000000  0.4535810000000 1.0
C      1  0.5411070000000  0.5600850000000  0.5816870000000 1.0
C      1  0.4380040000000  0.5572200000000  0.5607100000000 1.0
C      1  0.4199450000000  0.5585610000000  0.4589920000000 1.0
C      1  0.5127050000000  0.5638130000000  0.4071100000000 1.0
C      1  0.5902820000000  0.5557370000000  0.4868430000000 1.0
C      1  0.4972560000000  0.3824620000000  0.4764410000000 1.0
C      1  0.5238750000000  0.3811950000000  0.4908230000000 1.0
C      1  0.5163870000000  0.3840600000000  0.5192620000000 1.0
C      1  0.4877330000000  0.3873140000000  0.5219490000000 1.0
C      1  0.4748080000000  0.3834190000000  0.4966170000000 1.0
C      1  0.4207290000000  0.5189810000000  0.4289610000000 1.0
C      1  0.5410430000000  0.5177880000000  0.4020180000000 1.0
C      1  0.6118280000000  0.5179780000000  0.5151000000000 1.0
C      1  0.5199790000000  0.5186310000000  0.6028600000000 1.0
C      1  0.4181640000000  0.5111750000000  0.5497120000000 1.0
C      1  0.4897130000000  0.5607470000000  0.5238950000000 1.0
C      1  0.4779230000000  0.5622370000000  0.4960370000000 1.0
C      1  0.4970690000000  0.5629830000000  0.4487800000000 1.0
C      1  0.5278970000000  0.5553280000000  0.4933560000000 1.0
C      1  0.5202850000000  0.5563490000000  0.5236350000000 1.0
C      1  0.5208920000000  0.4892800000000  0.5161950000000 1.0
C      1  0.4922390000000  0.4896050000000  0.5253510000000 1.0
C      1  0.4757550000000  0.4847630000000  0.5010080000000 1.0
C      1  0.4941410000000  0.4818430000000  0.4791960000000 1.0
C      1  0.5213320000000  0.4832390000000  0.4884640000000 1.0
C      1  0.4911890000000  0.5628930000000  0.5732010000000 1.0
C      1  0.4292890000000  0.5641630000000  0.5085090000000 1.0
C      1  0.4581280000000  0.5751370000000  0.4217490000000 1.0
C      1  0.5519200000000  0.5671630000000  0.4419330000000 1.0
C      1  0.5693260000000  0.5653270000000  0.5341170000000 1.0
C      1  0.4990150000000  0.4287630000000  0.5330050000000 1.0
C      1  0.4706250000000  0.4277900000000  0.5155570000000 1.0
C      1  0.4795950000000  0.4298210000000  0.4840370000000 1.0
C      1  0.5135100000000  0.4328240000000  0.4543190000000 1.0
C      1  0.5266780000000  0.4300710000000  0.5066010000000 1.0
C      1  0.4332300000000  0.5338500000000  0.5107290000000 1.0
C      1  0.4563870000000  0.5448870000000  0.4245680000000 1.0
C      1  0.5499700000000  0.5376590000000  0.4403460000000 1.0
C      1  0.5695260000000  0.5350430000000  0.5345780000000 1.0
C      1  0.4981910000000  0.5315850000000  0.5665380000000 1.0
C      1  0.4326020000000  0.4058130000000  0.5136470000000 1.0
C      1  0.4657230000000  0.4038840000000  0.4414080000000 1.0
C      1  0.5478280000000  0.4051150000000  0.4525560000000 1.0
C      1  0.5602250000000  0.4056210000000  0.5298070000000 1.0
C      1  0.4900550000000  0.4047490000000  0.5688890000000 1.0
C      1  0.4728190000000  0.5209620000000  0.5560140000000 1.0
C      1  0.4321140000000  0.5123830000000  0.4870970000000 1.0
C      1  0.4823190000000  0.5376470000000  0.4382370000000 1.0
C      1  0.5376560000000  0.5207990000000  0.4649750000000 1.0
C      1  0.5486580000000  0.5274240000000  0.5526330000000 1.0
C      1  0.5157020000000  0.4762180000000  0.3889930000000 1.0
C      1  0.6083760000000  0.4813420000000  0.4831740000000 1.0
C      1  0.5485460000000  0.4767500000000  0.5991670000000 1.0
C      1  0.4177200000000  0.4744020000000  0.5813200000000 1.0
C      1  0.4057350000000  0.4838790000000  0.4561050000000 1.0
C      1  0.4470910000000  0.3982880000000  0.4622640000000 1.0
C      1  0.5190600000000  0.4092330000000  0.4378070000000 1.0
C      1  0.5652700000000  0.3991300000000  0.5026160000000 1.0
C      1  0.5178270000000  0.4019450000000  0.5623280000000 1.0
C      1  0.4458310000000  0.4002280000000  0.5383560000000 1.0
C      1  0.4893350000000  0.5798810000000  0.3983610000000 1.0
C      1  0.5847690000000  0.5705800000000  0.4621510000000 1.0
C      1  0.5630870000000  0.5758380000000  0.5701090000000 1.0
C      1  0.4555680000000  0.5720540000000  0.5789740000000 1.0
C      1  0.4115060000000  0.5716540000000  0.4842780000000 1.0
C      1  0.5027220000000  0.6229860000000  0.5245950000000 1.0
C      1  0.4766220000000  0.6236750000000  0.5092060000000 1.0
C      1  0.4827930000000  0.6234320000000  0.4796070000000 1.0
C      1  0.5123910000000  0.6220560000000  0.4765980000000 1.0
C      1  0.5245600000000  0.6205260000000  0.5042600000000 1.0
C      1  0.4304650000000  0.4892470000000  0.5076670000000 1.0
C      1  0.4614890000000  0.4891210000000  0.4469370000000 1.0
C      1  0.5545020000000  0.4975670000000  0.4625690000000 1.0
C      1  0.5670540000000  0.4896780000000  0.5223860000000 1.0
C      1  0.4949360000000  0.4881340000000  0.5752100000000 1.0
C      1  0.4391330000000  0.4575090000000  0.5723080000000 1.0
C      1  0.4158600000000  0.4569870000000  0.4672750000000 1.0
C      1  0.5043160000000  0.4582310000000  0.4076420000000 1.0
C      1  0.5902920000000  0.4563270000000  0.4782650000000 1.0
C      1  0.5488100000000  0.4580920000000  0.5770280000000 1.0
C      1  0.5216230000000  0.4959210000000  0.5656240000000 1.0
C      1  0.4415070000000  0.4974140000000  0.5355780000000 1.0
C      1  0.4577570000000  0.5097370000000  0.4691290000000 1.0
C      1  0.5121930000000  0.5005610000000  0.4307910000000 1.0
C      1  0.5643100000000  0.5180820000000  0.5093040000000 1.0
C      1  0.4503360000000  0.3976800000000  0.4904260000000 1.0
C      1  0.4939970000000  0.3930090000000  0.4472540000000 1.0
C      1  0.5458270000000  0.3983210000000  0.4822130000000 1.0
C      1  0.5319530000000  0.3997690000000  0.5377570000000 1.0
C      1  0.4729850000000  0.3955430000000  0.5454620000000 1.0
C      1  0.4136550000000  0.4361680000000  0.4470530000000 1.0
C      1  0.5241390000000  0.4379480000000  0.4046720000000 1.0
C      1  0.6015300000000  0.4345970000000  0.4938670000000 1.0
C      1  0.5347030000000  0.4384280000000  0.5910660000000 1.0
C      1  0.4211310000000  0.4368020000000  0.5651780000000 1.0
C      1  0.5933150000000  0.4736740000000  0.5279270000000 1.0
C      1  0.4995710000000  0.4726700000000  0.6012500000000 1.0
C      1  0.3961590000000  0.4689460000000  0.5382930000000 1.0
C      1  0.4407130000000  0.4742840000000  0.4269300000000 1.0
C      1  0.5600390000000  0.4697400000000  0.4105590000000 1.0
C      1  0.4863930000000  0.4336940000000  0.5799730000000 1.0
C      1  0.4210660000000  0.4349370000000  0.5162030000000 1.0
C      1  0.4626430000000  0.4334160000000  0.4321590000000 1.0
C      1  0.5581450000000  0.4351630000000  0.4409950000000 1.0
C      1  0.5699930000000  0.4341680000000  0.5340620000000 1.0
C      1  0.4563020000000  0.5279850000000  0.3964390000000 1.0
C      1  0.5774590000000  0.5264540000000  0.4328300000000 1.0
C      1  0.5937780000000  0.5189950000000  0.5672060000000 1.0
C      1  0.4686760000000  0.5207490000000  0.6123470000000 1.0
C      1  0.3842180000000  0.5210050000000  0.5143360000000 1.0
C      1  0.5013940000000  0.4502530000000  0.5089650000000 1.0
C      1  0.5018590000000  0.5643740000000  0.4785900000000 1.0
C      1  0.5076420000000  0.4203090000000  0.4794670000000 1.0
C      1  0.4958880000000  0.5237260000000  0.5064000000000 1.0
END
