TITL C-3577078-809-140 -2.97320430859051e-05 125000 -413.322784710317 0 0 68 (C1) n - 1
REM
REM in /home/bkarasulu/work/CARBON/AIRSS/Generating-Clusters/EDIP-Nigel-Params/with-SteepDescent/Higher-Symm/SD-CG/HFTN-CG
REM
REM
REM
REM
REM
REM ./C.cell (12c818d87b63d06a65506943cc24bca4)
REM
REM compiler GCC version 9.2.1 20190827 (Red Hat 9.2.1-1)
REM options -cpp -mtune=generic -march=x86-64 -g -O0 -fpre-include=/usr/include/finclude/math-vector-fortran.h
REM seed 313424137 -290987483 -2005878015 1127452908 58425977 1934108126 -1226947812 1801244007 -1258794450 -718806408 -1990077602 -739203211 344853276 -532326458 258462239 784356526 -1303245977 -1405762516 431145965 -1094913494 1824160954 -1753781185 -169021919 558603555 1725609472 -1978673454 1387677372 -860167362 1430378503 692125339 455540336 -519523444 -1694909405
REM
CELL 1.54180   50.00000   50.00000   50.00000   90.00000   90.00000   90.00000
LATT -1
SFAC C  
C      1  0.5765330000000  0.5163910000000  0.5276680000000 1.0
C      1  0.5682110000000  0.5313140000000  0.4815340000000 1.0
C      1  0.5653340000000  0.5171090000000  0.4560910000000 1.0
C      1  0.5631410000000  0.4873430000000  0.4613470000000 1.0
C      1  0.5775350000000  0.4841570000000  0.4877720000000 1.0
C      1  0.5663950000000  0.4660200000000  0.5314960000000 1.0
C      1  0.5719570000000  0.4926960000000  0.5450760000000 1.0
C      1  0.5152120000000  0.5120140000000  0.4800490000000 1.0
C      1  0.5373280000000  0.4611680000000  0.4938210000000 1.0
C      1  0.5266390000000  0.4786520000000  0.5169660000000 1.0
C      1  0.5315530000000  0.5067400000000  0.5575290000000 1.0
C      1  0.5335440000000  0.5254880000000  0.5340070000000 1.0
C      1  0.5250370000000  0.5589480000000  0.4886150000000 1.0
C      1  0.5224140000000  0.5234180000000  0.4464080000000 1.0
C      1  0.4546260000000  0.5337000000000  0.5483280000000 1.0
C      1  0.4620610000000  0.5629440000000  0.5004750000000 1.0
C      1  0.4568480000000  0.5386430000000  0.4503730000000 1.0
C      1  0.4489190000000  0.4858240000000  0.4384850000000 1.0
C      1  0.4492800000000  0.4472250000000  0.4723460000000 1.0
C      1  0.4536950000000  0.4437100000000  0.5227660000000 1.0
C      1  0.4580630000000  0.4820570000000  0.5595400000000 1.0
C      1  0.5047010000000  0.4326950000000  0.5179590000000 1.0
C      1  0.4983480000000  0.4561230000000  0.5589540000000 1.0
C      1  0.4923680000000  0.5298580000000  0.5711610000000 1.0
C      1  0.5128520000000  0.5668860000000  0.5137670000000 1.0
C      1  0.5052510000000  0.5474200000000  0.4440200000000 1.0
C      1  0.5008610000000  0.4798070000000  0.4304600000000 1.0
C      1  0.5020580000000  0.4410530000000  0.4674070000000 1.0
C      1  0.5126900000000  0.5042910000000  0.4279570000000 1.0
C      1  0.5157060000000  0.4622370000000  0.4496620000000 1.0
C      1  0.5182170000000  0.4377880000000  0.4924430000000 1.0
C      1  0.5167530000000  0.4434550000000  0.5422990000000 1.0
C      1  0.5051120000000  0.5050080000000  0.5707190000000 1.0
C      1  0.5099840000000  0.5440870000000  0.5326790000000 1.0
C      1  0.5052140000000  0.5619190000000  0.4682510000000 1.0
C      1  0.5490430000000  0.5298420000000  0.4374480000000 1.0
C      1  0.5363370000000  0.4755410000000  0.4673610000000 1.0
C      1  0.5669370000000  0.4605390000000  0.5018510000000 1.0
C      1  0.5429900000000  0.4545590000000  0.5432080000000 1.0
C      1  0.5558670000000  0.4969690000000  0.5684030000000 1.0
C      1  0.5603050000000  0.5383440000000  0.5367550000000 1.0
C      1  0.5522380000000  0.5539060000000  0.4849020000000 1.0
C      1  0.4390040000000  0.4639240000000  0.4524980000000 1.0
C      1  0.4455310000000  0.4567970000000  0.4989040000000 1.0
C      1  0.4502470000000  0.4582700000000  0.5466100000000 1.0
C      1  0.4459050000000  0.5061460000000  0.5498230000000 1.0
C      1  0.4515720000000  0.5482320000000  0.5231740000000 1.0
C      1  0.4558680000000  0.5538520000000  0.4742750000000 1.0
C      1  0.4449390000000  0.5121170000000  0.4501440000000 1.0
C      1  0.4939820000000  0.4844760000000  0.4736020000000 1.0
C      1  0.4829530000000  0.4638210000000  0.4960580000000 1.0
C      1  0.4954900000000  0.4762400000000  0.5222800000000 1.0
C      1  0.4753580000000  0.5024760000000  0.5249660000000 1.0
C      1  0.4862460000000  0.5313280000000  0.5181240000000 1.0
C      1  0.4905070000000  0.5314420000000  0.4872420000000 1.0
C      1  0.4718340000000  0.5073030000000  0.4773670000000 1.0
C      1  0.4874370000000  0.4821920000000  0.5618480000000 1.0
C      1  0.4696900000000  0.5443740000000  0.5693950000000 1.0
C      1  0.4868020000000  0.5753600000000  0.5061790000000 1.0
C      1  0.4794980000000  0.5426490000000  0.4345960000000 1.0
C      1  0.4734670000000  0.4798770000000  0.4273520000000 1.0
C      1  0.4739480000000  0.4349250000000  0.4671640000000 1.0
C      1  0.4768670000000  0.4285080000000  0.5188650000000 1.0
C      1  0.5344270000000  0.5070420000000  0.5075740000000 1.0
C      1  0.4305710000000  0.5074660000000  0.5036750000000 1.0
C      1  0.4570600000000  0.4991350000000  0.5014230000000 1.0
C      1  0.5653170000000  0.5091280000000  0.5010090000000 1.0
C      1  0.4052190000000  0.5112640000000  0.5014430000000 1.0
END
