TITL C-3577084-3642-569 -1.70437074018148e-06 125000 -476.21971413238 0 0 76 (C3) n - 1
REM
REM in /home/bkarasulu/work/CARBON/AIRSS/Generating-Clusters/EDIP-Nigel-Params/with-SteepDescent/Higher-Symm/SD-CG/HFTN-CG
REM
REM
REM
REM
REM
REM ./C.cell (12c818d87b63d06a65506943cc24bca4)
REM
REM compiler GCC version 9.2.1 20190827 (Red Hat 9.2.1-1)
REM options -cpp -mtune=generic -march=x86-64 -g -O0 -fpre-include=/usr/include/finclude/math-vector-fortran.h
REM seed 1670948389 1557441574 386766982 -1764421844 -1306856443 464496262 -35428963 -126960422 1807437299 -618628768 -6050123 14697924 -1693441872 -2130387301 671455596 -1596182100 77428035 1017121004 2026129396 -663513536 -19389879 -549346716 983109288 887313896 1437539619 -1386402338 -1046135455 2145291611 -709649879 -795925236 492710416 -1770397082 707976524
REM
CELL 1.54180   50.00000   50.00000   50.00000   90.00000   90.00000   90.00000
LATT -1
SFAC C  
C      1  0.4330280000000  0.4898340000000  0.5656720000000 1.0
C      1  0.5430320000000  0.4476080000000  0.5656400000000 1.0
C      1  0.5245980000000  0.5639870000000  0.5655840000000 1.0
C      1  0.4317770000000  0.4907730000000  0.4335950000000 1.0
C      1  0.5426790000000  0.4460010000000  0.4335650000000 1.0
C      1  0.5260020000000  0.5644310000000  0.4335060000000 1.0
C      1  0.4740360000000  0.5107130000000  0.5642750000000 1.0
C      1  0.5044440000000  0.4726820000000  0.5642810000000 1.0
C      1  0.5221760000000  0.5180320000000  0.5642460000000 1.0
C      1  0.4739620000000  0.5107790000000  0.4342480000000 1.0
C      1  0.5042620000000  0.4725310000000  0.4342550000000 1.0
C      1  0.5222360000000  0.5178960000000  0.4342200000000 1.0
C      1  0.4576640000000  0.4415030000000  0.4843380000000 1.0
C      1  0.5724680000000  0.4930750000000  0.4842510000000 1.0
C      1  0.4704030000000  0.5667130000000  0.4842610000000 1.0
C      1  0.4520700000000  0.4399180000000  0.5135050000000 1.0
C      1  0.5766740000000  0.4890350000000  0.5134150000000 1.0
C      1  0.4718350000000  0.5723870000000  0.5134200000000 1.0
C      1  0.4401070000000  0.4622050000000  0.4707560000000 1.0
C      1  0.5633010000000  0.4675140000000  0.4706910000000 1.0
C      1  0.4971060000000  0.5715490000000  0.4706650000000 1.0
C      1  0.4412300000000  0.4634860000000  0.5268170000000 1.0
C      1  0.5617000000000  0.4678700000000  0.5267540000000 1.0
C      1  0.4976690000000  0.5700080000000  0.5267280000000 1.0
C      1  0.5136350000000  0.4451020000000  0.4723500000000 1.0
C      1  0.5413510000000  0.5397440000000  0.4722830000000 1.0
C      1  0.4455310000000  0.5164250000000  0.4723440000000 1.0
C      1  0.5146090000000  0.4447980000000  0.5261690000000 1.0
C      1  0.5411940000000  0.5407610000000  0.5261020000000 1.0
C      1  0.4447950000000  0.5158030000000  0.5261640000000 1.0
C      1  0.4941740000000  0.5266650000000  0.4749790000000 1.0
C      1  0.4804490000000  0.4821100000000  0.4750110000000 1.0
C      1  0.5258980000000  0.4925010000000  0.4749820000000 1.0
C      1  0.4949940000000  0.5238200000000  0.5228070000000 1.0
C      1  0.4825630000000  0.4842620000000  0.5228350000000 1.0
C      1  0.5230360000000  0.4932750000000  0.5228100000000 1.0
C      1  0.5093980000000  0.4066240000000  0.4935410000000 1.0
C      1  0.5768190000000  0.5553220000000  0.4934220000000 1.0
C      1  0.4143320000000  0.5393610000000  0.4935130000000 1.0
C      1  0.5013660000000  0.3968660000000  0.5173670000000 1.0
C      1  0.5893150000000  0.5532550000000  0.5172350000000 1.0
C      1  0.4099030000000  0.5512260000000  0.5173260000000 1.0
C      1  0.5459650000000  0.5120240000000  0.5146320000000 1.0
C      1  0.4672830000000  0.5342990000000  0.5146590000000 1.0
C      1  0.4873330000000  0.4550200000000  0.5146940000000 1.0
C      1  0.5476070000000  0.5114790000000  0.4840900000000 1.0
C      1  0.4668960000000  0.5359810000000  0.4841170000000 1.0
C      1  0.4860320000000  0.4538310000000  0.4841540000000 1.0
C      1  0.5269840000000  0.4902160000000  0.5531970000000 1.0
C      1  0.4957070000000  0.5287800000000  0.5531900000000 1.0
C      1  0.4779480000000  0.4824120000000  0.5532260000000 1.0
C      1  0.5273260000000  0.4898280000000  0.4445410000000 1.0
C      1  0.4957370000000  0.5292260000000  0.4445340000000 1.0
C      1  0.4774120000000  0.4821700000000  0.4445700000000 1.0
C      1  0.4520900000000  0.4885030000000  0.4837970000000 1.0
C      1  0.5345510000000  0.4647480000000  0.4837690000000 1.0
C      1  0.5138940000000  0.5480390000000  0.4837320000000 1.0
C      1  0.4531870000000  0.4884170000000  0.5142150000000 1.0
C      1  0.5341150000000  0.4657540000000  0.5141870000000 1.0
C      1  0.5132780000000  0.5471710000000  0.5141510000000 1.0
C      1  0.4495240000000  0.4692370000000  0.5550760000000 1.0
C      1  0.5526080000000  0.4721890000000  0.5550220000000 1.0
C      1  0.4985090000000  0.5599860000000  0.5550000000000 1.0
C      1  0.4485330000000  0.4696770000000  0.4425960000000 1.0
C      1  0.5525820000000  0.4710640000000  0.4425430000000 1.0
C      1  0.4993560000000  0.5604790000000  0.4425190000000 1.0
C      1  0.5161430000000  0.4469750000000  0.5564080000000 1.0
C      1  0.5385800000000  0.5410140000000  0.5563440000000 1.0
C      1  0.4459210000000  0.5134250000000  0.5564060000000 1.0
C      1  0.5154990000000  0.4463950000000  0.4424900000000 1.0
C      1  0.5392620000000  0.5406990000000  0.4424240000000 1.0
C      1  0.4457110000000  0.5141260000000  0.4424870000000 1.0
C      1  0.5618730000000  0.5601740000000  0.5171340000000 1.0
C      1  0.5210790000000  0.4171730000000  0.5172360000000 1.0
C      1  0.4176330000000  0.5240010000000  0.5172270000000 1.0
C      1  0.5001790000000  0.5004310000000  0.4857910000000 1.0
END
