TITL C-3577077-324-282 7.41073609549248e-08 125000 -180.802875939439 0 0 30 (D5h) n - 1
REM
REM in /home/bkarasulu/work/CARBON/AIRSS/Generating-Clusters/EDIP-Nigel-Params/with-SteepDescent/Higher-Symm/SD-CG/HFTN-CG
REM
REM
REM
REM
REM
REM ./C.cell (12c818d87b63d06a65506943cc24bca4)
REM
REM compiler GCC version 9.2.1 20190827 (Red Hat 9.2.1-1)
REM options -cpp -mtune=generic -march=x86-64 -g -O0 -fpre-include=/usr/include/finclude/math-vector-fortran.h
REM seed -229988327 -1615061225 -1370564328 -1277884693 -921533632 -198566758 15729751 211352583 1035641779 -1136685499 1548506646 1930462578 1721716716 279059251 444902911 -483645554 -979596148 -159771262 -1688025929 67813931 1577987710 -2031517840 -586959096 -1150698661 447774172 -1589710761 724925526 721792014 581848634 -460852858 -1934750649 1189461474 134604904
REM
CELL 1.54180   50.00000   50.00000   50.00000   90.00000   90.00000   90.00000
LATT -1
SFAC C  
C      1  0.4658020000000  0.4857020000000  0.5473760000000 1.0
C      1  0.4443710000000  0.4857150000000  0.4821150000000 1.0
C      1  0.4998160000000  0.4857180000000  0.4415670000000 1.0
C      1  0.5555130000000  0.4857060000000  0.4817680000000 1.0
C      1  0.5344910000000  0.4856960000000  0.5471620000000 1.0
C      1  0.4658040000000  0.5142870000000  0.5473810000000 1.0
C      1  0.4443740000000  0.5143000000000  0.4821200000000 1.0
C      1  0.4998190000000  0.5143030000000  0.4415720000000 1.0
C      1  0.5555160000000  0.5142910000000  0.4817730000000 1.0
C      1  0.5344940000000  0.5142810000000  0.5471670000000 1.0
C      1  0.5238210000000  0.4724010000000  0.4441750000000 1.0
C      1  0.5604470000000  0.4723870000000  0.5054030000000 1.0
C      1  0.5135350000000  0.4723810000000  0.5591570000000 1.0
C      1  0.4479140000000  0.4723920000000  0.5311520000000 1.0
C      1  0.4542710000000  0.4724040000000  0.4600890000000 1.0
C      1  0.5238250000000  0.5276150000000  0.4441850000000 1.0
C      1  0.5604520000000  0.5276010000000  0.5054130000000 1.0
C      1  0.5135390000000  0.5275950000000  0.5591670000000 1.0
C      1  0.4479190000000  0.5276050000000  0.5311620000000 1.0
C      1  0.4542760000000  0.5276180000000  0.4600990000000 1.0
C      1  0.4868350000000  0.5275970000000  0.5592500000000 1.0
C      1  0.4395880000000  0.5276110000000  0.5057900000000 1.0
C      1  0.4758310000000  0.5276190000000  0.4443350000000 1.0
C      1  0.5454790000000  0.5276100000000  0.4598140000000 1.0
C      1  0.5522790000000  0.5275970000000  0.5308360000000 1.0
C      1  0.4868300000000  0.4723840000000  0.5592400000000 1.0
C      1  0.4395830000000  0.4723970000000  0.5057800000000 1.0
C      1  0.4758270000000  0.4724050000000  0.4443250000000 1.0
C      1  0.5454740000000  0.4723970000000  0.4598040000000 1.0
C      1  0.5522750000000  0.4723830000000  0.5308260000000 1.0
END
