TITL C-3578204-4308-509 -2.45889531441473e-06 125000 -930.673021682046 0 0 151 (C1) n - 1
REM
REM in /home/bkarasulu/work/CARBON/AIRSS/Generating-Clusters/EDIP-Nigel-Params/with-SteepDescent/Higher-Symm/SD-CG/HFTN-CG
REM
REM
REM
REM
REM
REM ./C.cell (12c818d87b63d06a65506943cc24bca4)
REM
REM compiler GCC version 9.2.1 20190827 (Red Hat 9.2.1-1)
REM options -cpp -mtune=generic -march=x86-64 -g -O0 -fpre-include=/usr/include/finclude/math-vector-fortran.h
REM seed -1858248801 -1516145942 1503929701 1409786191 459935748 683827213 1082070008 -692927989 766513432 -1879907756 -154546383 879712837 -1026093412 1010988549 190126330 715464521 -755439721 -1056836197 1839912663 -167472583 1446046265 860211236 -860932424 -2098061813 1225997783 -675109900 401350209 -2121075780 1958466445 2119518820 1372246794 -1480439429 975511676
REM
CELL 1.54180   50.00000   50.00000   50.00000   90.00000   90.00000   90.00000
LATT -1
SFAC C  
C      1  0.4744550000000  0.5465940000000  0.5762040000000 1.0
C      1  0.4274830000000  0.4851890000000  0.5782580000000 1.0
C      1  0.4628120000000  0.4523000000000  0.5756770000000 1.0
C      1  0.5428940000000  0.4468600000000  0.5848590000000 1.0
C      1  0.5638380000000  0.5152000000000  0.5816010000000 1.0
C      1  0.5258900000000  0.5434710000000  0.5665080000000 1.0
C      1  0.5355900000000  0.5509080000000  0.4184230000000 1.0
C      1  0.5606090000000  0.4858840000000  0.4216390000000 1.0
C      1  0.5271960000000  0.4427150000000  0.4138880000000 1.0
C      1  0.4595190000000  0.4568160000000  0.4236960000000 1.0
C      1  0.4395450000000  0.5149100000000  0.4278290000000 1.0
C      1  0.4713490000000  0.5454310000000  0.4311930000000 1.0
C      1  0.4998460000000  0.4613560000000  0.4729180000000 1.0
C      1  0.5304420000000  0.4596210000000  0.4825060000000 1.0
C      1  0.5281140000000  0.4935730000000  0.4797650000000 1.0
C      1  0.5071660000000  0.5317960000000  0.4749810000000 1.0
C      1  0.4780280000000  0.5354100000000  0.4808760000000 1.0
C      1  0.4686490000000  0.5054640000000  0.4761560000000 1.0
C      1  0.5119640000000  0.4737700000000  0.5267710000000 1.0
C      1  0.4812980000000  0.4731510000000  0.5213900000000 1.0
C      1  0.4664690000000  0.4981340000000  0.5246410000000 1.0
C      1  0.4859930000000  0.5245590000000  0.5262990000000 1.0
C      1  0.5157330000000  0.5261960000000  0.5177400000000 1.0
C      1  0.5303530000000  0.5000730000000  0.5233070000000 1.0
C      1  0.4167580000000  0.4705410000000  0.4397800000000 1.0
C      1  0.4898800000000  0.4224070000000  0.4431790000000 1.0
C      1  0.5744790000000  0.4395570000000  0.4228130000000 1.0
C      1  0.5722120000000  0.5335320000000  0.4421760000000 1.0
C      1  0.5024180000000  0.5835800000000  0.4370420000000 1.0
C      1  0.4275220000000  0.5613420000000  0.4361740000000 1.0
C      1  0.5735210000000  0.4683390000000  0.5612500000000 1.0
C      1  0.5077690000000  0.4177080000000  0.5648880000000 1.0
C      1  0.4212320000000  0.4413030000000  0.5557690000000 1.0
C      1  0.4269090000000  0.5328600000000  0.5590600000000 1.0
C      1  0.5017190000000  0.5843350000000  0.5572150000000 1.0
C      1  0.5720060000000  0.5555650000000  0.5539960000000 1.0
C      1  0.4876540000000  0.5798180000000  0.4634090000000 1.0
C      1  0.4129480000000  0.5377110000000  0.4620960000000 1.0
C      1  0.4298860000000  0.4515800000000  0.4613700000000 1.0
C      1  0.5159360000000  0.4168030000000  0.4542160000000 1.0
C      1  0.5815290000000  0.4656150000000  0.4649180000000 1.0
C      1  0.5684690000000  0.5604250000000  0.4507380000000 1.0
C      1  0.5142150000000  0.5761210000000  0.5306070000000 1.0
C      1  0.5934770000000  0.5360000000000  0.5487130000000 1.0
C      1  0.5661280000000  0.4465760000000  0.5445030000000 1.0
C      1  0.4895950000000  0.4226550000000  0.5408870000000 1.0
C      1  0.4169140000000  0.4634100000000  0.5350710000000 1.0
C      1  0.4356230000000  0.5572990000000  0.5471940000000 1.0
C      1  0.5249530000000  0.4032890000000  0.4769800000000 1.0
C      1  0.6035650000000  0.4726600000000  0.4807470000000 1.0
C      1  0.5847270000000  0.5763120000000  0.4671300000000 1.0
C      1  0.4665410000000  0.5985510000000  0.4725460000000 1.0
C      1  0.3901390000000  0.5214890000000  0.4729700000000 1.0
C      1  0.4298050000000  0.4221660000000  0.4686780000000 1.0
C      1  0.4711490000000  0.4023810000000  0.5292420000000 1.0
C      1  0.3903520000000  0.4656880000000  0.5242610000000 1.0
C      1  0.4224400000000  0.5734050000000  0.5287160000000 1.0
C      1  0.5395510000000  0.5912940000000  0.5240210000000 1.0
C      1  0.6055860000000  0.5338410000000  0.5236960000000 1.0
C      1  0.5764250000000  0.4439850000000  0.5171960000000 1.0
C      1  0.5497400000000  0.5230350000000  0.4259890000000 1.0
C      1  0.5068220000000  0.5583400000000  0.4215270000000 1.0
C      1  0.4438240000000  0.5435780000000  0.4200290000000 1.0
C      1  0.4385350000000  0.4771730000000  0.4207340000000 1.0
C      1  0.4911630000000  0.4461590000000  0.4242550000000 1.0
C      1  0.5541180000000  0.4571000000000  0.4126840000000 1.0
C      1  0.4457960000000  0.5191760000000  0.5781400000000 1.0
C      1  0.5032260000000  0.5621090000000  0.5768720000000 1.0
C      1  0.5547630000000  0.5434340000000  0.5763890000000 1.0
C      1  0.5518170000000  0.4792000000000  0.5791640000000 1.0
C      1  0.5142570000000  0.4434290000000  0.5795890000000 1.0
C      1  0.4335930000000  0.4560440000000  0.5795770000000 1.0
C      1  0.5286260000000  0.5882100000000  0.4492220000000 1.0
C      1  0.4428150000000  0.5698970000000  0.4608740000000 1.0
C      1  0.4129410000000  0.4920850000000  0.4618480000000 1.0
C      1  0.4678380000000  0.4273640000000  0.4621920000000 1.0
C      1  0.5609820000000  0.4272950000000  0.4445380000000 1.0
C      1  0.5772990000000  0.5136050000000  0.4615290000000 1.0
C      1  0.4741340000000  0.5852220000000  0.5462070000000 1.0
C      1  0.5544080000000  0.5578540000000  0.5289200000000 1.0
C      1  0.5869780000000  0.4874050000000  0.5466070000000 1.0
C      1  0.5319780000000  0.4131000000000  0.5492990000000 1.0
C      1  0.4442280000000  0.4292590000000  0.5383670000000 1.0
C      1  0.4162150000000  0.5132520000000  0.5407300000000 1.0
C      1  0.5213180000000  0.4949860000000  0.6169090000000 1.0
C      1  0.5110260000000  0.5171190000000  0.6029730000000 1.0
C      1  0.4870620000000  0.5282070000000  0.6134410000000 1.0
C      1  0.4701280000000  0.5070740000000  0.6170460000000 1.0
C      1  0.4797380000000  0.4818240000000  0.6091940000000 1.0
C      1  0.5039730000000  0.4745990000000  0.6217930000000 1.0
C      1  0.4795640000000  0.4908930000000  0.3881380000000 1.0
C      1  0.4886910000000  0.5144330000000  0.4005630000000 1.0
C      1  0.5112070000000  0.5275400000000  0.3895740000000 1.0
C      1  0.5313220000000  0.5090590000000  0.3890250000000 1.0
C      1  0.5217990000000  0.4846550000000  0.4003470000000 1.0
C      1  0.4992990000000  0.4722930000000  0.3879600000000 1.0
C      1  0.3939510000000  0.5090930000000  0.4988700000000 1.0
C      1  0.4367230000000  0.4173700000000  0.4962370000000 1.0
C      1  0.5400300000000  0.4099090000000  0.4999270000000 1.0
C      1  0.6056910000000  0.4882240000000  0.5037540000000 1.0
C      1  0.5716270000000  0.5755520000000  0.4920460000000 1.0
C      1  0.4575230000000  0.5929210000000  0.4998090000000 1.0
C      1  0.6017650000000  0.5178260000000  0.5013090000000 1.0
C      1  0.5648990000000  0.4273890000000  0.4946680000000 1.0
C      1  0.4647840000000  0.4071340000000  0.5013990000000 1.0
C      1  0.3950860000000  0.4789320000000  0.4999540000000 1.0
C      1  0.4304200000000  0.5794640000000  0.5025210000000 1.0
C      1  0.5469300000000  0.5927810000000  0.4958620000000 1.0
C      1  0.5805950000000  0.5123330000000  0.5582780000000 1.0
C      1  0.5264830000000  0.5486010000000  0.5362490000000 1.0
C      1  0.4578880000000  0.5668780000000  0.5615650000000 1.0
C      1  0.4254520000000  0.4878050000000  0.5496360000000 1.0
C      1  0.4682570000000  0.4416910000000  0.5493780000000 1.0
C      1  0.5529670000000  0.4289110000000  0.5626660000000 1.0
C      1  0.4305550000000  0.5148030000000  0.4554570000000 1.0
C      1  0.4697420000000  0.5558680000000  0.4593780000000 1.0
C      1  0.5484550000000  0.5720080000000  0.4342760000000 1.0
C      1  0.5718250000000  0.4878470000000  0.4495720000000 1.0
C      1  0.5346400000000  0.4226930000000  0.4338660000000 1.0
C      1  0.4570960000000  0.4528700000000  0.4524600000000 1.0
C      1  0.4778910000000  0.5757070000000  0.5160310000000 1.0
C      1  0.4197660000000  0.5182170000000  0.5115950000000 1.0
C      1  0.4402790000000  0.4438130000000  0.5108820000000 1.0
C      1  0.5230640000000  0.4239200000000  0.5206650000000 1.0
C      1  0.5811250000000  0.4794530000000  0.5183750000000 1.0
C      1  0.5588650000000  0.5484630000000  0.4987240000000 1.0
C      1  0.5236210000000  0.5798670000000  0.4797330000000 1.0
C      1  0.5736490000000  0.5198860000000  0.4913990000000 1.0
C      1  0.5602870000000  0.4443520000000  0.4698700000000 1.0
C      1  0.4803800000000  0.4319170000000  0.4895990000000 1.0
C      1  0.4235120000000  0.4771340000000  0.4889610000000 1.0
C      1  0.4269800000000  0.5580150000000  0.4828080000000 1.0
C      1  0.4656970000000  0.5004220000000  0.5633660000000 1.0
C      1  0.4784870000000  0.4769100000000  0.5793530000000 1.0
C      1  0.5051250000000  0.4683920000000  0.5651700000000 1.0
C      1  0.5270000000000  0.4904480000000  0.5628360000000 1.0
C      1  0.5133410000000  0.5165460000000  0.5730060000000 1.0
C      1  0.4855630000000  0.5225840000000  0.5589020000000 1.0
C      1  0.5312890000000  0.5062210000000  0.4474750000000 1.0
C      1  0.5223610000000  0.4823320000000  0.4310380000000 1.0
C      1  0.4966070000000  0.4707320000000  0.4431030000000 1.0
C      1  0.4685660000000  0.4947950000000  0.4444460000000 1.0
C      1  0.4844950000000  0.5183420000000  0.4299600000000 1.0
C      1  0.5104470000000  0.5273970000000  0.4455860000000 1.0
C      1  0.4670960000000  0.4555100000000  0.5022250000000 1.0
C      1  0.5267490000000  0.4527090000000  0.5122580000000 1.0
C      1  0.4734370000000  0.5459700000000  0.5095860000000 1.0
C      1  0.5278260000000  0.5495560000000  0.4883360000000 1.0
C      1  0.4433550000000  0.4996080000000  0.5011840000000 1.0
C      1  0.5570350000000  0.4965910000000  0.5056920000000 1.0
C      1  0.4951420000000  0.4901740000000  0.4832970000000 1.0
END
