TITL C-3577090-796-473 -2.31785385820182e-06 125000 -844.754145466733 0 0 138 (C1) n - 1
REM
REM in /home/bkarasulu/work/CARBON/AIRSS/Generating-Clusters/EDIP-Nigel-Params/with-SteepDescent/Higher-Symm/SD-CG/HFTN-CG
REM
REM
REM
REM
REM
REM ./C.cell (12c818d87b63d06a65506943cc24bca4)
REM
REM compiler GCC version 9.2.1 20190827 (Red Hat 9.2.1-1)
REM options -cpp -mtune=generic -march=x86-64 -g -O0 -fpre-include=/usr/include/finclude/math-vector-fortran.h
REM seed -255684370 -652408495 1091906612 -447944825 -1270950460 -1465637549 -1582690931 244182671 22886665 1321177381 -576110603 -982483496 1165329039 -1782231045 1497625848 -24645077 -925629862 918652970 -966093330 1353640079 -1547652413 -1820718409 317707311 -2046682743 1414878784 -1576313011 -1828943128 292144348 1150390228 166000988 207337558 -1046798671 787813841
REM
CELL 1.54180   50.00000   50.00000   50.00000   90.00000   90.00000   90.00000
LATT -1
SFAC C  
C      1  0.5223940000000  0.5686330000000  0.5751650000000 1.0
C      1  0.5727950000000  0.5821670000000  0.5152900000000 1.0
C      1  0.5776220000000  0.5221280000000  0.5649290000000 1.0
C      1  0.4728490000000  0.5645710000000  0.4246240000000 1.0
C      1  0.4799300000000  0.4391810000000  0.5748110000000 1.0
C      1  0.5171080000000  0.4268200000000  0.4172460000000 1.0
C      1  0.4347100000000  0.5811270000000  0.4766230000000 1.0
C      1  0.4300020000000  0.4272270000000  0.5201280000000 1.0
C      1  0.5640880000000  0.4286010000000  0.4740650000000 1.0
C      1  0.4271530000000  0.5225120000000  0.4325780000000 1.0
C      1  0.4145480000000  0.4782000000000  0.5709900000000 1.0
C      1  0.5784520000000  0.4803550000000  0.4284860000000 1.0
C      1  0.5239140000000  0.4319170000000  0.5778920000000 1.0
C      1  0.5722090000000  0.4159650000000  0.5160180000000 1.0
C      1  0.5807910000000  0.4779590000000  0.5674880000000 1.0
C      1  0.4746230000000  0.4366420000000  0.4249870000000 1.0
C      1  0.4781980000000  0.5630100000000  0.5749560000000 1.0
C      1  0.5152210000000  0.5745410000000  0.4169440000000 1.0
C      1  0.4356230000000  0.4200860000000  0.4767830000000 1.0
C      1  0.4289770000000  0.5738340000000  0.5199310000000 1.0
C      1  0.5655600000000  0.5671760000000  0.4743050000000 1.0
C      1  0.4274140000000  0.4785040000000  0.4325620000000 1.0
C      1  0.4137630000000  0.5224430000000  0.5710980000000 1.0
C      1  0.5740890000000  0.5245050000000  0.4326050000000 1.0
C      1  0.5917330000000  0.5180720000000  0.4555920000000 1.0
C      1  0.5166850000000  0.4579620000000  0.5905330000000 1.0
C      1  0.4535970000000  0.5903360000000  0.5157360000000 1.0
C      1  0.3990390000000  0.5151640000000  0.5456500000000 1.0
C      1  0.4160730000000  0.4857330000000  0.4592600000000 1.0
C      1  0.5918930000000  0.4840590000000  0.5411370000000 1.0
C      1  0.4855040000000  0.4586080000000  0.4075150000000 1.0
C      1  0.4869760000000  0.5353970000000  0.5800200000000 1.0
C      1  0.5122120000000  0.5483340000000  0.4026520000000 1.0
C      1  0.5400920000000  0.5788870000000  0.4837460000000 1.0
C      1  0.5448360000000  0.4064350000000  0.5096200000000 1.0
C      1  0.4626070000000  0.4093030000000  0.4863380000000 1.0
C      1  0.5929780000000  0.4886330000000  0.4526040000000 1.0
C      1  0.5152260000000  0.5429370000000  0.5884110000000 1.0
C      1  0.4547080000000  0.4108820000000  0.5158080000000 1.0
C      1  0.3995900000000  0.4853120000000  0.5456570000000 1.0
C      1  0.4157690000000  0.5152640000000  0.4592440000000 1.0
C      1  0.5826790000000  0.5121800000000  0.5391260000000 1.0
C      1  0.4835010000000  0.5425340000000  0.4067240000000 1.0
C      1  0.4885510000000  0.4667790000000  0.5809760000000 1.0
C      1  0.5144600000000  0.4531480000000  0.4039080000000 1.0
C      1  0.5389040000000  0.4194030000000  0.4841490000000 1.0
C      1  0.5460830000000  0.5941080000000  0.5083230000000 1.0
C      1  0.4616120000000  0.5920070000000  0.4863370000000 1.0
C      1  0.5630710000000  0.5370640000000  0.4735720000000 1.0
C      1  0.5529850000000  0.4678900000000  0.5630920000000 1.0
C      1  0.4679650000000  0.5604190000000  0.5480450000000 1.0
C      1  0.4286890000000  0.5461930000000  0.5337330000000 1.0
C      1  0.4418500000000  0.4457850000000  0.4652270000000 1.0
C      1  0.5703070000000  0.4375590000000  0.5362290000000 1.0
C      1  0.4571010000000  0.4756000000000  0.4366680000000 1.0
C      1  0.4413640000000  0.5300500000000  0.5661660000000 1.0
C      1  0.5488080000000  0.5389490000000  0.4329350000000 1.0
C      1  0.5274120000000  0.5683710000000  0.4424530000000 1.0
C      1  0.5405300000000  0.4330370000000  0.5504070000000 1.0
C      1  0.4712920000000  0.4447630000000  0.4551350000000 1.0
C      1  0.5598140000000  0.4570100000000  0.4659010000000 1.0
C      1  0.5506620000000  0.5333290000000  0.5615670000000 1.0
C      1  0.4695320000000  0.4414520000000  0.5478360000000 1.0
C      1  0.4299000000000  0.4549720000000  0.5337640000000 1.0
C      1  0.4410120000000  0.5554670000000  0.4650290000000 1.0
C      1  0.5691040000000  0.5574140000000  0.5300490000000 1.0
C      1  0.4568230000000  0.5252500000000  0.4371480000000 1.0
C      1  0.4423910000000  0.4711220000000  0.5662180000000 1.0
C      1  0.5551310000000  0.4602490000000  0.4339280000000 1.0
C      1  0.5288630000000  0.4329360000000  0.4426180000000 1.0
C      1  0.5363560000000  0.5666020000000  0.5472840000000 1.0
C      1  0.4703090000000  0.5567270000000  0.4548510000000 1.0
C      1  0.5340390000000  0.5111340000000  0.5044320000000 1.0
C      1  0.5051510000000  0.4837630000000  0.5438580000000 1.0
C      1  0.4891210000000  0.5470090000000  0.5071960000000 1.0
C      1  0.4538170000000  0.5182800000000  0.5256600000000 1.0
C      1  0.4544850000000  0.4855060000000  0.4946690000000 1.0
C      1  0.5314890000000  0.4710150000000  0.5314660000000 1.0
C      1  0.4872340000000  0.4845200000000  0.4597680000000 1.0
C      1  0.4787680000000  0.5347160000000  0.5332960000000 1.0
C      1  0.5188780000000  0.5175110000000  0.4559950000000 1.0
C      1  0.5339900000000  0.5298100000000  0.4811030000000 1.0
C      1  0.5204720000000  0.4516040000000  0.5073990000000 1.0
C      1  0.4799510000000  0.4751510000000  0.4862350000000 1.0
C      1  0.5470580000000  0.4863490000000  0.5040050000000 1.0
C      1  0.5039190000000  0.5160900000000  0.5442030000000 1.0
C      1  0.4901460000000  0.4558280000000  0.5062150000000 1.0
C      1  0.4545420000000  0.4833200000000  0.5257400000000 1.0
C      1  0.4542690000000  0.5163220000000  0.4946420000000 1.0
C      1  0.5287390000000  0.5271500000000  0.5302770000000 1.0
C      1  0.4875110000000  0.5174800000000  0.4598780000000 1.0
C      1  0.4799580000000  0.4668790000000  0.5327210000000 1.0
C      1  0.5182100000000  0.4850690000000  0.4571830000000 1.0
C      1  0.5351210000000  0.4690030000000  0.4800550000000 1.0
C      1  0.5193690000000  0.5509980000000  0.5099470000000 1.0
C      1  0.4799210000000  0.5272800000000  0.4865150000000 1.0
C      1  0.5840740000000  0.5337950000000  0.5205020000000 1.0
C      1  0.5342400000000  0.5228340000000  0.5831070000000 1.0
C      1  0.5259970000000  0.5891340000000  0.5294450000000 1.0
C      1  0.4293420000000  0.5304050000000  0.4814230000000 1.0
C      1  0.4112460000000  0.4754410000000  0.5201610000000 1.0
C      1  0.5829160000000  0.4736190000000  0.4750370000000 1.0
C      1  0.4763950000000  0.5153760000000  0.4170800000000 1.0
C      1  0.4653520000000  0.4858240000000  0.5771300000000 1.0
C      1  0.5315630000000  0.4733910000000  0.4172010000000 1.0
C      1  0.4863550000000  0.5760470000000  0.4744820000000 1.0
C      1  0.4769310000000  0.4169810000000  0.5331780000000 1.0
C      1  0.5160410000000  0.4201500000000  0.4658960000000 1.0
C      1  0.5838080000000  0.4616400000000  0.5251430000000 1.0
C      1  0.5356100000000  0.4782520000000  0.5842010000000 1.0
C      1  0.5262880000000  0.4143990000000  0.5303440000000 1.0
C      1  0.4298630000000  0.4708640000000  0.4814190000000 1.0
C      1  0.4104210000000  0.5254780000000  0.5200880000000 1.0
C      1  0.5831450000000  0.5208900000000  0.4935290000000 1.0
C      1  0.4764220000000  0.4856410000000  0.4167830000000 1.0
C      1  0.4646000000000  0.5157690000000  0.5770210000000 1.0
C      1  0.5299340000000  0.5271180000000  0.4143790000000 1.0
C      1  0.4869730000000  0.4255480000000  0.4745190000000 1.0
C      1  0.4757650000000  0.5850520000000  0.5333710000000 1.0
C      1  0.5160170000000  0.5810490000000  0.4663670000000 1.0
C      1  0.5865290000000  0.5768870000000  0.4907800000000 1.0
C      1  0.5813890000000  0.5013370000000  0.5838430000000 1.0
C      1  0.4895900000000  0.5870070000000  0.4195630000000 1.0
C      1  0.4992800000000  0.4182540000000  0.5776140000000 1.0
C      1  0.4914710000000  0.4143490000000  0.4198320000000 1.0
C      1  0.4141860000000  0.5781450000000  0.4963650000000 1.0
C      1  0.4151510000000  0.4228650000000  0.4966040000000 1.0
C      1  0.5853720000000  0.4232290000000  0.4918550000000 1.0
C      1  0.4211710000000  0.5004810000000  0.4152980000000 1.0
C      1  0.4117920000000  0.5002310000000  0.5891000000000 1.0
C      1  0.5740970000000  0.5036730000000  0.4133250000000 1.0
C      1  0.4983280000000  0.5833640000000  0.5767540000000 1.0
C      1  0.5176140000000  0.5000570000000  0.5770930000000 1.0
C      1  0.5178460000000  0.5003100000000  0.4208330000000 1.0
C      1  0.4995910000000  0.5838240000000  0.5158450000000 1.0
C      1  0.5007210000000  0.4193680000000  0.5160180000000 1.0
C      1  0.5774120000000  0.4894010000000  0.4998610000000 1.0
C      1  0.4131480000000  0.5005320000000  0.5009250000000 1.0
END
