TITL C-3578196-9646-357 -1.00186890345934e-06 125000 -270.231815483161 0 0 45 (C1) n - 1
REM
REM in /home/bkarasulu/work/CARBON/AIRSS/Generating-Clusters/EDIP-Nigel-Params/with-SteepDescent/Higher-Symm/SD-CG/HFTN-CG
REM
REM
REM
REM
REM
REM ./C.cell (12c818d87b63d06a65506943cc24bca4)
REM
REM compiler GCC version 9.2.1 20190827 (Red Hat 9.2.1-1)
REM options -cpp -mtune=generic -march=x86-64 -g -O0 -fpre-include=/usr/include/finclude/math-vector-fortran.h
REM seed 710257645 -568635518 -149450821 -1963927790 892940286 799845487 -290736898 485938931 -648347047 -1696785178 -456359165 1218564124 -1105760008 -1691128875 1216813207 -908128994 2016765150 870307202 2014598463 -627329666 1533801182 -823117972 44936698 994724577 365517435 -557835108 1624002386 973893652 -143728921 -1559508396 717272549 29673126 554454569
REM
CELL 1.54180   50.00000   50.00000   50.00000   90.00000   90.00000   90.00000
LATT -1
SFAC C  
C      1  0.4822110000000  0.5016260000000  0.4360430000000 1.0
C      1  0.4832760000000  0.4422710000000  0.5292160000000 1.0
C      1  0.4848260000000  0.5547770000000  0.5364910000000 1.0
C      1  0.5226420000000  0.5014460000000  0.5630800000000 1.0
C      1  0.5219000000000  0.4428020000000  0.4709260000000 1.0
C      1  0.5197380000000  0.5541310000000  0.4637690000000 1.0
C      1  0.4527950000000  0.5318620000000  0.4913080000000 1.0
C      1  0.4525860000000  0.4761300000000  0.4773210000000 1.0
C      1  0.4529480000000  0.4951390000000  0.5336830000000 1.0
C      1  0.5510130000000  0.5315500000000  0.5082160000000 1.0
C      1  0.5538810000000  0.4736880000000  0.5223570000000 1.0
C      1  0.5518170000000  0.4944070000000  0.4665720000000 1.0
C      1  0.4276120000000  0.5163010000000  0.4965800000000 1.0
C      1  0.4289370000000  0.4925560000000  0.4789890000000 1.0
C      1  0.4292790000000  0.4955110000000  0.5177130000000 1.0
C      1  0.5763790000000  0.5157910000000  0.5038800000000 1.0
C      1  0.5758660000000  0.4922370000000  0.5217940000000 1.0
C      1  0.5751350000000  0.4947710000000  0.4830070000000 1.0
C      1  0.5449560000000  0.4646030000000  0.5472480000000 1.0
C      1  0.5463420000000  0.5583930000000  0.5006640000000 1.0
C      1  0.5461880000000  0.4740360000000  0.4483650000000 1.0
C      1  0.4605290000000  0.4652120000000  0.4528010000000 1.0
C      1  0.4582570000000  0.5583580000000  0.4994450000000 1.0
C      1  0.4592800000000  0.4743880000000  0.5512450000000 1.0
C      1  0.5251120000000  0.5692180000000  0.4862410000000 1.0
C      1  0.5266720000000  0.4543740000000  0.4463480000000 1.0
C      1  0.5257930000000  0.4741090000000  0.5650350000000 1.0
C      1  0.4794490000000  0.5694220000000  0.5137150000000 1.0
C      1  0.4785020000000  0.4544420000000  0.5535240000000 1.0
C      1  0.4793890000000  0.4742060000000  0.4344750000000 1.0
C      1  0.4870500000000  0.5202260000000  0.4562760000000 1.0
C      1  0.4883850000000  0.4529410000000  0.5039130000000 1.0
C      1  0.4892460000000  0.5276230000000  0.5410640000000 1.0
C      1  0.5172710000000  0.5204910000000  0.5434820000000 1.0
C      1  0.5168090000000  0.4532260000000  0.4963350000000 1.0
C      1  0.5151630000000  0.5270370000000  0.4590130000000 1.0
C      1  0.5280890000000  0.5146340000000  0.5163800000000 1.0
C      1  0.5287660000000  0.5082640000000  0.4778760000000 1.0
C      1  0.5320370000000  0.4783910000000  0.5028030000000 1.0
C      1  0.4748990000000  0.5139310000000  0.4829880000000 1.0
C      1  0.4755740000000  0.5093310000000  0.5217520000000 1.0
C      1  0.4733570000000  0.4781800000000  0.4983130000000 1.0
C      1  0.5034090000000  0.4604430000000  0.4324880000000 1.0
C      1  0.5018430000000  0.4602920000000  0.5673420000000 1.0
C      1  0.5022810000000  0.5772300000000  0.4999210000000 1.0
END
