TITL C-3578194-7807-312 -1.29703981199124e-06 125000 -330.338731539439 0 0 55 (D5) n - 1
REM
REM in /home/bkarasulu/work/CARBON/AIRSS/Generating-Clusters/EDIP-Nigel-Params/with-SteepDescent/Higher-Symm/SD-CG/HFTN-CG
REM
REM
REM
REM
REM
REM ./C.cell (12c818d87b63d06a65506943cc24bca4)
REM
REM compiler GCC version 9.2.1 20190827 (Red Hat 9.2.1-1)
REM options -cpp -mtune=generic -march=x86-64 -g -O0 -fpre-include=/usr/include/finclude/math-vector-fortran.h
REM seed -384735235 2061103329 812026980 -1039810250 -649267865 1899410576 2037893672 -959863293 -235006892 963696737 -1650191972 881524243 624923490 287786579 118797973 452330203 -32082592 -598575405 1995701627 -1227232597 781668899 338626655 410452324 -1442446072 1305385629 -537192440 645250988 965315030 2089588879 -1601793809 -754033963 1290722185 1343822242
REM
CELL 1.54180   50.00000   50.00000   50.00000   90.00000   90.00000   90.00000
LATT -1
SFAC C  
C      1  0.5183980000000  0.5526370000000  0.5136720000000 1.0
C      1  0.5556950000000  0.4985700000000  0.5138330000000 1.0
C      1  0.5158040000000  0.4463920000000  0.5132080000000 1.0
C      1  0.4538530000000  0.4682110000000  0.5126610000000 1.0
C      1  0.4554570000000  0.5338730000000  0.5129470000000 1.0
C      1  0.5187350000000  0.4473690000000  0.4824260000000 1.0
C      1  0.5560120000000  0.5014450000000  0.4830320000000 1.0
C      1  0.5161020000000  0.5536120000000  0.4828360000000 1.0
C      1  0.4541590000000  0.5317770000000  0.4821090000000 1.0
C      1  0.4557860000000  0.4661140000000  0.4818560000000 1.0
C      1  0.4645490000000  0.5564720000000  0.4671810000000 1.0
C      1  0.5428470000000  0.5515520000000  0.4679660000000 1.0
C      1  0.5623660000000  0.4755630000000  0.4678540000000 1.0
C      1  0.4961320000000  0.4335190000000  0.4670000000000 1.0
C      1  0.4356780000000  0.4835240000000  0.4665840000000 1.0
C      1  0.4639410000000  0.4435180000000  0.5278000000000 1.0
C      1  0.5422370000000  0.4484600000000  0.5286250000000 1.0
C      1  0.5617290000000  0.5244550000000  0.5291390000000 1.0
C      1  0.4954790000000  0.5664800000000  0.5286300000000 1.0
C      1  0.4350430000000  0.5164580000000  0.5278020000000 1.0
C      1  0.4585610000000  0.5032050000000  0.4687160000000 1.0
C      1  0.4903330000000  0.5407660000000  0.4691980000000 1.0
C      1  0.5358730000000  0.5221530000000  0.4695900000000 1.0
C      1  0.5322470000000  0.4730890000000  0.4693500000000 1.0
C      1  0.4844650000000  0.4613780000000  0.4688110000000 1.0
C      1  0.4579710000000  0.4967830000000  0.5261410000000 1.0
C      1  0.4897570000000  0.4592310000000  0.5263140000000 1.0
C      1  0.5352900000000  0.4778570000000  0.5268590000000 1.0
C      1  0.5316460000000  0.5269200000000  0.5270230000000 1.0
C      1  0.4838600000000  0.5386170000000  0.5265800000000 1.0
C      1  0.5222330000000  0.5126930000000  0.4448070000000 1.0
C      1  0.5191120000000  0.4834490000000  0.4446540000000 1.0
C      1  0.4903370000000  0.4773820000000  0.4443330000000 1.0
C      1  0.4756740000000  0.5028750000000  0.4442870000000 1.0
C      1  0.4953860000000  0.5246980000000  0.4445800000000 1.0
C      1  0.5211400000000  0.4873130000000  0.5513560000000 1.0
C      1  0.5180090000000  0.5165560000000  0.5514440000000 1.0
C      1  0.4892320000000  0.5226150000000  0.5511730000000 1.0
C      1  0.4745780000000  0.4971180000000  0.5509170000000 1.0
C      1  0.4942980000000  0.4753000000000  0.5510300000000 1.0
C      1  0.4106840000000  0.5112010000000  0.5160610000000 1.0
C      1  0.4829870000000  0.5881680000000  0.5171220000000 1.0
C      1  0.5785300000000  0.5431820000000  0.5179190000000 1.0
C      1  0.5652760000000  0.4384110000000  0.5173520000000 1.0
C      1  0.4615410000000  0.4186460000000  0.5162030000000 1.0
C      1  0.4110810000000  0.4887740000000  0.4778220000000 1.0
C      1  0.4834120000000  0.4118270000000  0.4782490000000 1.0
C      1  0.5789380000000  0.4568410000000  0.4794170000000 1.0
C      1  0.5656460000000  0.5616070000000  0.4797120000000 1.0
C      1  0.4619040000000  0.5813430000000  0.4787260000000 1.0
C      1  0.4679020000000  0.4011460000000  0.4971210000000 1.0
C      1  0.4678650000000  0.5988440000000  0.4979340000000 1.0
C      1  0.5840710000000  0.5611040000000  0.4989750000000 1.0
C      1  0.5840930000000  0.4389200000000  0.4984720000000 1.0
C      1  0.3960690000000  0.4999850000000  0.4967890000000 1.0
END
