TITL C-3578203-1966-288 3.05088441142527e-06 125000 -362.837320888441 0 0 61 (C3) n - 1
REM
REM in /home/bkarasulu/work/CARBON/AIRSS/Generating-Clusters/EDIP-Nigel-Params/with-SteepDescent/Higher-Symm/SD-CG/HFTN-CG
REM
REM
REM
REM
REM
REM ./C.cell (12c818d87b63d06a65506943cc24bca4)
REM
REM compiler GCC version 9.2.1 20190827 (Red Hat 9.2.1-1)
REM options -cpp -mtune=generic -march=x86-64 -g -O0 -fpre-include=/usr/include/finclude/math-vector-fortran.h
REM seed 988450796 -194754073 1448174267 -467208216 1518952002 -1969142614 -759724608 -551813220 417786939 -1901515625 1845984137 -29224112 -1204324352 -805514403 1512683982 1083984569 -39011527 203412767 -1671735355 -1771931478 -929827138 -1681439197 361686040 1785986019 -1713214396 -464595920 2133357738 1787592252 598363381 804565482 -43981834 -1805015411 152238583
REM
CELL 1.54180   50.00000   50.00000   50.00000   90.00000   90.00000   90.00000
LATT -1
SFAC C  
C      1  0.5594740000000  0.4926240000000  0.4607880000000 1.0
C      1  0.5594670000000  0.5371160000000  0.5129090000000 1.0
C      1  0.5594570000000  0.4697330000000  0.5253800000000 1.0
C      1  0.4971140000000  0.4236820000000  0.5326670000000 1.0
C      1  0.4971490000000  0.5093370000000  0.4172370000000 1.0
C      1  0.4971260000000  0.5664750000000  0.5491310000000 1.0
C      1  0.4916030000000  0.4878940000000  0.5254080000000 1.0
C      1  0.4916130000000  0.4835180000000  0.4764730000000 1.0
C      1  0.4916130000000  0.5280850000000  0.4971510000000 1.0
C      1  0.5362310000000  0.4503170000000  0.4692770000000 1.0
C      1  0.5362420000000  0.5509180000000  0.4720150000000 1.0
C      1  0.5362170000000  0.4982460000000  0.5577690000000 1.0
C      1  0.5606510000000  0.5187070000000  0.5349600000000 1.0
C      1  0.5606520000000  0.4598410000000  0.4984110000000 1.0
C      1  0.5606660000000  0.5209260000000  0.4657060000000 1.0
C      1  0.4349880000000  0.4653460000000  0.5350040000000 1.0
C      1  0.4350080000000  0.4864800000000  0.4521240000000 1.0
C      1  0.4350020000000  0.5476890000000  0.5118670000000 1.0
C      1  0.5462720000000  0.4955510000000  0.5292250000000 1.0
C      1  0.5462800000000  0.4763840000000  0.4812190000000 1.0
C      1  0.5462840000000  0.5275420000000  0.4886230000000 1.0
C      1  0.4517330000000  0.5015560000000  0.5641330000000 1.0
C      1  0.4517480000000  0.4431480000000  0.4689250000000 1.0
C      1  0.4517610000000  0.5548050000000  0.4659470000000 1.0
C      1  0.5167600000000  0.5282360000000  0.4298880000000 1.0
C      1  0.5167330000000  0.5460690000000  0.5591810000000 1.0
C      1  0.5167310000000  0.4251820000000  0.5099790000000 1.0
C      1  0.5178080000000  0.5027550000000  0.4494640000000 1.0
C      1  0.5177950000000  0.5418570000000  0.5273270000000 1.0
C      1  0.5177860000000  0.4548750000000  0.5222590000000 1.0
C      1  0.4633240000000  0.4449170000000  0.4939230000000 1.0
C      1  0.4633430000000  0.5322720000000  0.4549850000000 1.0
C      1  0.4633200000000  0.5223160000000  0.5501050000000 1.0
C      1  0.4888500000000  0.5740720000000  0.5216670000000 1.0
C      1  0.4888280000000  0.4436680000000  0.5529750000000 1.0
C      1  0.4888610000000  0.4817570000000  0.4243880000000 1.0
C      1  0.4744590000000  0.4825270000000  0.4505260000000 1.0
C      1  0.4744540000000  0.5510500000000  0.5092590000000 1.0
C      1  0.4744380000000  0.4659240000000  0.5392350000000 1.0
C      1  0.4446200000000  0.5369560000000  0.5353950000000 1.0
C      1  0.4446150000000  0.4503370000000  0.5139480000000 1.0
C      1  0.4446360000000  0.5122200000000  0.4496570000000 1.0
C      1  0.4913670000000  0.5261040000000  0.4659960000000 1.0
C      1  0.4913500000000  0.5158650000000  0.5392700000000 1.0
C      1  0.4913530000000  0.4575270000000  0.4937650000000 1.0
C      1  0.4510980000000  0.4750760000000  0.5566580000000 1.0
C      1  0.4511200000000  0.4628620000000  0.4497300000000 1.0
C      1  0.4511220000000  0.5615720000000  0.4926170000000 1.0
C      1  0.5326700000000  0.4679640000000  0.5656720000000 1.0
C      1  0.5326970000000  0.4586130000000  0.4390990000000 1.0
C      1  0.5326970000000  0.5729040000000  0.4942880000000 1.0
C      1  0.5118030000000  0.5458410000000  0.4540600000000 1.0
C      1  0.5117760000000  0.5163340000000  0.5623400000000 1.0
C      1  0.5117850000000  0.4373140000000  0.4826460000000 1.0
C      1  0.5420010000000  0.4532920000000  0.5418340000000 1.0
C      1  0.5420280000000  0.4865940000000  0.4383150000000 1.0
C      1  0.5420180000000  0.5595930000000  0.5189160000000 1.0
C      1  0.5080810000000  0.4610380000000  0.4256270000000 1.0
C      1  0.5080770000000  0.5833590000000  0.5031130000000 1.0
C      1  0.5080480000000  0.4550930000000  0.5703030000000 1.0
C      1  0.4833940000000  0.4998330000000  0.4996750000000 1.0
END
