TITL C-3578206-1180-288 -2.71656853687025e-08 125000 -1074.50391975623 0 0 171 (C1) n - 1
REM
REM in /home/bkarasulu/work/CARBON/AIRSS/Generating-Clusters/EDIP-Nigel-Params/with-SteepDescent/Higher-Symm/SD-CG/HFTN-CG
REM
REM
REM
REM
REM
REM ./C.cell (12c818d87b63d06a65506943cc24bca4)
REM
REM compiler GCC version 9.2.1 20190827 (Red Hat 9.2.1-1)
REM options -cpp -mtune=generic -march=x86-64 -g -O0 -fpre-include=/usr/include/finclude/math-vector-fortran.h
REM seed -270572038 -857361671 -1644311616 -1585801219 264358401 137945431 1199001145 -1052637478 -1532493523 119977916 -1613885044 -1089529834 2005963011 -664536739 2056372878 -465805309 -273116822 294785130 -446740166 890790453 -804434718 300503105 -1807571269 -1781549149 1249722310 -987377935 -788072157 560445684 505090958 -1494249354 -295682487 1366065915 319418444
REM
CELL 1.54180   50.00000   50.00000   50.00000   90.00000   90.00000   90.00000
LATT -1
SFAC C  
C      1  0.5936490000000  0.4362740000000  0.5004480000000 1.0
C      1  0.4962740000000  0.6152650000000  0.4751260000000 1.0
C      1  0.5902200000000  0.4649170000000  0.4599600000000 1.0
C      1  0.4428800000000  0.4261750000000  0.5024310000000 1.0
C      1  0.5821840000000  0.4849310000000  0.5797040000000 1.0
C      1  0.4456340000000  0.4546740000000  0.5088430000000 1.0
C      1  0.5029680000000  0.5776440000000  0.5371730000000 1.0
C      1  0.4226210000000  0.4288170000000  0.4808830000000 1.0
C      1  0.5424080000000  0.4474110000000  0.5845200000000 1.0
C      1  0.4950980000000  0.4655880000000  0.5822680000000 1.0
C      1  0.4504360000000  0.4839970000000  0.5564400000000 1.0
C      1  0.4481630000000  0.5326120000000  0.4761290000000 1.0
C      1  0.3902340000000  0.4634500000000  0.5383610000000 1.0
C      1  0.5963350000000  0.4390740000000  0.5295370000000 1.0
C      1  0.4414670000000  0.5816400000000  0.4431040000000 1.0
C      1  0.4943550000000  0.5469500000000  0.4889280000000 1.0
C      1  0.4474890000000  0.4109320000000  0.5564110000000 1.0
C      1  0.5603340000000  0.5702980000000  0.5489530000000 1.0
C      1  0.6001420000000  0.5399010000000  0.4634450000000 1.0
C      1  0.5265910000000  0.5157430000000  0.4703200000000 1.0
C      1  0.5362830000000  0.5002930000000  0.5719250000000 1.0
C      1  0.4841270000000  0.4001070000000  0.5122010000000 1.0
C      1  0.4568660000000  0.4230620000000  0.5826850000000 1.0
C      1  0.4923750000000  0.5025570000000  0.3930340000000 1.0
C      1  0.4217260000000  0.5339510000000  0.4307380000000 1.0
C      1  0.4710080000000  0.4911210000000  0.4891660000000 1.0
C      1  0.3919950000000  0.5363940000000  0.5023060000000 1.0
C      1  0.5844010000000  0.5593410000000  0.4790460000000 1.0
C      1  0.4753750000000  0.4138400000000  0.4639100000000 1.0
C      1  0.5145420000000  0.4317840000000  0.5525180000000 1.0
C      1  0.4219700000000  0.4625510000000  0.4475390000000 1.0
C      1  0.5853430000000  0.5295200000000  0.5161820000000 1.0
C      1  0.4946570000000  0.4996940000000  0.5516650000000 1.0
C      1  0.4987630000000  0.4603440000000  0.4463990000000 1.0
C      1  0.4947780000000  0.5081120000000  0.6020240000000 1.0
C      1  0.5774820000000  0.5850820000000  0.4666460000000 1.0
C      1  0.4399810000000  0.4477450000000  0.4635060000000 1.0
C      1  0.4872050000000  0.4585000000000  0.5227880000000 1.0
C      1  0.5581470000000  0.5702740000000  0.5187670000000 1.0
C      1  0.6020280000000  0.4599460000000  0.4863310000000 1.0
C      1  0.4801360000000  0.4545150000000  0.4034750000000 1.0
C      1  0.5078980000000  0.4824250000000  0.5316870000000 1.0
C      1  0.4583410000000  0.5300360000000  0.5627290000000 1.0
C      1  0.5616690000000  0.5428640000000  0.5590380000000 1.0
C      1  0.4983680000000  0.4711480000000  0.3895700000000 1.0
C      1  0.5269730000000  0.4663880000000  0.4033980000000 1.0
C      1  0.4648840000000  0.5834670000000  0.4859640000000 1.0
C      1  0.3920600000000  0.4811330000000  0.4925730000000 1.0
C      1  0.4641550000000  0.4742630000000  0.5843150000000 1.0
C      1  0.5423400000000  0.5845500000000  0.5648200000000 1.0
C      1  0.4941400000000  0.4464070000000  0.4947180000000 1.0
C      1  0.4349800000000  0.5445120000000  0.4069350000000 1.0
C      1  0.4542270000000  0.4668630000000  0.4841040000000 1.0
C      1  0.5927700000000  0.5368330000000  0.4347170000000 1.0
C      1  0.5065010000000  0.4930390000000  0.5781730000000 1.0
C      1  0.5191950000000  0.5769240000000  0.5786170000000 1.0
C      1  0.4709170000000  0.5494230000000  0.6010410000000 1.0
C      1  0.5516340000000  0.4812830000000  0.4915420000000 1.0
C      1  0.4164790000000  0.4892360000000  0.4509950000000 1.0
C      1  0.5264210000000  0.4029180000000  0.5512620000000 1.0
C      1  0.4663940000000  0.5541030000000  0.4920850000000 1.0
C      1  0.5142650000000  0.5923510000000  0.5119340000000 1.0
C      1  0.4250050000000  0.5056540000000  0.4288470000000 1.0
C      1  0.4211260000000  0.5792930000000  0.4886070000000 1.0
C      1  0.5747910000000  0.4757730000000  0.5529540000000 1.0
C      1  0.4446890000000  0.5715830000000  0.5589950000000 1.0
C      1  0.4663600000000  0.5054650000000  0.5450210000000 1.0
C      1  0.4950370000000  0.5863420000000  0.5651540000000 1.0
C      1  0.4979230000000  0.3956120000000  0.4568570000000 1.0
C      1  0.4717220000000  0.4203010000000  0.4930560000000 1.0
C      1  0.4700810000000  0.5104210000000  0.4660270000000 1.0
C      1  0.4544560000000  0.5250110000000  0.5931720000000 1.0
C      1  0.4233370000000  0.4467430000000  0.5480270000000 1.0
C      1  0.3985420000000  0.4805980000000  0.5600290000000 1.0
C      1  0.4602590000000  0.5068510000000  0.5141220000000 1.0
C      1  0.4881270000000  0.4351970000000  0.5421120000000 1.0
C      1  0.4693150000000  0.5720520000000  0.5773050000000 1.0
C      1  0.5344390000000  0.5303030000000  0.5607610000000 1.0
C      1  0.6001920000000  0.5086220000000  0.5016490000000 1.0
C      1  0.4358750000000  0.5186640000000  0.5000650000000 1.0
C      1  0.5159980000000  0.4771000000000  0.4300730000000 1.0
C      1  0.5511300000000  0.5318890000000  0.4886260000000 1.0
C      1  0.4459200000000  0.4502750000000  0.5909120000000 1.0
C      1  0.5240900000000  0.4253400000000  0.4371770000000 1.0
C      1  0.4494390000000  0.5743280000000  0.5290630000000 1.0
C      1  0.5365790000000  0.5242770000000  0.4422860000000 1.0
C      1  0.5164480000000  0.5668090000000  0.4900620000000 1.0
C      1  0.4509040000000  0.4994590000000  0.4167800000000 1.0
C      1  0.5566140000000  0.4892000000000  0.5912490000000 1.0
C      1  0.5605580000000  0.5000990000000  0.5406650000000 1.0
C      1  0.4219580000000  0.5424190000000  0.4602980000000 1.0
C      1  0.5849610000000  0.5072530000000  0.4303620000000 1.0
C      1  0.4963510000000  0.5272720000000  0.4690260000000 1.0
C      1  0.4985410000000  0.5375640000000  0.6032580000000 1.0
C      1  0.5477830000000  0.4663460000000  0.6042160000000 1.0
C      1  0.5205760000000  0.4300980000000  0.4922530000000 1.0
C      1  0.5115710000000  0.5291630000000  0.4271530000000 1.0
C      1  0.4866520000000  0.3937250000000  0.5674070000000 1.0
C      1  0.5393960000000  0.4407760000000  0.5119190000000 1.0
C      1  0.5134890000000  0.5470200000000  0.5783760000000 1.0
C      1  0.5564220000000  0.4529920000000  0.4468040000000 1.0
C      1  0.5563770000000  0.4504970000000  0.5562430000000 1.0
C      1  0.5000220000000  0.4699280000000  0.4746500000000 1.0
C      1  0.4172720000000  0.5286700000000  0.5467470000000 1.0
C      1  0.5417720000000  0.4798440000000  0.4458910000000 1.0
C      1  0.5293110000000  0.4855770000000  0.4728100000000 1.0
C      1  0.4938160000000  0.6132220000000  0.5037280000000 1.0
C      1  0.5184160000000  0.5434780000000  0.4026480000000 1.0
C      1  0.4599200000000  0.4328620000000  0.4461870000000 1.0
C      1  0.5493960000000  0.5037910000000  0.5102020000000 1.0
C      1  0.4753500000000  0.4080940000000  0.5416480000000 1.0
C      1  0.4174230000000  0.5380140000000  0.5163510000000 1.0
C      1  0.4668720000000  0.6011670000000  0.5098450000000 1.0
C      1  0.5550970000000  0.5020070000000  0.4264690000000 1.0
C      1  0.4875880000000  0.5426680000000  0.5606210000000 1.0
C      1  0.4649000000000  0.5503020000000  0.5213840000000 1.0
C      1  0.3996220000000  0.5281860000000  0.4763180000000 1.0
C      1  0.5367870000000  0.5505510000000  0.5078990000000 1.0
C      1  0.5711390000000  0.5571750000000  0.4328110000000 1.0
C      1  0.5206490000000  0.5328600000000  0.5290870000000 1.0
C      1  0.4514950000000  0.4586790000000  0.5381970000000 1.0
C      1  0.5138820000000  0.4012820000000  0.5023750000000 1.0
C      1  0.5362500000000  0.3948580000000  0.5246590000000 1.0
C      1  0.4717370000000  0.4942660000000  0.4375490000000 1.0
C      1  0.5134830000000  0.3852850000000  0.4782800000000 1.0
C      1  0.5316250000000  0.4522800000000  0.5381030000000 1.0
C      1  0.5800550000000  0.5835760000000  0.4384070000000 1.0
C      1  0.5600080000000  0.4548880000000  0.4991820000000 1.0
C      1  0.4984140000000  0.5017520000000  0.4229760000000 1.0
C      1  0.5214620000000  0.5714060000000  0.4068540000000 1.0
C      1  0.4204480000000  0.4541980000000  0.5769850000000 1.0
C      1  0.5119220000000  0.4402630000000  0.5815780000000 1.0
C      1  0.5360320000000  0.4319620000000  0.4639670000000 1.0
C      1  0.5198550000000  0.5050900000000  0.5157670000000 1.0
C      1  0.6021780000000  0.5128850000000  0.4733350000000 1.0
C      1  0.5506470000000  0.5952360000000  0.4751490000000 1.0
C      1  0.5165070000000  0.5827040000000  0.4323090000000 1.0
C      1  0.4607510000000  0.5553790000000  0.4073590000000 1.0
C      1  0.5464270000000  0.5958660000000  0.5055820000000 1.0
C      1  0.4225290000000  0.4180370000000  0.5456400000000 1.0
C      1  0.5737500000000  0.4266290000000  0.5441710000000 1.0
C      1  0.5118670000000  0.3824460000000  0.5640170000000 1.0
C      1  0.4086370000000  0.4999030000000  0.4774540000000 1.0
C      1  0.4933610000000  0.5498330000000  0.5332820000000 1.0
C      1  0.4939690000000  0.5438860000000  0.4447930000000 1.0
C      1  0.5374040000000  0.5070270000000  0.3785400000000 1.0
C      1  0.4857900000000  0.5899900000000  0.4673100000000 1.0
C      1  0.5322680000000  0.5737690000000  0.4602070000000 1.0
C      1  0.4222770000000  0.5718040000000  0.4615660000000 1.0
C      1  0.5117150000000  0.4003310000000  0.4326510000000 1.0
C      1  0.4740870000000  0.4559540000000  0.4318510000000 1.0
C      1  0.4257590000000  0.5502800000000  0.5646190000000 1.0
C      1  0.5503780000000  0.5492090000000  0.4534470000000 1.0
C      1  0.5976560000000  0.4682500000000  0.5347940000000 1.0
C      1  0.4852390000000  0.4151230000000  0.5879210000000 1.0
C      1  0.4662270000000  0.4993920000000  0.6029030000000 1.0
C      1  0.5465230000000  0.4899430000000  0.3986000000000 1.0
C      1  0.5778060000000  0.5236800000000  0.5434380000000 1.0
C      1  0.5965420000000  0.4925280000000  0.4530660000000 1.0
C      1  0.4619200000000  0.5183410000000  0.3965300000000 1.0
C      1  0.4215400000000  0.4984690000000  0.5569040000000 1.0
C      1  0.3992570000000  0.4430280000000  0.4920780000000 1.0
C      1  0.5140580000000  0.5218810000000  0.3821850000000 1.0
C      1  0.5824570000000  0.5569370000000  0.5072450000000 1.0
C      1  0.4641710000000  0.5766030000000  0.4265590000000 1.0
C      1  0.4897050000000  0.5738390000000  0.4423930000000 1.0
C      1  0.5625720000000  0.4064620000000  0.5266550000000 1.0
C      1  0.4024640000000  0.4635130000000  0.5125880000000 1.0
C      1  0.5408990000000  0.4413910000000  0.4179310000000 1.0
C      1  0.5976950000000  0.4801230000000  0.5076600000000 1.0
C      1  0.4246340000000  0.5675700000000  0.5140780000000 1.0
END
