TITL C-3578205-846-641 -2.42365273707197e-06 125000 -957.582410994453 0 0 152 (C1) n - 1
REM
REM in /home/bkarasulu/work/CARBON/AIRSS/Generating-Clusters/EDIP-Nigel-Params/with-SteepDescent/Higher-Symm/SD-CG/HFTN-CG
REM
REM
REM
REM
REM
REM ./C.cell (12c818d87b63d06a65506943cc24bca4)
REM
REM compiler GCC version 9.2.1 20190827 (Red Hat 9.2.1-1)
REM options -cpp -mtune=generic -march=x86-64 -g -O0 -fpre-include=/usr/include/finclude/math-vector-fortran.h
REM seed 1910023833 -151560829 1601101697 2009216715 898948055 1400385574 -310716677 631986623 -1848419369 -1395478924 -829231700 793961057 589426960 1531547499 981370464 1622332259 752118232 1501228680 14711805 2035018141 -474313422 332092251 1288131881 -1135518434 349265166 25052799 -1337174082 1191665801 -235786911 -1672872331 -394971358 -1426686599 1607443037
REM
CELL 1.54180   50.00000   50.00000   50.00000   90.00000   90.00000   90.00000
LATT -1
SFAC C  
C      1  0.4713580000000  0.4969380000000  0.6150900000000 1.0
C      1  0.4746960000000  0.3960000000000  0.5356720000000 1.0
C      1  0.4762670000000  0.4351240000000  0.4085580000000 1.0
C      1  0.4720680000000  0.5701620000000  0.4064830000000 1.0
C      1  0.4724660000000  0.6052110000000  0.5331400000000 1.0
C      1  0.5088920000000  0.5328360000000  0.4074020000000 1.0
C      1  0.4998690000000  0.5949990000000  0.4994740000000 1.0
C      1  0.5065200000000  0.5286750000000  0.5956520000000 1.0
C      1  0.5017610000000  0.4238900000000  0.5574530000000 1.0
C      1  0.5033310000000  0.4254100000000  0.4425170000000 1.0
C      1  0.4589000000000  0.5284680000000  0.4970440000000 1.0
C      1  0.4589710000000  0.5132660000000  0.5249130000000 1.0
C      1  0.4610070000000  0.4824580000000  0.5186990000000 1.0
C      1  0.4686880000000  0.4772380000000  0.4879070000000 1.0
C      1  0.4593820000000  0.5050970000000  0.4729780000000 1.0
C      1  0.5381480000000  0.5668190000000  0.4213240000000 1.0
C      1  0.5327460000000  0.5846870000000  0.5375670000000 1.0
C      1  0.5406620000000  0.4910940000000  0.6019940000000 1.0
C      1  0.5318090000000  0.4055080000000  0.5201640000000 1.0
C      1  0.5356230000000  0.4530750000000  0.4142760000000 1.0
C      1  0.5590620000000  0.4796380000000  0.5819140000000 1.0
C      1  0.5543100000000  0.4175650000000  0.5061150000000 1.0
C      1  0.5587040000000  0.4697040000000  0.4221940000000 1.0
C      1  0.5576840000000  0.5647600000000  0.4432790000000 1.0
C      1  0.5560880000000  0.5676040000000  0.5419240000000 1.0
C      1  0.5137180000000  0.3873980000000  0.5064950000000 1.0
C      1  0.5168120000000  0.4607370000000  0.3930260000000 1.0
C      1  0.5122440000000  0.5791640000000  0.4283530000000 1.0
C      1  0.5152070000000  0.5926170000000  0.5593170000000 1.0
C      1  0.5146790000000  0.4775300000000  0.6063270000000 1.0
C      1  0.5105830000000  0.5076000000000  0.5740750000000 1.0
C      1  0.4944240000000  0.4450020000000  0.5341450000000 1.0
C      1  0.4935230000000  0.4540830000000  0.4523960000000 1.0
C      1  0.5108120000000  0.5358450000000  0.4375340000000 1.0
C      1  0.4900960000000  0.5652140000000  0.5077580000000 1.0
C      1  0.4258840000000  0.4309450000000  0.4581500000000 1.0
C      1  0.4236640000000  0.5171300000000  0.4180330000000 1.0
C      1  0.4258410000000  0.5795090000000  0.4901870000000 1.0
C      1  0.4224510000000  0.5319160000000  0.5768180000000 1.0
C      1  0.4225900000000  0.4379420000000  0.5535530000000 1.0
C      1  0.4958910000000  0.5528680000000  0.5819440000000 1.0
C      1  0.4940850000000  0.4435890000000  0.5797860000000 1.0
C      1  0.4961460000000  0.4094410000000  0.4671440000000 1.0
C      1  0.4973440000000  0.5061910000000  0.4007900000000 1.0
C      1  0.4922960000000  0.5925280000000  0.4696720000000 1.0
C      1  0.5256970000000  0.5195980000000  0.5513220000000 1.0
C      1  0.5157350000000  0.4689740000000  0.5367480000000 1.0
C      1  0.5181960000000  0.4709190000000  0.4772820000000 1.0
C      1  0.5286050000000  0.5168400000000  0.4561760000000 1.0
C      1  0.5079940000000  0.5508810000000  0.4876420000000 1.0
C      1  0.5127040000000  0.5749240000000  0.5803910000000 1.0
C      1  0.5121280000000  0.4499220000000  0.6006490000000 1.0
C      1  0.5122360000000  0.3900160000000  0.4788560000000 1.0
C      1  0.5138470000000  0.4878250000000  0.3879390000000 1.0
C      1  0.5103500000000  0.5987160000000  0.4486470000000 1.0
C      1  0.5053070000000  0.5203600000000  0.5275110000000 1.0
C      1  0.4950470000000  0.4909430000000  0.5348960000000 1.0
C      1  0.4971020000000  0.4689230000000  0.4968990000000 1.0
C      1  0.5094920000000  0.4945340000000  0.4613800000000 1.0
C      1  0.4897510000000  0.5296470000000  0.4785930000000 1.0
C      1  0.5874820000000  0.5273600000000  0.4577920000000 1.0
C      1  0.5815600000000  0.5403970000000  0.5082930000000 1.0
C      1  0.5865100000000  0.4975930000000  0.5460920000000 1.0
C      1  0.5848560000000  0.4536660000000  0.5167500000000 1.0
C      1  0.5875580000000  0.4692410000000  0.4644400000000 1.0
C      1  0.5832740000000  0.5220390000000  0.5304660000000 1.0
C      1  0.5715610000000  0.4712040000000  0.5388180000000 1.0
C      1  0.5710120000000  0.4551010000000  0.4889030000000 1.0
C      1  0.5824810000000  0.4984530000000  0.4464250000000 1.0
C      1  0.5698070000000  0.5292930000000  0.4831490000000 1.0
C      1  0.5629300000000  0.5512030000000  0.5641730000000 1.0
C      1  0.5626700000000  0.4523720000000  0.5710780000000 1.0
C      1  0.5602120000000  0.4198950000000  0.4776600000000 1.0
C      1  0.5683390000000  0.4962840000000  0.4116990000000 1.0
C      1  0.5576710000000  0.5791910000000  0.4675710000000 1.0
C      1  0.4968300000000  0.4809080000000  0.4395640000000 1.0
C      1  0.4847240000000  0.5398800000000  0.4509420000000 1.0
C      1  0.4927480000000  0.5478340000000  0.5326550000000 1.0
C      1  0.4853920000000  0.4956530000000  0.5629490000000 1.0
C      1  0.4951160000000  0.4401310000000  0.5047950000000 1.0
C      1  0.4866660000000  0.4134250000000  0.4218970000000 1.0
C      1  0.4897040000000  0.5510430000000  0.3965220000000 1.0
C      1  0.4828370000000  0.6161020000000  0.5100500000000 1.0
C      1  0.4863900000000  0.5203270000000  0.6141390000000 1.0
C      1  0.4834700000000  0.4016840000000  0.5610270000000 1.0
C      1  0.4473100000000  0.4650020000000  0.5865210000000 1.0
C      1  0.4523150000000  0.4103580000000  0.4947140000000 1.0
C      1  0.4540870000000  0.4792160000000  0.4114320000000 1.0
C      1  0.4476950000000  0.5783150000000  0.4479200000000 1.0
C      1  0.4535930000000  0.5662290000000  0.5568090000000 1.0
C      1  0.4548850000000  0.5818820000000  0.5322900000000 1.0
C      1  0.4482380000000  0.4927170000000  0.5962940000000 1.0
C      1  0.4524210000000  0.4105200000000  0.5241350000000 1.0
C      1  0.4549220000000  0.4512300000000  0.4207830000000 1.0
C      1  0.4489880000000  0.5614240000000  0.4238580000000 1.0
C      1  0.4659460000000  0.4571490000000  0.5396990000000 1.0
C      1  0.4677600000000  0.4513460000000  0.4684600000000 1.0
C      1  0.4652620000000  0.5177670000000  0.4432080000000 1.0
C      1  0.4625260000000  0.5606180000000  0.4943810000000 1.0
C      1  0.4646720000000  0.5177410000000  0.5557700000000 1.0
C      1  0.5473360000000  0.5077890000000  0.5295610000000 1.0
C      1  0.5441320000000  0.4780120000000  0.5256990000000 1.0
C      1  0.5469750000000  0.4741780000000  0.4948090000000 1.0
C      1  0.5534540000000  0.4967060000000  0.4568900000000 1.0
C      1  0.5340880000000  0.5336850000000  0.4831320000000 1.0
C      1  0.5752640000000  0.5018770000000  0.5727820000000 1.0
C      1  0.5712260000000  0.4292660000000  0.5263740000000 1.0
C      1  0.5721320000000  0.4546930000000  0.4438830000000 1.0
C      1  0.5744980000000  0.5420330000000  0.4360700000000 1.0
C      1  0.5669110000000  0.5646930000000  0.5150840000000 1.0
C      1  0.4293370000000  0.4481650000000  0.5067150000000 1.0
C      1  0.4306680000000  0.4789340000000  0.4520150000000 1.0
C      1  0.4261790000000  0.5387520000000  0.4614570000000 1.0
C      1  0.4189700000000  0.5481790000000  0.5278660000000 1.0
C      1  0.4254790000000  0.4893770000000  0.5530340000000 1.0
C      1  0.4883390000000  0.5912330000000  0.4173510000000 1.0
C      1  0.4916160000000  0.6056480000000  0.5530230000000 1.0
C      1  0.4888520000000  0.4746070000000  0.6197820000000 1.0
C      1  0.4905440000000  0.3798200000000  0.5197190000000 1.0
C      1  0.4933850000000  0.4461510000000  0.3898150000000 1.0
C      1  0.4306100000000  0.4907950000000  0.4250830000000 1.0
C      1  0.4261190000000  0.5678180000000  0.4648140000000 1.0
C      1  0.4290080000000  0.5496490000000  0.5557810000000 1.0
C      1  0.4262800000000  0.4629590000000  0.5659540000000 1.0
C      1  0.4301300000000  0.4276230000000  0.4859250000000 1.0
C      1  0.5530880000000  0.4351820000000  0.4539800000000 1.0
C      1  0.5596110000000  0.5245110000000  0.4172560000000 1.0
C      1  0.5507570000000  0.5785520000000  0.4949090000000 1.0
C      1  0.5630560000000  0.5279990000000  0.5811090000000 1.0
C      1  0.5541180000000  0.4326910000000  0.5505610000000 1.0
C      1  0.4779790000000  0.4960430000000  0.4223170000000 1.0
C      1  0.4718250000000  0.5697500000000  0.4646610000000 1.0
C      1  0.4769210000000  0.5473740000000  0.5584800000000 1.0
C      1  0.4731360000000  0.4647410000000  0.5704330000000 1.0
C      1  0.4772410000000  0.4255120000000  0.4846550000000 1.0
C      1  0.5295660000000  0.5938300000000  0.5093580000000 1.0
C      1  0.5420070000000  0.5211160000000  0.6015470000000 1.0
C      1  0.5303030000000  0.4147670000000  0.5486270000000 1.0
C      1  0.5322210000000  0.4304200000000  0.4336480000000 1.0
C      1  0.5386550000000  0.5414750000000  0.4035770000000 1.0
C      1  0.4400750000000  0.5331570000000  0.4351780000000 1.0
C      1  0.4303680000000  0.5735790000000  0.5172890000000 1.0
C      1  0.4392630000000  0.5092490000000  0.5713030000000 1.0
C      1  0.4419520000000  0.4380400000000  0.5323020000000 1.0
C      1  0.4435890000000  0.4518830000000  0.4497920000000 1.0
C      1  0.4185640000000  0.5188530000000  0.4821580000000 1.0
C      1  0.4177770000000  0.5223740000000  0.5120020000000 1.0
C      1  0.4189230000000  0.4950860000000  0.5244770000000 1.0
C      1  0.4205370000000  0.4755740000000  0.5027170000000 1.0
C      1  0.4190520000000  0.4897730000000  0.4768340000000 1.0
C      1  0.5618080000000  0.4985140000000  0.4852170000000 1.0
C      1  0.5281900000000  0.5168270000000  0.5072060000000 1.0
END
