TITL C-3577082-504-306 -1.37264067136928e-06 125000 -277.940160737003 0 0 44 (C1) n - 1
REM
REM in /home/bkarasulu/work/CARBON/AIRSS/Generating-Clusters/EDIP-Nigel-Params/with-SteepDescent/Higher-Symm/SD-CG/HFTN-CG
REM
REM
REM
REM
REM
REM ./C.cell (12c818d87b63d06a65506943cc24bca4)
REM
REM compiler GCC version 9.2.1 20190827 (Red Hat 9.2.1-1)
REM options -cpp -mtune=generic -march=x86-64 -g -O0 -fpre-include=/usr/include/finclude/math-vector-fortran.h
REM seed 759942896 -60402662 280342609 -305025547 927308672 -2129756215 -395276840 527465831 -1060852171 1554481218 -581644577 715573006 1064632437 -1085101751 945061025 -287213764 518575919 2023127652 996853441 -1152251104 712651084 -1493816052 1128300567 299755462 -924173613 951372670 -1831125953 470700013 -203810757 1624839731 826318291 128702352 -1387976793
REM
CELL 1.54180   50.00000   50.00000   50.00000   90.00000   90.00000   90.00000
LATT -1
SFAC C  
C      1  0.4919400000000  0.5436040000000  0.5589300000000 1.0
C      1  0.4680680000000  0.5436640000000  0.5736490000000 1.0
C      1  0.4569120000000  0.5191800000000  0.5711900000000 1.0
C      1  0.4616930000000  0.4958880000000  0.5568830000000 1.0
C      1  0.4761350000000  0.4752130000000  0.5684870000000 1.0
C      1  0.4954970000000  0.4594990000000  0.5561860000000 1.0
C      1  0.5204280000000  0.4542650000000  0.5678270000000 1.0
C      1  0.5432380000000  0.4681700000000  0.5586730000000 1.0
C      1  0.5451840000000  0.4942940000000  0.5690240000000 1.0
C      1  0.5317610000000  0.5154340000000  0.5569830000000 1.0
C      1  0.5156470000000  0.5338730000000  0.5700790000000 1.0
C      1  0.4916460000000  0.5455300000000  0.4718110000000 1.0
C      1  0.4670520000000  0.5511120000000  0.4858290000000 1.0
C      1  0.4491390000000  0.5168520000000  0.4841530000000 1.0
C      1  0.4607740000000  0.4945980000000  0.4705560000000 1.0
C      1  0.4770320000000  0.4760480000000  0.4850860000000 1.0
C      1  0.4950540000000  0.4581540000000  0.4715420000000 1.0
C      1  0.5181290000000  0.4475190000000  0.4853030000000 1.0
C      1  0.5465460000000  0.4677590000000  0.4707110000000 1.0
C      1  0.5431890000000  0.4925880000000  0.4857070000000 1.0
C      1  0.5307100000000  0.5148130000000  0.4721550000000 1.0
C      1  0.5127170000000  0.5321640000000  0.4860940000000 1.0
C      1  0.4613150000000  0.4941420000000  0.4418380000000 1.0
C      1  0.4768160000000  0.4742180000000  0.4302420000000 1.0
C      1  0.4964030000000  0.4590190000000  0.4428370000000 1.0
C      1  0.5217760000000  0.4545220000000  0.4318160000000 1.0
C      1  0.5440470000000  0.4689430000000  0.4414710000000 1.0
C      1  0.5455160000000  0.4952020000000  0.4314310000000 1.0
C      1  0.5322840000000  0.5162210000000  0.4438560000000 1.0
C      1  0.5159000000000  0.5348140000000  0.4314340000000 1.0
C      1  0.4925250000000  0.5451430000000  0.4427170000000 1.0
C      1  0.4684720000000  0.5415900000000  0.4289670000000 1.0
C      1  0.4557680000000  0.5177740000000  0.4282580000000 1.0
C      1  0.5306060000000  0.5146290000000  0.5285440000000 1.0
C      1  0.5123260000000  0.5317020000000  0.5145070000000 1.0
C      1  0.4910610000000  0.5449450000000  0.5295680000000 1.0
C      1  0.4642130000000  0.5474410000000  0.5152300000000 1.0
C      1  0.4507960000000  0.5199520000000  0.5131440000000 1.0
C      1  0.4638140000000  0.4976270000000  0.5281100000000 1.0
C      1  0.4760610000000  0.4757890000000  0.5135250000000 1.0
C      1  0.4949110000000  0.4589070000000  0.5274460000000 1.0
C      1  0.5177950000000  0.4474760000000  0.5139300000000 1.0
C      1  0.5460360000000  0.4673080000000  0.5294490000000 1.0
C      1  0.5430650000000  0.4924130000000  0.5148220000000 1.0
END
