TITL C-3577088-510-380 1.72895293669437e-06 125000 -773.966190999211 0 0 125 (C1) n - 1
REM
REM in /home/bkarasulu/work/CARBON/AIRSS/Generating-Clusters/EDIP-Nigel-Params/with-SteepDescent/Higher-Symm/SD-CG/HFTN-CG
REM
REM
REM
REM
REM
REM ./C.cell (12c818d87b63d06a65506943cc24bca4)
REM
REM compiler GCC version 9.2.1 20190827 (Red Hat 9.2.1-1)
REM options -cpp -mtune=generic -march=x86-64 -g -O0 -fpre-include=/usr/include/finclude/math-vector-fortran.h
REM seed -1032919201 206573006 63566118 103894106 1849734445 644037965 1319813475 414730094 706433813 1237552132 -935018521 -698742244 -851334318 -1469667110 -2065742177 1373551112 -857676497 -895859004 -2064688486 -1093928113 200141631 1183075059 78857745 284014152 1569553881 -1355588610 -1377957806 -1178877234 658261116 -1357455972 1199685505 1878021304 1880231421
REM
CELL 1.54180   50.00000   50.00000   50.00000   90.00000   90.00000   90.00000
LATT -1
SFAC C  
C      1  0.4774290000000  0.5034360000000  0.4285440000000 1.0
C      1  0.4627770000000  0.4825240000000  0.4123410000000 1.0
C      1  0.4974190000000  0.5442230000000  0.5357420000000 1.0
C      1  0.5484360000000  0.5663300000000  0.5287680000000 1.0
C      1  0.5810530000000  0.5244720000000  0.5517940000000 1.0
C      1  0.4338700000000  0.5205020000000  0.5373240000000 1.0
C      1  0.4983830000000  0.4226340000000  0.5738760000000 1.0
C      1  0.5764920000000  0.4616290000000  0.4917320000000 1.0
C      1  0.5159070000000  0.5884820000000  0.4685070000000 1.0
C      1  0.4597880000000  0.5039780000000  0.4537750000000 1.0
C      1  0.5078830000000  0.5031060000000  0.5726840000000 1.0
C      1  0.4368530000000  0.4631960000000  0.4566160000000 1.0
C      1  0.5154700000000  0.4328850000000  0.4517730000000 1.0
C      1  0.5682090000000  0.4909690000000  0.4955160000000 1.0
C      1  0.5644560000000  0.4831500000000  0.4394220000000 1.0
C      1  0.4291170000000  0.5433720000000  0.5202120000000 1.0
C      1  0.5586320000000  0.5821750000000  0.4777230000000 1.0
C      1  0.4938060000000  0.5408740000000  0.5892460000000 1.0
C      1  0.4408970000000  0.4518740000000  0.5495650000000 1.0
C      1  0.4536880000000  0.5738310000000  0.4283620000000 1.0
C      1  0.5110710000000  0.4750590000000  0.4197120000000 1.0
C      1  0.5763980000000  0.5238170000000  0.4578710000000 1.0
C      1  0.5394950000000  0.5567810000000  0.5712250000000 1.0
C      1  0.4026570000000  0.4608760000000  0.5053090000000 1.0
C      1  0.5285940000000  0.5462760000000  0.4955020000000 1.0
C      1  0.4679510000000  0.5847760000000  0.4740760000000 1.0
C      1  0.4918720000000  0.5403450000000  0.4693520000000 1.0
C      1  0.4789920000000  0.5195740000000  0.6010850000000 1.0
C      1  0.4118360000000  0.4988300000000  0.4637400000000 1.0
C      1  0.5273450000000  0.4606380000000  0.5837680000000 1.0
C      1  0.4786810000000  0.5315600000000  0.4131790000000 1.0
C      1  0.5562010000000  0.4491230000000  0.4733990000000 1.0
C      1  0.5120980000000  0.5516060000000  0.4458250000000 1.0
C      1  0.5589670000000  0.5440830000000  0.4464360000000 1.0
C      1  0.5597610000000  0.4999060000000  0.4644710000000 1.0
C      1  0.4579550000000  0.4790060000000  0.4713150000000 1.0
C      1  0.5553380000000  0.4195950000000  0.4790830000000 1.0
C      1  0.5082690000000  0.5062800000000  0.4059770000000 1.0
C      1  0.5439880000000  0.4289490000000  0.5503340000000 1.0
C      1  0.5089450000000  0.4610120000000  0.4647670000000 1.0
C      1  0.4468000000000  0.4657050000000  0.5212640000000 1.0
C      1  0.4950480000000  0.4746570000000  0.5070650000000 1.0
C      1  0.5120500000000  0.5015900000000  0.5060070000000 1.0
C      1  0.4762950000000  0.4692360000000  0.5294370000000 1.0
C      1  0.4742920000000  0.4165140000000  0.5365920000000 1.0
C      1  0.5413350000000  0.4951250000000  0.5164820000000 1.0
C      1  0.5572440000000  0.4551400000000  0.4431550000000 1.0
C      1  0.5112200000000  0.5742180000000  0.4946660000000 1.0
C      1  0.4644000000000  0.5269770000000  0.4721420000000 1.0
C      1  0.4827960000000  0.4619520000000  0.4810230000000 1.0
C      1  0.5491230000000  0.4813800000000  0.5765020000000 1.0
C      1  0.4190340000000  0.4960680000000  0.5372500000000 1.0
C      1  0.4536410000000  0.5552420000000  0.5612850000000 1.0
C      1  0.4653690000000  0.5182610000000  0.5010330000000 1.0
C      1  0.5659550000000  0.5496330000000  0.5578730000000 1.0
C      1  0.5532800000000  0.4956300000000  0.4165960000000 1.0
C      1  0.4737660000000  0.4327980000000  0.4887540000000 1.0
C      1  0.4897980000000  0.4217640000000  0.4426280000000 1.0
C      1  0.4409470000000  0.5036910000000  0.5808690000000 1.0
C      1  0.4059000000000  0.4884940000000  0.5117880000000 1.0
C      1  0.4516430000000  0.5248520000000  0.5605840000000 1.0
C      1  0.4326170000000  0.4809290000000  0.5597470000000 1.0
C      1  0.5340950000000  0.5008430000000  0.5590060000000 1.0
C      1  0.5267910000000  0.4142130000000  0.4756420000000 1.0
C      1  0.6002180000000  0.5217980000000  0.5289470000000 1.0
C      1  0.4827770000000  0.5805840000000  0.4271710000000 1.0
C      1  0.5652320000000  0.5704650000000  0.5024190000000 1.0
C      1  0.5241350000000  0.5401000000000  0.5896900000000 1.0
C      1  0.4891770000000  0.4234690000000  0.5121960000000 1.0
C      1  0.5726390000000  0.4968280000000  0.5392300000000 1.0
C      1  0.4740500000000  0.4113920000000  0.4650240000000 1.0
C      1  0.5118140000000  0.4853820000000  0.4483470000000 1.0
C      1  0.5364470000000  0.4685830000000  0.5288180000000 1.0
C      1  0.4834760000000  0.4620480000000  0.4144210000000 1.0
C      1  0.5141110000000  0.5218660000000  0.4835020000000 1.0
C      1  0.5182600000000  0.4171350000000  0.5056360000000 1.0
C      1  0.4289960000000  0.4528140000000  0.4991540000000 1.0
C      1  0.4508880000000  0.5610940000000  0.5306490000000 1.0
C      1  0.4657850000000  0.4367590000000  0.5575720000000 1.0
C      1  0.4305780000000  0.5050650000000  0.4427340000000 1.0
C      1  0.4446820000000  0.4395620000000  0.4400330000000 1.0
C      1  0.5714020000000  0.4726900000000  0.5577850000000 1.0
C      1  0.4331500000000  0.5491180000000  0.4641270000000 1.0
C      1  0.4360640000000  0.4746230000000  0.4250610000000 1.0
C      1  0.4967490000000  0.5723800000000  0.5502900000000 1.0
C      1  0.5262220000000  0.5428230000000  0.5245630000000 1.0
C      1  0.5405960000000  0.4108590000000  0.5260820000000 1.0
C      1  0.5890690000000  0.5312520000000  0.4832900000000 1.0
C      1  0.4704650000000  0.4851500000000  0.5546370000000 1.0
C      1  0.5643860000000  0.4166220000000  0.5077690000000 1.0
C      1  0.4737220000000  0.5467980000000  0.5148450000000 1.0
C      1  0.5311020000000  0.4618490000000  0.4833120000000 1.0
C      1  0.5042320000000  0.4786190000000  0.5899400000000 1.0
C      1  0.4635660000000  0.4956690000000  0.5973840000000 1.0
C      1  0.4474780000000  0.4929940000000  0.4969440000000 1.0
C      1  0.5766310000000  0.4433580000000  0.5157170000000 1.0
C      1  0.5670170000000  0.5431400000000  0.4965270000000 1.0
C      1  0.5338300000000  0.5913090000000  0.5365430000000 1.0
C      1  0.5941370000000  0.5087950000000  0.5025550000000 1.0
C      1  0.5345860000000  0.5166290000000  0.4139260000000 1.0
C      1  0.5591240000000  0.4525980000000  0.5389440000000 1.0
C      1  0.4841720000000  0.5162800000000  0.5536190000000 1.0
C      1  0.4894860000000  0.5930260000000  0.4546580000000 1.0
C      1  0.4294410000000  0.5343890000000  0.4377550000000 1.0
C      1  0.5241630000000  0.5806360000000  0.5627320000000 1.0
C      1  0.4253960000000  0.5351830000000  0.4917010000000 1.0
C      1  0.5097660000000  0.5908100000000  0.5201130000000 1.0
C      1  0.4368510000000  0.4268580000000  0.4888380000000 1.0
C      1  0.4495240000000  0.5455860000000  0.4184820000000 1.0
C      1  0.5318090000000  0.4478610000000  0.4288480000000 1.0
C      1  0.5192730000000  0.4555490000000  0.5094670000000 1.0
C      1  0.5335190000000  0.5307730000000  0.4402650000000 1.0
C      1  0.4800910000000  0.5619770000000  0.5729030000000 1.0
C      1  0.5211100000000  0.4380790000000  0.5665700000000 1.0
C      1  0.4840100000000  0.5630890000000  0.4895840000000 1.0
C      1  0.4732410000000  0.4424920000000  0.4330660000000 1.0
C      1  0.5294940000000  0.5082770000000  0.4602330000000 1.0
C      1  0.4891570000000  0.4034170000000  0.5563160000000 1.0
C      1  0.5404120000000  0.5770680000000  0.4558420000000 1.0
C      1  0.4447530000000  0.5760190000000  0.4574950000000 1.0
C      1  0.4440790000000  0.4168330000000  0.4610710000000 1.0
C      1  0.4199630000000  0.5050230000000  0.4904670000000 1.0
C      1  0.5389660000000  0.5146590000000  0.5934470000000 1.0
C      1  0.4971390000000  0.5552110000000  0.4212170000000 1.0
C      1  0.4769800000000  0.4720430000000  0.5821900000000 1.0
END
