TITL C-3577078-809-392 -4.63548407735839e-06 125000 -1107.07187943212 0 0 181 (C1) n - 1
REM
REM in /home/bkarasulu/work/CARBON/AIRSS/Generating-Clusters/EDIP-Nigel-Params/with-SteepDescent/Higher-Symm/SD-CG/HFTN-CG
REM
REM
REM
REM
REM
REM ./C.cell (12c818d87b63d06a65506943cc24bca4)
REM
REM compiler GCC version 9.2.1 20190827 (Red Hat 9.2.1-1)
REM options -cpp -mtune=generic -march=x86-64 -g -O0 -fpre-include=/usr/include/finclude/math-vector-fortran.h
REM seed -2112397235 -1044898738 -120718010 1099251521 2141592623 -1990401649 1971564245 4771740 37336610 -1970064675 295059026 696965902 155252783 1481043033 -137931639 -657211017 -1426396780 -895227371 -2121313210 1849190892 1677073941 -354316303 -35577044 865335530 1183253523 1752208412 1439339691 1327995206 -745678960 1518881514 -898214596 -603140745 151582347
REM
CELL 1.54180   50.00000   50.00000   50.00000   90.00000   90.00000   90.00000
LATT -1
SFAC C  
C      1  0.4176850000000  0.4675260000000  0.4481540000000 1.0
C      1  0.4636130000000  0.4529970000000  0.4307990000000 1.0
C      1  0.4418440000000  0.4298020000000  0.4707240000000 1.0
C      1  0.5823830000000  0.4558810000000  0.5643690000000 1.0
C      1  0.5795520000000  0.5370420000000  0.4453790000000 1.0
C      1  0.4433020000000  0.5226090000000  0.5431960000000 1.0
C      1  0.5306600000000  0.4456850000000  0.5713880000000 1.0
C      1  0.5371490000000  0.5569290000000  0.4229780000000 1.0
C      1  0.4676440000000  0.5542300000000  0.5757630000000 1.0
C      1  0.5640670000000  0.4159150000000  0.5455460000000 1.0
C      1  0.5594510000000  0.5779770000000  0.4603070000000 1.0
C      1  0.4580450000000  0.5721470000000  0.5325450000000 1.0
C      1  0.4342330000000  0.4624320000000  0.4232770000000 1.0
C      1  0.4147970000000  0.4402180000000  0.4623020000000 1.0
C      1  0.4555690000000  0.4249760000000  0.4437840000000 1.0
C      1  0.5564130000000  0.4615640000000  0.5773520000000 1.0
C      1  0.4568930000000  0.5279860000000  0.5691380000000 1.0
C      1  0.5526080000000  0.5317930000000  0.4317330000000 1.0
C      1  0.5763810000000  0.4420230000000  0.5386860000000 1.0
C      1  0.4471060000000  0.5437720000000  0.5216770000000 1.0
C      1  0.5859840000000  0.5644160000000  0.4561690000000 1.0
C      1  0.5366660000000  0.4199650000000  0.5574270000000 1.0
C      1  0.4523180000000  0.5759790000000  0.5622940000000 1.0
C      1  0.5470820000000  0.5835580000000  0.4333640000000 1.0
C      1  0.5576290000000  0.6006420000000  0.4835940000000 1.0
C      1  0.5966620000000  0.4812540000000  0.5615370000000 1.0
C      1  0.4797880000000  0.5565530000000  0.6019070000000 1.0
C      1  0.4413000000000  0.5906850000000  0.5148180000000 1.0
C      1  0.4405450000000  0.4122160000000  0.4940490000000 1.0
C      1  0.5617360000000  0.4006730000000  0.5212890000000 1.0
C      1  0.3950600000000  0.4837820000000  0.4406540000000 1.0
C      1  0.4148880000000  0.5261090000000  0.5539280000000 1.0
C      1  0.6014660000000  0.5181740000000  0.4421230000000 1.0
C      1  0.5177240000000  0.5552080000000  0.4009500000000 1.0
C      1  0.5201730000000  0.4357910000000  0.5970670000000 1.0
C      1  0.4790030000000  0.4444760000000  0.4066250000000 1.0
C      1  0.4679160000000  0.6009460000000  0.5678960000000 1.0
C      1  0.5577620000000  0.4835800000000  0.5941530000000 1.0
C      1  0.6003660000000  0.5634780000000  0.4812090000000 1.0
C      1  0.5255720000000  0.6018780000000  0.4377830000000 1.0
C      1  0.4783030000000  0.4070200000000  0.4441690000000 1.0
C      1  0.5192220000000  0.3973250000000  0.5632140000000 1.0
C      1  0.4333080000000  0.4847710000000  0.4053830000000 1.0
C      1  0.5594990000000  0.5174310000000  0.4074010000000 1.0
C      1  0.4423750000000  0.5141670000000  0.5906460000000 1.0
C      1  0.4184120000000  0.5607570000000  0.5161320000000 1.0
C      1  0.5959300000000  0.4408430000000  0.5191690000000 1.0
C      1  0.3974630000000  0.4397400000000  0.4855790000000 1.0
C      1  0.4542420000000  0.3932400000000  0.5115740000000 1.0
C      1  0.3889310000000  0.5101600000000  0.4519670000000 1.0
C      1  0.5034660000000  0.4557500000000  0.3957390000000 1.0
C      1  0.5417640000000  0.4027690000000  0.5018080000000 1.0
C      1  0.5549160000000  0.6091660000000  0.5122130000000 1.0
C      1  0.4595480000000  0.6018270000000  0.4946400000000 1.0
C      1  0.6005370000000  0.5040070000000  0.5452470000000 1.0
C      1  0.6106960000000  0.4907680000000  0.4436950000000 1.0
C      1  0.3996420000000  0.5010130000000  0.5445020000000 1.0
C      1  0.4997480000000  0.4532750000000  0.6026130000000 1.0
C      1  0.4914990000000  0.5595770000000  0.3891040000000 1.0
C      1  0.5073450000000  0.5568010000000  0.6093560000000 1.0
C      1  0.4998620000000  0.4028640000000  0.4613810000000 1.0
C      1  0.4505930000000  0.5061880000000  0.3990990000000 1.0
C      1  0.3934260000000  0.4569350000000  0.5074270000000 1.0
C      1  0.4915490000000  0.3884220000000  0.5649730000000 1.0
C      1  0.4901710000000  0.6022680000000  0.5496750000000 1.0
C      1  0.5043360000000  0.6027670000000  0.4558620000000 1.0
C      1  0.5442400000000  0.5066530000000  0.6021200000000 1.0
C      1  0.4570400000000  0.4912190000000  0.6012000000000 1.0
C      1  0.5416530000000  0.4977560000000  0.3994790000000 1.0
C      1  0.6020450000000  0.4557470000000  0.4966230000000 1.0
C      1  0.4029490000000  0.5476550000000  0.4938230000000 1.0
C      1  0.5992810000000  0.5464280000000  0.5030350000000 1.0
C      1  0.4798130000000  0.4496660000000  0.5630750000000 1.0
C      1  0.4565960000000  0.5671200000000  0.4608040000000 1.0
C      1  0.5661010000000  0.4775490000000  0.4569850000000 1.0
C      1  0.5212650000000  0.4616490000000  0.4389420000000 1.0
C      1  0.5170290000000  0.5406910000000  0.5642220000000 1.0
C      1  0.4786810000000  0.5437840000000  0.4301220000000 1.0
C      1  0.5375730000000  0.5689280000000  0.5324190000000 1.0
C      1  0.5417680000000  0.4405890000000  0.4786850000000 1.0
C      1  0.4574810000000  0.4362060000000  0.5189630000000 1.0
C      1  0.4331400000000  0.4721050000000  0.5457960000000 1.0
C      1  0.4360400000000  0.5252090000000  0.4537690000000 1.0
C      1  0.5613460000000  0.5300480000000  0.5431130000000 1.0
C      1  0.5624620000000  0.4615600000000  0.4812100000000 1.0
C      1  0.4844670000000  0.5648520000000  0.4508040000000 1.0
C      1  0.4520140000000  0.4632460000000  0.5669170000000 1.0
C      1  0.4323740000000  0.4493330000000  0.5272170000000 1.0
C      1  0.5589410000000  0.5502390000000  0.5213080000000 1.0
C      1  0.4413890000000  0.5462530000000  0.4738770000000 1.0
C      1  0.5111110000000  0.5569910000000  0.5390510000000 1.0
C      1  0.4735600000000  0.4274990000000  0.5438420000000 1.0
C      1  0.5173530000000  0.4426720000000  0.4613210000000 1.0
C      1  0.5425610000000  0.4828330000000  0.4401000000000 1.0
C      1  0.4599720000000  0.5196070000000  0.4364920000000 1.0
C      1  0.5400080000000  0.5201630000000  0.5613470000000 1.0
C      1  0.4901580000000  0.4535920000000  0.4738730000000 1.0
C      1  0.4592690000000  0.4841910000000  0.5057640000000 1.0
C      1  0.4773910000000  0.5019900000000  0.4573390000000 1.0
C      1  0.5099860000000  0.4505660000000  0.5201780000000 1.0
C      1  0.5024080000000  0.5466900000000  0.4703920000000 1.0
C      1  0.5030880000000  0.5351720000000  0.5208650000000 1.0
C      1  0.5448640000000  0.4828170000000  0.4959300000000 1.0
C      1  0.5448740000000  0.5359200000000  0.4949450000000 1.0
C      1  0.4598360000000  0.5334690000000  0.4951750000000 1.0
C      1  0.5311860000000  0.4976850000000  0.5424000000000 1.0
C      1  0.5338710000000  0.5110010000000  0.4518290000000 1.0
C      1  0.4815820000000  0.4907110000000  0.5491150000000 1.0
C      1  0.4746330000000  0.4577510000000  0.5041510000000 1.0
C      1  0.4797720000000  0.4711840000000  0.4507990000000 1.0
C      1  0.4641760000000  0.5049910000000  0.4858050000000 1.0
C      1  0.5159910000000  0.4711950000000  0.4974690000000 1.0
C      1  0.4876730000000  0.5443360000000  0.4968140000000 1.0
C      1  0.5318600000000  0.5566290000000  0.4775970000000 1.0
C      1  0.5079700000000  0.4616200000000  0.5509840000000 1.0
C      1  0.5038740000000  0.5053550000000  0.5307040000000 1.0
C      1  0.5040620000000  0.5189330000000  0.4568520000000 1.0
C      1  0.5541330000000  0.4885050000000  0.5235700000000 1.0
C      1  0.4530110000000  0.4932940000000  0.5342620000000 1.0
C      1  0.5450700000000  0.5092870000000  0.4801650000000 1.0
C      1  0.4874400000000  0.5809760000000  0.5298330000000 1.0
C      1  0.5828340000000  0.5234820000000  0.4972740000000 1.0
C      1  0.5165720000000  0.5012960000000  0.6069870000000 1.0
C      1  0.5078180000000  0.5980260000000  0.4839810000000 1.0
C      1  0.5015800000000  0.3971510000000  0.5287720000000 1.0
C      1  0.4936420000000  0.4119020000000  0.4880100000000 1.0
C      1  0.4069490000000  0.5197180000000  0.4987730000000 1.0
C      1  0.3834630000000  0.4823970000000  0.4988070000000 1.0
C      1  0.6021920000000  0.4839970000000  0.5004860000000 1.0
C      1  0.4771930000000  0.4993350000000  0.3913230000000 1.0
C      1  0.4810840000000  0.4934600000000  0.5818650000000 1.0
C      1  0.5161020000000  0.5034110000000  0.4115940000000 1.0
C      1  0.5315180000000  0.5846460000000  0.4923810000000 1.0
C      1  0.4967920000000  0.5223000000000  0.5967080000000 1.0
C      1  0.5840010000000  0.4992240000000  0.5203380000000 1.0
C      1  0.4862400000000  0.5930250000000  0.5018850000000 1.0
C      1  0.5164400000000  0.4183950000000  0.5100020000000 1.0
C      1  0.4821630000000  0.3908060000000  0.5056980000000 1.0
C      1  0.4978080000000  0.5222660000000  0.3966920000000 1.0
C      1  0.4929320000000  0.4809120000000  0.4107020000000 1.0
C      1  0.5051780000000  0.4789970000000  0.5917420000000 1.0
C      1  0.4018440000000  0.4969750000000  0.4768740000000 1.0
C      1  0.5962850000000  0.5023370000000  0.4772050000000 1.0
C      1  0.3890300000000  0.5055700000000  0.5180620000000 1.0
C      1  0.4728980000000  0.4440170000000  0.6005410000000 1.0
C      1  0.4545810000000  0.5962210000000  0.4650770000000 1.0
C      1  0.5920870000000  0.4688110000000  0.4482510000000 1.0
C      1  0.5277470000000  0.4516900000000  0.4119530000000 1.0
C      1  0.5276550000000  0.5528240000000  0.5890630000000 1.0
C      1  0.4683340000000  0.5541220000000  0.4054890000000 1.0
C      1  0.5387420000000  0.5978830000000  0.5336940000000 1.0
C      1  0.5481840000000  0.4126890000000  0.4749210000000 1.0
C      1  0.4490990000000  0.3876290000000  0.5390180000000 1.0
C      1  0.3961570000000  0.4746150000000  0.5551990000000 1.0
C      1  0.4082440000000  0.5324370000000  0.4461800000000 1.0
C      1  0.5895750000000  0.5316100000000  0.5503630000000 1.0
C      1  0.5973500000000  0.4485770000000  0.4691880000000 1.0
C      1  0.4776590000000  0.6033090000000  0.4471360000000 1.0
C      1  0.4500560000000  0.4631690000000  0.5958640000000 1.0
C      1  0.3954370000000  0.4525820000000  0.5364520000000 1.0
C      1  0.5963690000000  0.5536070000000  0.5304130000000 1.0
C      1  0.4050650000000  0.5547360000000  0.4657830000000 1.0
C      1  0.5173970000000  0.6101650000000  0.5482660000000 1.0
C      1  0.4672200000000  0.4017240000000  0.5557930000000 1.0
C      1  0.5275270000000  0.4065960000000  0.4540000000000 1.0
C      1  0.5492390000000  0.4704790000000  0.4044470000000 1.0
C      1  0.4476520000000  0.5348070000000  0.3998830000000 1.0
C      1  0.5497120000000  0.5345180000000  0.5959090000000 1.0
C      1  0.4061930000000  0.5553230000000  0.5428690000000 1.0
C      1  0.5825650000000  0.4039020000000  0.5656960000000 1.0
C      1  0.4168980000000  0.5411430000000  0.5826850000000 1.0
C      1  0.5914700000000  0.5804640000000  0.4087400000000 1.0
C      1  0.5972270000000  0.4355540000000  0.5804310000000 1.0
C      1  0.5855320000000  0.4131080000000  0.5916150000000 1.0
C      1  0.5991450000000  0.5809510000000  0.4353300000000 1.0
C      1  0.5692490000000  0.5947400000000  0.4170010000000 1.0
C      1  0.4212630000000  0.5680320000000  0.5672410000000 1.0
C      1  0.4072110000000  0.4206650000000  0.4409520000000 1.0
C      1  0.4324390000000  0.4152160000000  0.4262520000000 1.0
C      1  0.4228600000000  0.4380850000000  0.4105150000000 1.0
C      1  0.5018420000000  0.4935590000000  0.5053160000000 1.0
END
