TITL C-3578201-9217-731 -4.42157841045655e-06 125000 -717.723521632051 0 0 118 (C1) n - 1
REM
REM in /home/bkarasulu/work/CARBON/AIRSS/Generating-Clusters/EDIP-Nigel-Params/with-SteepDescent/Higher-Symm/SD-CG/HFTN-CG
REM
REM
REM
REM
REM
REM ./C.cell (12c818d87b63d06a65506943cc24bca4)
REM
REM compiler GCC version 9.2.1 20190827 (Red Hat 9.2.1-1)
REM options -cpp -mtune=generic -march=x86-64 -g -O0 -fpre-include=/usr/include/finclude/math-vector-fortran.h
REM seed -614945193 -1548937849 -449444997 -1824670140 -1100790928 1969331664 1784705039 -1992128138 1400243625 1646482448 153325696 95674059 14822745 1366357190 1635897879 578721634 1828905430 981088794 -470362774 974590543 237744622 166801917 2013728170 -482486887 -277503863 -1358146693 -172087612 1468849571 -1837911910 1730128385 2027045305 159238607 -891350316
REM
CELL 1.54180   50.00000   50.00000   50.00000   90.00000   90.00000   90.00000
LATT -1
SFAC C  
C      1  0.4790370000000  0.5491630000000  0.4602990000000 1.0
C      1  0.5417050000000  0.5356930000000  0.4631430000000 1.0
C      1  0.5357730000000  0.4788360000000  0.4636560000000 1.0
C      1  0.4890350000000  0.4495840000000  0.4636650000000 1.0
C      1  0.4605570000000  0.4829920000000  0.4653740000000 1.0
C      1  0.5482790000000  0.4401800000000  0.4907720000000 1.0
C      1  0.4458400000000  0.4221430000000  0.4951580000000 1.0
C      1  0.4328140000000  0.5162090000000  0.4910370000000 1.0
C      1  0.4928280000000  0.5906530000000  0.4952050000000 1.0
C      1  0.5856530000000  0.5380310000000  0.4873140000000 1.0
C      1  0.4876070000000  0.4833230000000  0.5929020000000 1.0
C      1  0.4800470000000  0.5105680000000  0.5982000000000 1.0
C      1  0.5025690000000  0.5276860000000  0.5973730000000 1.0
C      1  0.5239340000000  0.5087570000000  0.5912650000000 1.0
C      1  0.5151880000000  0.4830500000000  0.6007930000000 1.0
C      1  0.5238420000000  0.5070800000000  0.5604660000000 1.0
C      1  0.5129050000000  0.4799920000000  0.5563810000000 1.0
C      1  0.4844890000000  0.4786890000000  0.5624130000000 1.0
C      1  0.4748970000000  0.5070800000000  0.5575580000000 1.0
C      1  0.4988270000000  0.5254180000000  0.5586700000000 1.0
C      1  0.4881980000000  0.5215020000000  0.3973680000000 1.0
C      1  0.5174110000000  0.5200540000000  0.4000050000000 1.0
C      1  0.5249480000000  0.4916980000000  0.4002730000000 1.0
C      1  0.5009800000000  0.4748920000000  0.3983980000000 1.0
C      1  0.4782610000000  0.4935900000000  0.3981500000000 1.0
C      1  0.4693930000000  0.4201860000000  0.5478660000000 1.0
C      1  0.4199360000000  0.5028980000000  0.5441540000000 1.0
C      1  0.4801420000000  0.5762520000000  0.5448810000000 1.0
C      1  0.5784510000000  0.5487630000000  0.5437120000000 1.0
C      1  0.5603230000000  0.4531980000000  0.5451360000000 1.0
C      1  0.5601840000000  0.5644010000000  0.5649460000000 1.0
C      1  0.5660070000000  0.4751970000000  0.5633180000000 1.0
C      1  0.4953490000000  0.4191820000000  0.5590670000000 1.0
C      1  0.4248500000000  0.4817210000000  0.5630910000000 1.0
C      1  0.4641080000000  0.5613650000000  0.5639670000000 1.0
C      1  0.5670570000000  0.5791130000000  0.4990050000000 1.0
C      1  0.5826730000000  0.4673810000000  0.4996640000000 1.0
C      1  0.4892500000000  0.4134350000000  0.5002770000000 1.0
C      1  0.4064930000000  0.4799650000000  0.4989330000000 1.0
C      1  0.4492470000000  0.5839730000000  0.5017490000000 1.0
C      1  0.5785670000000  0.5072260000000  0.5283260000000 1.0
C      1  0.5271070000000  0.4289560000000  0.5279880000000 1.0
C      1  0.4364050000000  0.4525990000000  0.5258940000000 1.0
C      1  0.4382400000000  0.5468290000000  0.5278540000000 1.0
C      1  0.5405640000000  0.5645900000000  0.5309810000000 1.0
C      1  0.5298340000000  0.5784500000000  0.4664150000000 1.0
C      1  0.5869590000000  0.4955250000000  0.4610940000000 1.0
C      1  0.5192370000000  0.4152780000000  0.4611510000000 1.0
C      1  0.4217060000000  0.4515100000000  0.4634010000000 1.0
C      1  0.4352840000000  0.5501660000000  0.4573970000000 1.0
C      1  0.5669650000000  0.5122360000000  0.4460730000000 1.0
C      1  0.5305380000000  0.4386820000000  0.4458250000000 1.0
C      1  0.4501410000000  0.4471360000000  0.4549680000000 1.0
C      1  0.4404010000000  0.5242220000000  0.4443320000000 1.0
C      1  0.5073970000000  0.5641120000000  0.4490450000000 1.0
C      1  0.5399740000000  0.4462410000000  0.5654100000000 1.0
C      1  0.4518970000000  0.4373780000000  0.5623460000000 1.0
C      1  0.4335910000000  0.5200420000000  0.5629560000000 1.0
C      1  0.5022220000000  0.5693900000000  0.5626410000000 1.0
C      1  0.5745810000000  0.5283060000000  0.5661520000000 1.0
C      1  0.4616970000000  0.4887780000000  0.4199410000000 1.0
C      1  0.4726880000000  0.5410590000000  0.4107320000000 1.0
C      1  0.5322240000000  0.5399850000000  0.4135050000000 1.0
C      1  0.5454300000000  0.4831420000000  0.4170350000000 1.0
C      1  0.4977040000000  0.4501620000000  0.4120890000000 1.0
C      1  0.5767710000000  0.5012030000000  0.5557930000000 1.0
C      1  0.5229430000000  0.4236890000000  0.5563190000000 1.0
C      1  0.4308040000000  0.4547400000000  0.5544780000000 1.0
C      1  0.4403550000000  0.5471230000000  0.5559630000000 1.0
C      1  0.5305090000000  0.5731270000000  0.5578890000000 1.0
C      1  0.4741900000000  0.4618260000000  0.5357400000000 1.0
C      1  0.4611140000000  0.5098090000000  0.5299300000000 1.0
C      1  0.4997020000000  0.5391120000000  0.5307930000000 1.0
C      1  0.5406340000000  0.5125520000000  0.5327540000000 1.0
C      1  0.5209790000000  0.4674880000000  0.5314350000000 1.0
C      1  0.5064850000000  0.4570150000000  0.4387070000000 1.0
C      1  0.4810280000000  0.4870500000000  0.4419610000000 1.0
C      1  0.4698360000000  0.5292530000000  0.4369660000000 1.0
C      1  0.5211230000000  0.5382910000000  0.4404360000000 1.0
C      1  0.5393590000000  0.4977590000000  0.4415060000000 1.0
C      1  0.4112010000000  0.4531910000000  0.5104360000000 1.0
C      1  0.4277840000000  0.5689010000000  0.5131330000000 1.0
C      1  0.5414780000000  0.5871580000000  0.5119530000000 1.0
C      1  0.5931950000000  0.4933060000000  0.5085050000000 1.0
C      1  0.5165400000000  0.4090780000000  0.5093160000000 1.0
C      1  0.5963320000000  0.5104390000000  0.4850210000000 1.0
C      1  0.5343790000000  0.4144450000000  0.4867510000000 1.0
C      1  0.4192060000000  0.4354000000000  0.4888080000000 1.0
C      1  0.4387600000000  0.5442720000000  0.4859680000000 1.0
C      1  0.5201840000000  0.5831860000000  0.4928650000000 1.0
C      1  0.4815280000000  0.5869190000000  0.4682300000000 1.0
C      1  0.5715660000000  0.5471490000000  0.4623400000000 1.0
C      1  0.5518990000000  0.4539410000000  0.4641970000000 1.0
C      1  0.4575320000000  0.4206500000000  0.4677500000000 1.0
C      1  0.4354840000000  0.5011580000000  0.4653220000000 1.0
C      1  0.4738010000000  0.4825090000000  0.4912010000000 1.0
C      1  0.4807470000000  0.5309310000000  0.4845100000000 1.0
C      1  0.5283560000000  0.5323570000000  0.4901840000000 1.0
C      1  0.5186450000000  0.4854730000000  0.4865400000000 1.0
C      1  0.4962110000000  0.4654730000000  0.4896220000000 1.0
C      1  0.4525040000000  0.5808250000000  0.4720700000000 1.0
C      1  0.5602870000000  0.5749590000000  0.4694800000000 1.0
C      1  0.5804560000000  0.4670850000000  0.4698260000000 1.0
C      1  0.4886940000000  0.4184830000000  0.4705310000000 1.0
C      1  0.4130380000000  0.4797960000000  0.4691880000000 1.0
C      1  0.5612400000000  0.4534310000000  0.5146140000000 1.0
C      1  0.4667830000000  0.4217680000000  0.5178620000000 1.0
C      1  0.4206660000000  0.5014520000000  0.5136690000000 1.0
C      1  0.4749360000000  0.5802580000000  0.5156130000000 1.0
C      1  0.5783900000000  0.5538480000000  0.5117230000000 1.0
C      1  0.5334180000000  0.4876590000000  0.5139720000000 1.0
C      1  0.4979540000000  0.4526950000000  0.5177980000000 1.0
C      1  0.4600940000000  0.4820550000000  0.5167290000000 1.0
C      1  0.4725700000000  0.5361410000000  0.5132830000000 1.0
C      1  0.5285770000000  0.5380460000000  0.5200360000000 1.0
C      1  0.4979410000000  0.5025410000000  0.5218970000000 1.0
C      1  0.5032400000000  0.5110460000000  0.4444010000000 1.0
C      1  0.5057140000000  0.5144190000000  0.4878290000000 1.0
END
