TITL C-3578196-9646-624 3.6625094499822e-06 125000 -282.470615005259 0 0 47 (C1) n - 1
REM
REM in /home/bkarasulu/work/CARBON/AIRSS/Generating-Clusters/EDIP-Nigel-Params/with-SteepDescent/Higher-Symm/SD-CG/HFTN-CG
REM
REM
REM
REM
REM
REM ./C.cell (12c818d87b63d06a65506943cc24bca4)
REM
REM compiler GCC version 9.2.1 20190827 (Red Hat 9.2.1-1)
REM options -cpp -mtune=generic -march=x86-64 -g -O0 -fpre-include=/usr/include/finclude/math-vector-fortran.h
REM seed -388314373 -1430623933 -171844751 841849778 -509166713 -335819952 -1158931950 1070038407 -587311788 -1673022896 -931524677 162655358 -2093385948 1114682426 416657978 -213601212 -552758044 -614879096 -1793841982 756772422 -903212690 886753489 -659182579 -749664879 625017379 1949295419 2123881261 1109724172 361614825 -268334130 1309685568 -129371070 1176298915
REM
CELL 1.54180   50.00000   50.00000   50.00000   90.00000   90.00000   90.00000
LATT -1
SFAC C  
C      1  0.4739620000000  0.5537120000000  0.5148840000000 1.0
C      1  0.5230940000000  0.5522140000000  0.5082940000000 1.0
C      1  0.5536440000000  0.5137650000000  0.5049520000000 1.0
C      1  0.5448250000000  0.4650230000000  0.5071840000000 1.0
C      1  0.5013620000000  0.4434670000000  0.5078980000000 1.0
C      1  0.4574630000000  0.4652110000000  0.5073000000000 1.0
C      1  0.4452640000000  0.5152140000000  0.5099150000000 1.0
C      1  0.5317060000000  0.4960770000000  0.4342230000000 1.0
C      1  0.4909440000000  0.4654830000000  0.4462540000000 1.0
C      1  0.4624070000000  0.4772990000000  0.4557760000000 1.0
C      1  0.4604680000000  0.5079690000000  0.4560510000000 1.0
C      1  0.4922140000000  0.5272430000000  0.4446550000000 1.0
C      1  0.5185040000000  0.5394640000000  0.4550330000000 1.0
C      1  0.5390560000000  0.5166440000000  0.4535370000000 1.0
C      1  0.5258020000000  0.4489160000000  0.5245580000000 1.0
C      1  0.4765610000000  0.4486610000000  0.5241990000000 1.0
C      1  0.4498390000000  0.4888510000000  0.5236430000000 1.0
C      1  0.4546600000000  0.5362000000000  0.5301960000000 1.0
C      1  0.5008760000000  0.5549620000000  0.5277780000000 1.0
C      1  0.5434390000000  0.5356910000000  0.5214550000000 1.0
C      1  0.5547690000000  0.4893620000000  0.5217700000000 1.0
C      1  0.5180200000000  0.4673430000000  0.5481410000000 1.0
C      1  0.4847590000000  0.4664070000000  0.5486940000000 1.0
C      1  0.4737400000000  0.4934050000000  0.5412910000000 1.0
C      1  0.4715550000000  0.5219210000000  0.5557640000000 1.0
C      1  0.5015880000000  0.5301090000000  0.5443980000000 1.0
C      1  0.5300610000000  0.5219080000000  0.5542420000000 1.0
C      1  0.5349680000000  0.4929310000000  0.5434010000000 1.0
C      1  0.5022590000000  0.4620960000000  0.4833410000000 1.0
C      1  0.4734610000000  0.4770870000000  0.4852020000000 1.0
C      1  0.4605850000000  0.5193690000000  0.4841470000000 1.0
C      1  0.4787250000000  0.5421380000000  0.4881530000000 1.0
C      1  0.5086590000000  0.5398690000000  0.4845660000000 1.0
C      1  0.5356420000000  0.5051760000000  0.4822200000000 1.0
C      1  0.5301470000000  0.4752770000000  0.4837320000000 1.0
C      1  0.5010160000000  0.5275360000000  0.5923440000000 1.0
C      1  0.5252890000000  0.5167290000000  0.5837740000000 1.0
C      1  0.5271530000000  0.4894670000000  0.5901240000000 1.0
C      1  0.5166980000000  0.4655180000000  0.5796540000000 1.0
C      1  0.4863470000000  0.4653940000000  0.5799450000000 1.0
C      1  0.4756490000000  0.4888890000000  0.5909770000000 1.0
C      1  0.4765390000000  0.5162230000000  0.5852250000000 1.0
C      1  0.5128830000000  0.4755160000000  0.4269240000000 1.0
C      1  0.4984660000000  0.5013310000000  0.4592060000000 1.0
C      1  0.5001900000000  0.5026050000000  0.5278400000000 1.0
C      1  0.5197150000000  0.4591650000000  0.4072660000000 1.0
C      1  0.4994440000000  0.5038790000000  0.4972210000000 1.0
END
