TITL C-3577076-40-237 -2.90825192121564e-06 125000 -736.802389919857 0 0 115 (C1) n - 1
REM
REM in /home/bkarasulu/work/CARBON/AIRSS/Generating-Clusters/EDIP-Nigel-Params/with-SteepDescent/Higher-Symm/SD-CG/HFTN-CG
REM
REM
REM
REM
REM
REM ./C.cell (12c818d87b63d06a65506943cc24bca4)
REM
REM compiler GCC version 9.2.1 20190827 (Red Hat 9.2.1-1)
REM options -cpp -mtune=generic -march=x86-64 -g -O0 -fpre-include=/usr/include/finclude/math-vector-fortran.h
REM seed -1047199931 1018593563 1851428022 1761404994 171394541 -1948928098 -612566265 12697210 925682535 585344434 -1257179520 -1606186425 749017816 -200731597 -1050942898 1635751150 204234362 -160167427 -1838219169 -1216414693 1929384319 686678550 -1249524504 -523909651 1956557577 99640678 2121463057 -1807971794 1754704703 -1358305546 1728006503 1811789062 -1685427502
REM
CELL 1.54180   50.00000   50.00000   50.00000   90.00000   90.00000   90.00000
LATT -1
SFAC C  
C      1  0.5359080000000  0.4387100000000  0.4657290000000 1.0
C      1  0.5355190000000  0.5018990000000  0.5708040000000 1.0
C      1  0.5367140000000  0.5624340000000  0.4639940000000 1.0
C      1  0.4472740000000  0.5169390000000  0.4261730000000 1.0
C      1  0.4465920000000  0.4243710000000  0.5252840000000 1.0
C      1  0.4476590000000  0.5573580000000  0.5514750000000 1.0
C      1  0.4755880000000  0.5668150000000  0.5512250000000 1.0
C      1  0.4746150000000  0.5111200000000  0.4172770000000 1.0
C      1  0.4746070000000  0.4203740000000  0.5345170000000 1.0
C      1  0.4555550000000  0.4687940000000  0.4247650000000 1.0
C      1  0.4557880000000  0.4492210000000  0.5671140000000 1.0
C      1  0.4565590000000  0.5836590000000  0.5111270000000 1.0
C      1  0.5282580000000  0.5650840000000  0.5314180000000 1.0
C      1  0.5274690000000  0.4953650000000  0.4293500000000 1.0
C      1  0.5276920000000  0.4411940000000  0.5404200000000 1.0
C      1  0.4092150000000  0.4624350000000  0.4687980000000 1.0
C      1  0.4085690000000  0.4892570000000  0.5498130000000 1.0
C      1  0.4087090000000  0.5510220000000  0.4827700000000 1.0
C      1  0.4958200000000  0.4087750000000  0.5178150000000 1.0
C      1  0.4967660000000  0.5599830000000  0.5703940000000 1.0
C      1  0.4956090000000  0.5311240000000  0.4140690000000 1.0
C      1  0.4743780000000  0.5103340000000  0.5409270000000 1.0
C      1  0.4763570000000  0.5363530000000  0.4652730000000 1.0
C      1  0.4770390000000  0.4508730000000  0.4874030000000 1.0
C      1  0.5662680000000  0.4781540000000  0.4586090000000 1.0
C      1  0.5660510000000  0.4757820000000  0.5404430000000 1.0
C      1  0.5665790000000  0.5479320000000  0.5017180000000 1.0
C      1  0.4352590000000  0.5664960000000  0.5257570000000 1.0
C      1  0.4345650000000  0.4904890000000  0.4323820000000 1.0
C      1  0.4343600000000  0.4435810000000  0.5452020000000 1.0
C      1  0.5251910000000  0.5069180000000  0.5412570000000 1.0
C      1  0.5262930000000  0.5342270000000  0.4739610000000 1.0
C      1  0.5263300000000  0.4616450000000  0.4846940000000 1.0
C      1  0.4477130000000  0.4867160000000  0.4689970000000 1.0
C      1  0.4464350000000  0.4757070000000  0.5264050000000 1.0
C      1  0.4468270000000  0.5368330000000  0.5033170000000 1.0
C      1  0.5774250000000  0.5194800000000  0.5513940000000 1.0
C      1  0.5773820000000  0.5349710000000  0.4582820000000 1.0
C      1  0.5771540000000  0.4468590000000  0.4913690000000 1.0
C      1  0.4511540000000  0.4948370000000  0.5499590000000 1.0
C      1  0.4513820000000  0.5503710000000  0.4763070000000 1.0
C      1  0.4518060000000  0.4558830000000  0.4709150000000 1.0
C      1  0.5226680000000  0.4129080000000  0.5296590000000 1.0
C      1  0.5232020000000  0.5691360000000  0.5612650000000 1.0
C      1  0.5222930000000  0.5188460000000  0.4105060000000 1.0
C      1  0.4573320000000  0.4779030000000  0.5748780000000 1.0
C      1  0.4575270000000  0.5794000000000  0.4816310000000 1.0
C      1  0.4567040000000  0.4454890000000  0.4431470000000 1.0
C      1  0.4816850000000  0.5833680000000  0.5272590000000 1.0
C      1  0.4807880000000  0.4821860000000  0.4161400000000 1.0
C      1  0.4812210000000  0.4350910000000  0.5598120000000 1.0
C      1  0.5283430000000  0.5590670000000  0.4359630000000 1.0
C      1  0.5279780000000  0.4154610000000  0.4820160000000 1.0
C      1  0.5295750000000  0.5274730000000  0.5849460000000 1.0
C      1  0.5657120000000  0.5588940000000  0.4724140000000 1.0
C      1  0.5650300000000  0.4473130000000  0.4637760000000 1.0
C      1  0.5646150000000  0.4954560000000  0.5645260000000 1.0
C      1  0.5417340000000  0.4867700000000  0.5244440000000 1.0
C      1  0.5418010000000  0.5291250000000  0.5000520000000 1.0
C      1  0.5418110000000  0.4866670000000  0.4758730000000 1.0
C      1  0.5010020000000  0.5332530000000  0.5819920000000 1.0
C      1  0.4993240000000  0.5510010000000  0.4359760000000 1.0
C      1  0.4988130000000  0.4183260000000  0.4894460000000 1.0
C      1  0.5067090000000  0.5754990000000  0.4833440000000 1.0
C      1  0.5058250000000  0.4493680000000  0.4453470000000 1.0
C      1  0.5056300000000  0.4787960000000  0.5710620000000 1.0
C      1  0.5588200000000  0.4919790000000  0.4323670000000 1.0
C      1  0.5589430000000  0.4460220000000  0.5416810000000 1.0
C      1  0.5594480000000  0.5636200000000  0.5269860000000 1.0
C      1  0.5632300000000  0.4333880000000  0.5140360000000 1.0
C      1  0.5639030000000  0.5460240000000  0.5517070000000 1.0
C      1  0.5633510000000  0.5221350000000  0.4352620000000 1.0
C      1  0.5913350000000  0.4823730000000  0.5242940000000 1.0
C      1  0.5915120000000  0.5301370000000  0.5040180000000 1.0
C      1  0.5914650000000  0.4887640000000  0.4726440000000 1.0
C      1  0.4373910000000  0.5430840000000  0.4354890000000 1.0
C      1  0.4379580000000  0.4232740000000  0.4968490000000 1.0
C      1  0.4381340000000  0.5336940000000  0.5662060000000 1.0
C      1  0.5086930000000  0.5824060000000  0.5136930000000 1.0
C      1  0.5078570000000  0.4714370000000  0.4238150000000 1.0
C      1  0.5080640000000  0.4486830000000  0.5637940000000 1.0
C      1  0.4725730000000  0.5067970000000  0.4753410000000 1.0
C      1  0.4728250000000  0.4656450000000  0.5126930000000 1.0
C      1  0.4725270000000  0.5200080000000  0.5127450000000 1.0
C      1  0.5936960000000  0.5119030000000  0.5277110000000 1.0
C      1  0.5936970000000  0.5183250000000  0.4766610000000 1.0
C      1  0.5935180000000  0.4710600000000  0.4966270000000 1.0
C      1  0.4823170000000  0.4865020000000  0.5888930000000 1.0
C      1  0.4827530000000  0.5863120000000  0.4674760000000 1.0
C      1  0.4820210000000  0.4298170000000  0.4436330000000 1.0
C      1  0.4986830000000  0.4933390000000  0.5441460000000 1.0
C      1  0.5000040000000  0.5453170000000  0.4827510000000 1.0
C      1  0.4996320000000  0.4643520000000  0.4718070000000 1.0
C      1  0.4177770000000  0.5455560000000  0.5089200000000 1.0
C      1  0.4185420000000  0.4875260000000  0.4597710000000 1.0
C      1  0.4174060000000  0.4676990000000  0.5337130000000 1.0
C      1  0.4799310000000  0.5730690000000  0.4403590000000 1.0
C      1  0.4793980000000  0.4115470000000  0.4677540000000 1.0
C      1  0.4797060000000  0.5161680000000  0.5929600000000 1.0
C      1  0.4185230000000  0.5152190000000  0.5546530000000 1.0
C      1  0.4180000000000  0.5443890000000  0.4571610000000 1.0
C      1  0.4186880000000  0.4424620000000  0.4861860000000 1.0
C      1  0.4965900000000  0.4927870000000  0.4674070000000 1.0
C      1  0.4975950000000  0.4748380000000  0.5225090000000 1.0
C      1  0.4964240000000  0.5358850000000  0.5094080000000 1.0
C      1  0.5222580000000  0.5345800000000  0.5234300000000 1.0
C      1  0.5223150000000  0.5044730000000  0.4596930000000 1.0
C      1  0.5232840000000  0.4631450000000  0.5169280000000 1.0
C      1  0.5427080000000  0.4127140000000  0.5076840000000 1.0
C      1  0.5436830000000  0.5510770000000  0.5729770000000 1.0
C      1  0.5427150000000  0.5379570000000  0.4207220000000 1.0
C      1  0.4539780000000  0.5655050000000  0.4328020000000 1.0
C      1  0.4534900000000  0.4092880000000  0.4782330000000 1.0
C      1  0.4536590000000  0.5254520000000  0.5879730000000 1.0
C      1  0.5493000000000  0.5008950000000  0.5001440000000 1.0
END
