TITL C-3578204-4308-333 -1.64942380729408e-06 125000 -484.98321214309 0 0 82 (C1) n - 1
REM
REM in /home/bkarasulu/work/CARBON/AIRSS/Generating-Clusters/EDIP-Nigel-Params/with-SteepDescent/Higher-Symm/SD-CG/HFTN-CG
REM
REM
REM
REM
REM
REM ./C.cell (12c818d87b63d06a65506943cc24bca4)
REM
REM compiler GCC version 9.2.1 20190827 (Red Hat 9.2.1-1)
REM options -cpp -mtune=generic -march=x86-64 -g -O0 -fpre-include=/usr/include/finclude/math-vector-fortran.h
REM seed -1699137850 -1114334416 1568428359 -553538819 -1451238321 382304966 -1448238334 -1287642731 451669094 -951577282 -978045163 649719609 1267940904 2053402522 691051392 -1647668218 -1442756715 -786825593 -1981733500 -112654865 221107653 314873836 1460646616 -1540630448 -1033821303 1841353630 495568372 -224533445 -1532836712 -1257502768 1897586070 -1262214036 -1238689556
REM
CELL 1.54180   50.00000   50.00000   50.00000   90.00000   90.00000   90.00000
LATT -1
SFAC C  
C      1  0.5568270000000  0.5704450000000  0.5241980000000 1.0
C      1  0.5519210000000  0.5564260000000  0.5493340000000 1.0
C      1  0.5448600000000  0.5003310000000  0.5656110000000 1.0
C      1  0.5402860000000  0.4720200000000  0.5713970000000 1.0
C      1  0.5554730000000  0.4538050000000  0.5557410000000 1.0
C      1  0.5453990000000  0.4193140000000  0.5032540000000 1.0
C      1  0.5461780000000  0.4232790000000  0.4725810000000 1.0
C      1  0.5430670000000  0.4688450000000  0.4336770000000 1.0
C      1  0.5480630000000  0.4954330000000  0.4229170000000 1.0
C      1  0.5410650000000  0.5548800000000  0.4373280000000 1.0
C      1  0.5444120000000  0.5749650000000  0.4601360000000 1.0
C      1  0.4848990000000  0.5896930000000  0.5186670000000 1.0
C      1  0.4901370000000  0.5643670000000  0.5621540000000 1.0
C      1  0.4941720000000  0.5189790000000  0.5827450000000 1.0
C      1  0.4867680000000  0.4687810000000  0.5835730000000 1.0
C      1  0.4808890000000  0.4280510000000  0.5553760000000 1.0
C      1  0.4880640000000  0.4089370000000  0.5088910000000 1.0
C      1  0.4929820000000  0.4179400000000  0.4579560000000 1.0
C      1  0.4921820000000  0.4542250000000  0.4212470000000 1.0
C      1  0.4930520000000  0.5051570000000  0.4106380000000 1.0
C      1  0.4877050000000  0.5528730000000  0.4271470000000 1.0
C      1  0.4880110000000  0.5847650000000  0.4678960000000 1.0
C      1  0.5228190000000  0.5478190000000  0.5549210000000 1.0
C      1  0.5219060000000  0.5208910000000  0.5700500000000 1.0
C      1  0.5148970000000  0.4647930000000  0.5818140000000 1.0
C      1  0.5083630000000  0.4339310000000  0.5516860000000 1.0
C      1  0.5173590000000  0.4147070000000  0.5134490000000 1.0
C      1  0.5184990000000  0.4349960000000  0.4620520000000 1.0
C      1  0.5206400000000  0.4546110000000  0.4231130000000 1.0
C      1  0.5233310000000  0.5120070000000  0.4217210000000 1.0
C      1  0.5157590000000  0.5554060000000  0.4246980000000 1.0
C      1  0.5184710000000  0.5825140000000  0.4736940000000 1.0
C      1  0.5124700000000  0.5822840000000  0.5160390000000 1.0
C      1  0.5684160000000  0.5538240000000  0.5041800000000 1.0
C      1  0.5700030000000  0.5347240000000  0.5381200000000 1.0
C      1  0.5659490000000  0.5068160000000  0.5464080000000 1.0
C      1  0.5791050000000  0.4855140000000  0.5336220000000 1.0
C      1  0.5706850000000  0.4587870000000  0.5325020000000 1.0
C      1  0.5609160000000  0.4470020000000  0.5069020000000 1.0
C      1  0.5658080000000  0.4478630000000  0.4759980000000 1.0
C      1  0.5605090000000  0.4708660000000  0.4577090000000 1.0
C      1  0.5652880000000  0.5060810000000  0.4442040000000 1.0
C      1  0.5563120000000  0.5328940000000  0.4533580000000 1.0
C      1  0.5640890000000  0.5541570000000  0.4751550000000 1.0
C      1  0.5154770000000  0.4577920000000  0.5373730000000 1.0
C      1  0.5173100000000  0.4529070000000  0.5088150000000 1.0
C      1  0.5096460000000  0.4570520000000  0.4809080000000 1.0
C      1  0.5195070000000  0.4811840000000  0.4693800000000 1.0
C      1  0.5052790000000  0.5055000000000  0.4477480000000 1.0
C      1  0.5169230000000  0.5250470000000  0.4719320000000 1.0
C      1  0.5063040000000  0.5479820000000  0.4842050000000 1.0
C      1  0.5180150000000  0.5553780000000  0.5088210000000 1.0
C      1  0.5132030000000  0.5364090000000  0.5298330000000 1.0
C      1  0.5152390000000  0.5074520000000  0.5337490000000 1.0
C      1  0.5009960000000  0.4832490000000  0.5442950000000 1.0
C      1  0.4759010000000  0.4383230000000  0.4414900000000 1.0
C      1  0.4794490000000  0.4807290000000  0.4221100000000 1.0
C      1  0.4753000000000  0.5263470000000  0.4233220000000 1.0
C      1  0.4746620000000  0.5626710000000  0.4517610000000 1.0
C      1  0.4702480000000  0.5825340000000  0.4931470000000 1.0
C      1  0.4720890000000  0.5724940000000  0.5398090000000 1.0
C      1  0.4766030000000  0.5393280000000  0.5697370000000 1.0
C      1  0.4790010000000  0.4954380000000  0.5737360000000 1.0
C      1  0.4682600000000  0.4532870000000  0.5651540000000 1.0
C      1  0.4685320000000  0.4234790000000  0.5283150000000 1.0
C      1  0.4759380000000  0.4197390000000  0.4832830000000 1.0
C      1  0.4668870000000  0.4477410000000  0.4876520000000 1.0
C      1  0.4622010000000  0.4587740000000  0.4599860000000 1.0
C      1  0.4660990000000  0.4862470000000  0.4476280000000 1.0
C      1  0.4631820000000  0.5166930000000  0.4488820000000 1.0
C      1  0.4610280000000  0.5412590000000  0.4678090000000 1.0
C      1  0.4595170000000  0.5543080000000  0.4960750000000 1.0
C      1  0.4585810000000  0.5490310000000  0.5263980000000 1.0
C      1  0.4630830000000  0.5266240000000  0.5460960000000 1.0
C      1  0.4522250000000  0.4989240000000  0.5461560000000 1.0
C      1  0.4643720000000  0.4711090000000  0.5398210000000 1.0
C      1  0.4589380000000  0.4502080000000  0.5166610000000 1.0
C      1  0.4346270000000  0.4999510000000  0.4956130000000 1.0
C      1  0.4092340000000  0.5000320000000  0.4921330000000 1.0
C      1  0.4607390000000  0.4970090000000  0.5010030000000 1.0
C      1  0.5140620000000  0.5017020000000  0.4899640000000 1.0
C      1  0.4877730000000  0.4996310000000  0.5003330000000 1.0
END
