TITL C-3577081-279-4 3.89137185168977e-07 125000 -926.798470257802 0 0 153 (C1) n - 1
REM
REM in /home/bkarasulu/work/CARBON/AIRSS/Generating-Clusters/EDIP-Nigel-Params/with-SteepDescent/Higher-Symm/SD-CG/HFTN-CG
REM
REM
REM
REM
REM
REM ./C.cell (12c818d87b63d06a65506943cc24bca4)
REM
REM compiler GCC version 9.2.1 20190827 (Red Hat 9.2.1-1)
REM options -cpp -mtune=generic -march=x86-64 -g -O0 -fpre-include=/usr/include/finclude/math-vector-fortran.h
REM seed 1747099736 388326086 -1302819473 -1573881936 -1831835137 -1313241959 -1453349646 -107892027 2022857857 -1397917259 1870888621 1068561016 1966403994 -1445763717 -590004115 1325274105 1773855229 2098045706 -1611846786 1521947252 646646197 1227331200 -1424261685 -2020462892 2058261999 -906756785 -566825567 1766005029 -2021943532 -978161906 -73868102 1038478850 189678625
REM
CELL 1.54180   50.00000   50.00000   50.00000   90.00000   90.00000   90.00000
LATT -1
SFAC C  
C      1  0.5334260000000  0.5341110000000  0.5741890000000 1.0
C      1  0.5334540000000  0.5727750000000  0.5499770000000 1.0
C      1  0.5733910000000  0.5365860000000  0.5443530000000 1.0
C      1  0.5358880000000  0.4730920000000  0.4320420000000 1.0
C      1  0.4618470000000  0.5281110000000  0.4245150000000 1.0
C      1  0.4618990000000  0.4679670000000  0.5746260000000 1.0
C      1  0.5328510000000  0.4277580000000  0.4551160000000 1.0
C      1  0.4663210000000  0.5706840000000  0.4526050000000 1.0
C      1  0.4710210000000  0.4305860000000  0.5383010000000 1.0
C      1  0.5695670000000  0.4649360000000  0.4699780000000 1.0
C      1  0.4334300000000  0.5355280000000  0.4706490000000 1.0
C      1  0.4261200000000  0.4601710000000  0.5386490000000 1.0
C      1  0.4568170000000  0.5332040000000  0.5700060000000 1.0
C      1  0.4698420000000  0.5787100000000  0.5395890000000 1.0
C      1  0.4357640000000  0.5378930000000  0.5276120000000 1.0
C      1  0.4572920000000  0.4675630000000  0.4284140000000 1.0
C      1  0.5402880000000  0.5299970000000  0.4301290000000 1.0
C      1  0.5511440000000  0.4576640000000  0.5683480000000 1.0
C      1  0.4655550000000  0.4269810000000  0.4553960000000 1.0
C      1  0.5324390000000  0.5722500000000  0.4584330000000 1.0
C      1  0.5277840000000  0.4298710000000  0.5337060000000 1.0
C      1  0.4246510000000  0.4526620000000  0.4727240000000 1.0
C      1  0.5771190000000  0.5413710000000  0.4655080000000 1.0
C      1  0.5732840000000  0.4553480000000  0.5251020000000 1.0
C      1  0.5618890000000  0.4087580000000  0.5037290000000 1.0
C      1  0.4179120000000  0.5130410000000  0.5673330000000 1.0
C      1  0.5081920000000  0.5703710000000  0.4139070000000 1.0
C      1  0.5678040000000  0.5918680000000  0.4913780000000 1.0
C      1  0.4270930000000  0.4112430000000  0.4844810000000 1.0
C      1  0.4303460000000  0.5928830000000  0.5122280000000 1.0
C      1  0.4055790000000  0.4786670000000  0.4346790000000 1.0
C      1  0.6033950000000  0.5156620000000  0.4334130000000 1.0
C      1  0.5792940000000  0.4703680000000  0.5721330000000 1.0
C      1  0.5190410000000  0.4220680000000  0.5865460000000 1.0
C      1  0.4808290000000  0.5765070000000  0.5827580000000 1.0
C      1  0.4848480000000  0.4277570000000  0.4156940000000 1.0
C      1  0.4297710000000  0.4150180000000  0.5116800000000 1.0
C      1  0.5812910000000  0.4984070000000  0.5785910000000 1.0
C      1  0.4821060000000  0.5684700000000  0.4051330000000 1.0
C      1  0.4253740000000  0.5850660000000  0.4860170000000 1.0
C      1  0.5651310000000  0.3984990000000  0.4791020000000 1.0
C      1  0.5646390000000  0.5970690000000  0.5177350000000 1.0
C      1  0.5883520000000  0.4933340000000  0.4333550000000 1.0
C      1  0.4153970000000  0.5041710000000  0.4347080000000 1.0
C      1  0.4051770000000  0.4898320000000  0.5730510000000 1.0
C      1  0.4915140000000  0.4252940000000  0.5843280000000 1.0
C      1  0.5084750000000  0.5769390000000  0.5857160000000 1.0
C      1  0.5123740000000  0.4310480000000  0.4157520000000 1.0
C      1  0.4503810000000  0.4638920000000  0.4859720000000 1.0
C      1  0.4788980000000  0.4729830000000  0.4479870000000 1.0
C      1  0.4752640000000  0.4540550000000  0.4707350000000 1.0
C      1  0.4640700000000  0.5307160000000  0.5213670000000 1.0
C      1  0.5476150000000  0.4723950000000  0.5260960000000 1.0
C      1  0.5621130000000  0.5152800000000  0.4711490000000 1.0
C      1  0.4782700000000  0.5280910000000  0.5476280000000 1.0
C      1  0.5313700000000  0.4854290000000  0.5636530000000 1.0
C      1  0.5344490000000  0.5213960000000  0.4599890000000 1.0
C      1  0.4790550000000  0.5567170000000  0.5205900000000 1.0
C      1  0.5224330000000  0.4583210000000  0.5295640000000 1.0
C      1  0.5290640000000  0.5460530000000  0.4737090000000 1.0
C      1  0.5418190000000  0.4679490000000  0.4823060000000 1.0
C      1  0.5254970000000  0.4777470000000  0.4605810000000 1.0
C      1  0.5278050000000  0.4398110000000  0.4840730000000 1.0
C      1  0.5605310000000  0.5392350000000  0.5160210000000 1.0
C      1  0.4416890000000  0.4863480000000  0.5320480000000 1.0
C      1  0.4610760000000  0.5264000000000  0.4771660000000 1.0
C      1  0.5216750000000  0.5297300000000  0.5469460000000 1.0
C      1  0.4684820000000  0.4797770000000  0.5453250000000 1.0
C      1  0.4863670000000  0.5253530000000  0.4409240000000 1.0
C      1  0.5296920000000  0.5505140000000  0.5277480000000 1.0
C      1  0.4780160000000  0.4581150000000  0.5287560000000 1.0
C      1  0.4823240000000  0.5431480000000  0.4653070000000 1.0
C      1  0.5927710000000  0.4668940000000  0.5455140000000 1.0
C      1  0.4684510000000  0.5521570000000  0.5907380000000 1.0
C      1  0.5423700000000  0.5922780000000  0.4796070000000 1.0
C      1  0.6040240000000  0.5311490000000  0.4564850000000 1.0
C      1  0.4022810000000  0.4708390000000  0.4615070000000 1.0
C      1  0.4239280000000  0.5115370000000  0.5388620000000 1.0
C      1  0.4713530000000  0.4511740000000  0.4069560000000 1.0
C      1  0.5173980000000  0.5436310000000  0.4153830000000 1.0
C      1  0.5329600000000  0.4466030000000  0.5910640000000 1.0
C      1  0.5347600000000  0.4186020000000  0.5060020000000 1.0
C      1  0.4579070000000  0.5957220000000  0.5182850000000 1.0
C      1  0.4526410000000  0.4058870000000  0.4734800000000 1.0
C      1  0.4056560000000  0.4682330000000  0.5570600000000 1.0
C      1  0.5151070000000  0.5501300000000  0.5924100000000 1.0
C      1  0.4506640000000  0.5866210000000  0.4732250000000 1.0
C      1  0.4164840000000  0.5127390000000  0.4613010000000 1.0
C      1  0.5754890000000  0.4914750000000  0.4581730000000 1.0
C      1  0.5835060000000  0.5099220000000  0.5525910000000 1.0
C      1  0.5163870000000  0.4588530000000  0.4133320000000 1.0
C      1  0.4754170000000  0.5412630000000  0.4008420000000 1.0
C      1  0.4849590000000  0.4525730000000  0.5877790000000 1.0
C      1  0.4574150000000  0.4143760000000  0.5168200000000 1.0
C      1  0.5450770000000  0.5989420000000  0.5374670000000 1.0
C      1  0.5486060000000  0.4041240000000  0.4587780000000 1.0
C      1  0.4904130000000  0.5363300000000  0.6001730000000 1.0
C      1  0.5190810000000  0.5966730000000  0.4969950000000 1.0
C      1  0.6000120000000  0.4934560000000  0.5348680000000 1.0
C      1  0.4928160000000  0.4694860000000  0.3965090000000 1.0
C      1  0.5033180000000  0.5277090000000  0.3948970000000 1.0
C      1  0.5098420000000  0.4645150000000  0.5955910000000 1.0
C      1  0.5151680000000  0.3968370000000  0.5016100000000 1.0
C      1  0.4703190000000  0.5900350000000  0.4927430000000 1.0
C      1  0.4710750000000  0.3975130000000  0.4957890000000 1.0
C      1  0.6149350000000  0.5181320000000  0.4801060000000 1.0
C      1  0.3975610000000  0.4958550000000  0.4779240000000 1.0
C      1  0.4000770000000  0.5063200000000  0.5214690000000 1.0
C      1  0.4976560000000  0.3927190000000  0.5242280000000 1.0
C      1  0.5180300000000  0.4998410000000  0.3967570000000 1.0
C      1  0.5179310000000  0.6052260000000  0.5258110000000 1.0
C      1  0.4878960000000  0.5086650000000  0.5933500000000 1.0
C      1  0.4955520000000  0.5963360000000  0.4807720000000 1.0
C      1  0.4963550000000  0.4046890000000  0.4815400000000 1.0
C      1  0.3965910000000  0.5270450000000  0.5015420000000 1.0
C      1  0.4043600000000  0.4834220000000  0.5041230000000 1.0
C      1  0.6041870000000  0.5319190000000  0.5022450000000 1.0
C      1  0.5981620000000  0.4937800000000  0.5046380000000 1.0
C      1  0.5131500000000  0.4937460000000  0.5977640000000 1.0
C      1  0.4790740000000  0.4973340000000  0.3972600000000 1.0
C      1  0.4996760000000  0.4155220000000  0.5421570000000 1.0
C      1  0.4205290000000  0.5433970000000  0.4996530000000 1.0
C      1  0.5397800000000  0.5008010000000  0.4172470000000 1.0
C      1  0.5001650000000  0.5825260000000  0.4552080000000 1.0
C      1  0.5005990000000  0.4187000000000  0.4558460000000 1.0
C      1  0.4996950000000  0.5898700000000  0.5448630000000 1.0
C      1  0.4142970000000  0.4561700000000  0.5099830000000 1.0
C      1  0.5818380000000  0.5501630000000  0.4957490000000 1.0
C      1  0.5863080000000  0.4655480000000  0.4970230000000 1.0
C      1  0.4615430000000  0.4986710000000  0.5852970000000 1.0
C      1  0.5384010000000  0.5065950000000  0.5851450000000 1.0
C      1  0.4545300000000  0.4976060000000  0.4152140000000 1.0
C      1  0.4485160000000  0.4881370000000  0.5029040000000 1.0
C      1  0.4877600000000  0.4998000000000  0.4540030000000 1.0
C      1  0.4691320000000  0.5091880000000  0.5000460000000 1.0
C      1  0.5400970000000  0.4908710000000  0.5051920000000 1.0
C      1  0.5591860000000  0.5124010000000  0.5007060000000 1.0
C      1  0.4881000000000  0.5011840000000  0.5446140000000 1.0
C      1  0.5172250000000  0.5011750000000  0.5386280000000 1.0
C      1  0.5111280000000  0.5004920000000  0.4705510000000 1.0
C      1  0.4999960000000  0.4660190000000  0.5118330000000 1.0
C      1  0.5046260000000  0.5418760000000  0.4859610000000 1.0
C      1  0.4992060000000  0.4484430000000  0.4886300000000 1.0
C      1  0.5060060000000  0.5564750000000  0.5100560000000 1.0
C      1  0.4444660000000  0.5579180000000  0.5514170000000 1.0
C      1  0.5548880000000  0.4346920000000  0.5474190000000 1.0
C      1  0.5586570000000  0.5560450000000  0.4432770000000 1.0
C      1  0.4445230000000  0.5486740000000  0.4425310000000 1.0
C      1  0.4468090000000  0.4425260000000  0.5559050000000 1.0
C      1  0.5543970000000  0.4495180000000  0.4434290000000 1.0
C      1  0.4401030000000  0.4449880000000  0.4450630000000 1.0
C      1  0.5569530000000  0.5513200000000  0.5647920000000 1.0
C      1  0.4992280000000  0.4973720000000  0.5018530000000 1.0
END
