TITL C-3577091-527-208 -4.51436602580746e-06 125000 -206.708899996367 0 0 36 (C3) n - 1
REM
REM in /home/bkarasulu/work/CARBON/AIRSS/Generating-Clusters/EDIP-Nigel-Params/with-SteepDescent/Higher-Symm/SD-CG/HFTN-CG
REM
REM
REM
REM
REM
REM ./C.cell (12c818d87b63d06a65506943cc24bca4)
REM
REM compiler GCC version 9.2.1 20190827 (Red Hat 9.2.1-1)
REM options -cpp -mtune=generic -march=x86-64 -g -O0 -fpre-include=/usr/include/finclude/math-vector-fortran.h
REM seed -1617370111 1382477706 382075768 -1794234339 1840572603 -1189445343 101025210 -204175374 -1248746621 212292974 -1998820408 1281561140 107116895 258171712 -1771225047 1303530914 1043741581 -1842344967 -601421759 1882441190 -141750788 -2091279066 2083768759 -458343815 -1929685935 497061576 -562940620 528548477 -604079520 -1143573058 515875319 30420004 5857811
REM
CELL 1.54180   50.00000   50.00000   50.00000   90.00000   90.00000   90.00000
LATT -1
SFAC C  
C      1  0.4710040000000  0.5200640000000  0.5488040000000 1.0
C      1  0.4722330000000  0.5200610000000  0.4504860000000 1.0
C      1  0.5567640000000  0.5200610000000  0.5007090000000 1.0
C      1  0.4395480000000  0.4930660000000  0.4718330000000 1.0
C      1  0.5546190000000  0.4930640000000  0.4617310000000 1.0
C      1  0.5058320000000  0.4930690000000  0.5664370000000 1.0
C      1  0.5176020000000  0.4647190000000  0.4956940000000 1.0
C      1  0.4949280000000  0.4647200000000  0.5174000000000 1.0
C      1  0.4874670000000  0.4647190000000  0.4869100000000 1.0
C      1  0.5312070000000  0.5044560000000  0.4520610000000 1.0
C      1  0.5259130000000  0.5044590000000  0.5509950000000 1.0
C      1  0.4428800000000  0.5044590000000  0.4969430000000 1.0
C      1  0.4742830000000  0.4666880000000  0.5389200000000 1.0
C      1  0.4791530000000  0.4666860000000  0.4582700000000 1.0
C      1  0.5465620000000  0.4666860000000  0.5028130000000 1.0
C      1  0.4830700000000  0.5444680000000  0.4611050000000 1.0
C      1  0.5421490000000  0.5444690000000  0.5047830000000 1.0
C      1  0.4747840000000  0.5444710000000  0.5341080000000 1.0
C      1  0.4778210000000  0.5453930000000  0.5046410000000 1.0
C      1  0.5070700000000  0.5453910000000  0.4784680000000 1.0
C      1  0.5151120000000  0.5453920000000  0.5168860000000 1.0
C      1  0.4846310000000  0.5068530000000  0.5251780000000 1.0
C      1  0.4858800000000  0.5068510000000  0.4741000000000 1.0
C      1  0.5294900000000  0.5068510000000  0.5007210000000 1.0
C      1  0.4356930000000  0.4871850000000  0.5173010000000 1.0
C      1  0.5171710000000  0.4871800000000  0.4356590000000 1.0
C      1  0.5471360000000  0.4871840000000  0.5470420000000 1.0
C      1  0.4709080000000  0.5155000000000  0.4989800000000 1.0
C      1  0.5154300000000  0.5154980000000  0.4753150000000 1.0
C      1  0.5136630000000  0.5155000000000  0.5257040000000 1.0
C      1  0.5524540000000  0.4670200000000  0.5301300000000 1.0
C      1  0.4476790000000  0.4670230000000  0.5303640000000 1.0
C      1  0.4998640000000  0.4670180000000  0.4395090000000 1.0
C      1  0.4798400000000  0.4845950000000  0.5614670000000 1.0
C      1  0.4568480000000  0.4845920000000  0.4518090000000 1.0
C      1  0.5633110000000  0.4845910000000  0.4867260000000 1.0
END
