TITL C-3578203-1966-456 1.29945177932998e-06 125000 -1010.69116170752 0 0 160 (C1) n - 1
REM
REM in /home/bkarasulu/work/CARBON/AIRSS/Generating-Clusters/EDIP-Nigel-Params/with-SteepDescent/Higher-Symm/SD-CG/HFTN-CG
REM
REM
REM
REM
REM
REM ./C.cell (12c818d87b63d06a65506943cc24bca4)
REM
REM compiler GCC version 9.2.1 20190827 (Red Hat 9.2.1-1)
REM options -cpp -mtune=generic -march=x86-64 -g -O0 -fpre-include=/usr/include/finclude/math-vector-fortran.h
REM seed -1506741999 310269621 -1673241377 -1379256761 -78994246 -285239241 -333345679 -1941139206 -1102928412 -248663348 -813547768 -323783062 1017998518 2072110123 -279661798 2119209998 2018187536 433765265 1072227815 1150956110 -31173313 112126314 769405615 1962922178 -1462763220 -1097845630 -1174836750 1393355033 -178431629 -1451327965 -2122533328 117896163 768176607
REM
CELL 1.54180   50.00000   50.00000   50.00000   90.00000   90.00000   90.00000
LATT -1
SFAC C  
C      1  0.4536160000000  0.4626070000000  0.5048980000000 1.0
C      1  0.5454550000000  0.4927330000000  0.4600310000000 1.0
C      1  0.4538450000000  0.5371250000000  0.4941620000000 1.0
C      1  0.5464450000000  0.5076020000000  0.5409870000000 1.0
C      1  0.5767060000000  0.4321500000000  0.5002210000000 1.0
C      1  0.4216940000000  0.5005710000000  0.4303540000000 1.0
C      1  0.5776870000000  0.5688300000000  0.5000500000000 1.0
C      1  0.4222240000000  0.4994870000000  0.5688040000000 1.0
C      1  0.5251690000000  0.5038180000000  0.3817760000000 1.0
C      1  0.4751640000000  0.6187650000000  0.5025740000000 1.0
C      1  0.5255870000000  0.4972490000000  0.6194820000000 1.0
C      1  0.4751160000000  0.3803550000000  0.4983050000000 1.0
C      1  0.4583670000000  0.4226870000000  0.4687710000000 1.0
C      1  0.5398000000000  0.5319980000000  0.4253090000000 1.0
C      1  0.4600470000000  0.5747090000000  0.5323550000000 1.0
C      1  0.5415600000000  0.4693050000000  0.5772730000000 1.0
C      1  0.4881420000000  0.5138370000000  0.4567540000000 1.0
C      1  0.5113090000000  0.5419000000000  0.5137250000000 1.0
C      1  0.4897070000000  0.4874210000000  0.5450690000000 1.0
C      1  0.5086360000000  0.4573510000000  0.4843480000000 1.0
C      1  0.4414380000000  0.5493130000000  0.4420920000000 1.0
C      1  0.5595050000000  0.5587780000000  0.5494310000000 1.0
C      1  0.4421640000000  0.4516320000000  0.5576580000000 1.0
C      1  0.5593360000000  0.4413770000000  0.4508360000000 1.0
C      1  0.5721170000000  0.5014080000000  0.4464110000000 1.0
C      1  0.4279330000000  0.5524990000000  0.5021200000000 1.0
C      1  0.5732120000000  0.4991920000000  0.5544770000000 1.0
C      1  0.4275110000000  0.4473220000000  0.4978080000000 1.0
C      1  0.4342580000000  0.4471190000000  0.4260850000000 1.0
C      1  0.5643610000000  0.5716890000000  0.4478440000000 1.0
C      1  0.4354270000000  0.5519740000000  0.5725740000000 1.0
C      1  0.5645430000000  0.4284110000000  0.5522140000000 1.0
C      1  0.4430330000000  0.5226730000000  0.4693800000000 1.0
C      1  0.5566330000000  0.5306030000000  0.5239160000000 1.0
C      1  0.4436860000000  0.4775620000000  0.5297700000000 1.0
C      1  0.5555330000000  0.4692970000000  0.4764310000000 1.0
C      1  0.5508720000000  0.4791590000000  0.4137820000000 1.0
C      1  0.4553270000000  0.5811170000000  0.4801360000000 1.0
C      1  0.5514580000000  0.5210770000000  0.5869060000000 1.0
C      1  0.4550010000000  0.4188610000000  0.5201970000000 1.0
C      1  0.4866970000000  0.5547100000000  0.4269360000000 1.0
C      1  0.5133990000000  0.5727610000000  0.5548720000000 1.0
C      1  0.4872320000000  0.4458440000000  0.5733900000000 1.0
C      1  0.5140010000000  0.4260660000000  0.4443660000000 1.0
C      1  0.4212070000000  0.5470490000000  0.5467560000000 1.0
C      1  0.5783780000000  0.4543980000000  0.5475860000000 1.0
C      1  0.4223490000000  0.4534240000000  0.4529410000000 1.0
C      1  0.5788670000000  0.5460940000000  0.4520920000000 1.0
C      1  0.5909180000000  0.4559970000000  0.4991400000000 1.0
C      1  0.4074070000000  0.5015990000000  0.4544620000000 1.0
C      1  0.5917100000000  0.5448070000000  0.5010680000000 1.0
C      1  0.4078900000000  0.4984150000000  0.5449030000000 1.0
C      1  0.5113300000000  0.4275440000000  0.5783600000000 1.0
C      1  0.4890090000000  0.4222610000000  0.4267620000000 1.0
C      1  0.5109490000000  0.5728500000000  0.4221100000000 1.0
C      1  0.4890900000000  0.5773870000000  0.5731220000000 1.0
C      1  0.4481390000000  0.5042520000000  0.5789820000000 1.0
C      1  0.5503840000000  0.4231800000000  0.5048660000000 1.0
C      1  0.4469510000000  0.4954950000000  0.4185210000000 1.0
C      1  0.5513290000000  0.5777810000000  0.4953500000000 1.0
C      1  0.5390650000000  0.5661130000000  0.5691170000000 1.0
C      1  0.4621070000000  0.4315960000000  0.5658080000000 1.0
C      1  0.5396400000000  0.4334910000000  0.4305910000000 1.0
C      1  0.4615960000000  0.5692560000000  0.4341750000000 1.0
C      1  0.4937710000000  0.6016020000000  0.4595570000000 1.0
C      1  0.5071700000000  0.5381860000000  0.5981210000000 1.0
C      1  0.4937240000000  0.3986490000000  0.5408420000000 1.0
C      1  0.5073430000000  0.4619090000000  0.4027370000000 1.0
C      1  0.5920080000000  0.5022630000000  0.4699980000000 1.0
C      1  0.4066820000000  0.5299500000000  0.5021730000000 1.0
C      1  0.5928020000000  0.4983980000000  0.5306230000000 1.0
C      1  0.4066260000000  0.4700720000000  0.4973480000000 1.0
C      1  0.5362410000000  0.5595230000000  0.4126550000000 1.0
C      1  0.4637590000000  0.5870970000000  0.5600040000000 1.0
C      1  0.5368610000000  0.4408020000000  0.5877700000000 1.0
C      1  0.4635560000000  0.4132960000000  0.4401360000000 1.0
C      1  0.5028240000000  0.5013130000000  0.4352980000000 1.0
C      1  0.4963660000000  0.5629370000000  0.5008320000000 1.0
C      1  0.5024510000000  0.5002440000000  0.5676910000000 1.0
C      1  0.4948890000000  0.4363140000000  0.4979690000000 1.0
C      1  0.4308420000000  0.4336230000000  0.4718180000000 1.0
C      1  0.5684490000000  0.5274700000000  0.4327920000000 1.0
C      1  0.4315300000000  0.5661950000000  0.5281440000000 1.0
C      1  0.5696000000000  0.4728970000000  0.5676730000000 1.0
C      1  0.4978130000000  0.6111130000000  0.4878300000000 1.0
C      1  0.5030610000000  0.5126020000000  0.6136990000000 1.0
C      1  0.4976740000000  0.3888180000000  0.5126060000000 1.0
C      1  0.5030900000000  0.4882910000000  0.3891010000000 1.0
C      1  0.5390120000000  0.4286360000000  0.5362750000000 1.0
C      1  0.4594020000000  0.4634090000000  0.4241670000000 1.0
C      1  0.5392100000000  0.5709230000000  0.4643550000000 1.0
C      1  0.4607320000000  0.5357140000000  0.5719720000000 1.0
C      1  0.4612460000000  0.5948270000000  0.5066050000000 1.0
C      1  0.5425920000000  0.4938170000000  0.5976980000000 1.0
C      1  0.4601510000000  0.4036320000000  0.4943320000000 1.0
C      1  0.5403160000000  0.5065760000000  0.4049730000000 1.0
C      1  0.5100600000000  0.5884900000000  0.5025090000000 1.0
C      1  0.4887140000000  0.4976840000000  0.5925500000000 1.0
C      1  0.5094970000000  0.4112700000000  0.4973230000000 1.0
C      1  0.4886950000000  0.5029510000000  0.4102390000000 1.0
C      1  0.4958710000000  0.5175980000000  0.5086880000000 1.0
C      1  0.5073980000000  0.4954940000000  0.5242590000000 1.0
C      1  0.4909590000000  0.4792450000000  0.4869790000000 1.0
C      1  0.5026580000000  0.5061280000000  0.4813330000000 1.0
C      1  0.4813640000000  0.5330570000000  0.4052820000000 1.0
C      1  0.5179070000000  0.5936650000000  0.5325830000000 1.0
C      1  0.4813340000000  0.4669680000000  0.5956190000000 1.0
C      1  0.5181680000000  0.4057350000000  0.4674290000000 1.0
C      1  0.5949290000000  0.5301200000000  0.5277630000000 1.0
C      1  0.4054360000000  0.4720520000000  0.5295960000000 1.0
C      1  0.5939940000000  0.4706320000000  0.4727140000000 1.0
C      1  0.4048980000000  0.5282290000000  0.4700140000000 1.0
C      1  0.4254120000000  0.5720550000000  0.4795530000000 1.0
C      1  0.5787780000000  0.5218050000000  0.5732980000000 1.0
C      1  0.4253290000000  0.4281330000000  0.5207780000000 1.0
C      1  0.5780240000000  0.4789750000000  0.4275520000000 1.0
C      1  0.4546910000000  0.4803580000000  0.5952920000000 1.0
C      1  0.5440720000000  0.4058410000000  0.4817970000000 1.0
C      1  0.4547580000000  0.5199100000000  0.4037880000000 1.0
C      1  0.5441990000000  0.5940650000000  0.5189490000000 1.0
C      1  0.5229030000000  0.4800200000000  0.4404920000000 1.0
C      1  0.4746820000000  0.5567420000000  0.4817460000000 1.0
C      1  0.5230350000000  0.5207340000000  0.5602650000000 1.0
C      1  0.4743890000000  0.4432850000000  0.5179220000000 1.0
C      1  0.5877740000000  0.4697750000000  0.5239510000000 1.0
C      1  0.4103770000000  0.4763590000000  0.4680860000000 1.0
C      1  0.5876080000000  0.5309810000000  0.4762670000000 1.0
C      1  0.4107980000000  0.5235150000000  0.5313410000000 1.0
C      1  0.5353840000000  0.4535590000000  0.4087110000000 1.0
C      1  0.4656710000000  0.5913490000000  0.4542640000000 1.0
C      1  0.5354470000000  0.5466740000000  0.5918440000000 1.0
C      1  0.4658300000000  0.4093010000000  0.5460790000000 1.0
C      1  0.4931910000000  0.5433490000000  0.4547950000000 1.0
C      1  0.5067270000000  0.5448940000000  0.5440440000000 1.0
C      1  0.4938950000000  0.4573090000000  0.5455260000000 1.0
C      1  0.5062960000000  0.4541170000000  0.4538390000000 1.0
C      1  0.5350640000000  0.4639040000000  0.4968320000000 1.0
C      1  0.4611360000000  0.5021670000000  0.4596510000000 1.0
C      1  0.5380330000000  0.5361440000000  0.5016610000000 1.0
C      1  0.4626850000000  0.4983380000000  0.5377330000000 1.0
C      1  0.5260410000000  0.5410300000000  0.4564690000000 1.0
C      1  0.4737920000000  0.5434530000000  0.5421690000000 1.0
C      1  0.5262440000000  0.4576210000000  0.5436370000000 1.0
C      1  0.4730920000000  0.4548080000000  0.4529900000000 1.0
C      1  0.4411980000000  0.4197710000000  0.4239260000000 1.0
C      1  0.5582710000000  0.5756000000000  0.4203550000000 1.0
C      1  0.4416780000000  0.5794690000000  0.5760340000000 1.0
C      1  0.5587830000000  0.4246480000000  0.5797560000000 1.0
C      1  0.4176240000000  0.4460280000000  0.5430650000000 1.0
C      1  0.5838110000000  0.4565730000000  0.4463070000000 1.0
C      1  0.4170650000000  0.5547090000000  0.4569700000000 1.0
C      1  0.5843240000000  0.5441650000000  0.5542760000000 1.0
C      1  0.4828080000000  0.5520410000000  0.5880120000000 1.0
C      1  0.5175960000000  0.4121360000000  0.5532160000000 1.0
C      1  0.4830940000000  0.4469410000000  0.4107420000000 1.0
C      1  0.5173720000000  0.5873660000000  0.4475970000000 1.0
C      1  0.5319870000000  0.5177450000000  0.4767240000000 1.0
C      1  0.4677860000000  0.5224350000000  0.5199120000000 1.0
C      1  0.5329970000000  0.4796470000000  0.5233460000000 1.0
C      1  0.4653040000000  0.4758130000000  0.4741720000000 1.0
END
