TITL C-3577085-527-48 -2.23428735762725e-06 125000 -757.183116505604 0 0 126 (C1) n - 1
REM
REM in /home/bkarasulu/work/CARBON/AIRSS/Generating-Clusters/EDIP-Nigel-Params/with-SteepDescent/Higher-Symm/SD-CG/HFTN-CG
REM
REM
REM
REM
REM
REM ./C.cell (12c818d87b63d06a65506943cc24bca4)
REM
REM compiler GCC version 9.2.1 20190827 (Red Hat 9.2.1-1)
REM options -cpp -mtune=generic -march=x86-64 -g -O0 -fpre-include=/usr/include/finclude/math-vector-fortran.h
REM seed -1801082197 422276914 824443681 1580353934 1712940182 1908531845 -1948404329 1143502070 2012071584 -1421715857 -1247533298 -1628670522 -1826514651 -528343454 625368256 1422930616 -766058959 626246898 56034973 -238771765 1276790935 639638575 -1401758761 -1252930212 607199905 1646990477 2141520233 -1262001881 528878879 1788703532 -712705446 1603899720 -2001855111
REM
CELL 1.54180   50.00000   50.00000   50.00000   90.00000   90.00000   90.00000
LATT -1
SFAC C  
C      1  0.5670600000000  0.4523710000000  0.4767120000000 1.0
C      1  0.5660260000000  0.4750080000000  0.4571090000000 1.0
C      1  0.5742520000000  0.5016270000000  0.4628760000000 1.0
C      1  0.5684960000000  0.5292020000000  0.4669090000000 1.0
C      1  0.5734450000000  0.5410910000000  0.4920300000000 1.0
C      1  0.5698680000000  0.5485160000000  0.5190260000000 1.0
C      1  0.5793970000000  0.5316150000000  0.5391500000000 1.0
C      1  0.5804420000000  0.5076260000000  0.5533190000000 1.0
C      1  0.5895710000000  0.4856320000000  0.5389320000000 1.0
C      1  0.5769170000000  0.4618000000000  0.5320110000000 1.0
C      1  0.5736010000000  0.4565160000000  0.5042620000000 1.0
C      1  0.4369540000000  0.4549010000000  0.4645770000000 1.0
C      1  0.4348000000000  0.4807120000000  0.4447900000000 1.0
C      1  0.4347780000000  0.5127590000000  0.4422500000000 1.0
C      1  0.4358000000000  0.5403560000000  0.4587540000000 1.0
C      1  0.4377780000000  0.5553770000000  0.4872530000000 1.0
C      1  0.4377390000000  0.5527560000000  0.5188170000000 1.0
C      1  0.4367440000000  0.5333680000000  0.5445320000000 1.0
C      1  0.4376960000000  0.5031260000000  0.5546450000000 1.0
C      1  0.4388990000000  0.4716900000000  0.5471280000000 1.0
C      1  0.4411740000000  0.4505960000000  0.5238660000000 1.0
C      1  0.4389260000000  0.4430770000000  0.4935160000000 1.0
C      1  0.4528720000000  0.5046850000000  0.5804680000000 1.0
C      1  0.4547530000000  0.4587840000000  0.5692730000000 1.0
C      1  0.4582180000000  0.4286680000000  0.5348150000000 1.0
C      1  0.4549710000000  0.4177580000000  0.4909070000000 1.0
C      1  0.4528400000000  0.4351440000000  0.4487830000000 1.0
C      1  0.4506040000000  0.4719410000000  0.4206210000000 1.0
C      1  0.4506240000000  0.5180600000000  0.4172380000000 1.0
C      1  0.4518840000000  0.5581690000000  0.4409190000000 1.0
C      1  0.4545250000000  0.5797290000000  0.4821140000000 1.0
C      1  0.4535210000000  0.5767820000000  0.5274190000000 1.0
C      1  0.4514370000000  0.5486930000000  0.5658940000000 1.0
C      1  0.4643090000000  0.4940530000000  0.4080000000000 1.0
C      1  0.4645710000000  0.5434690000000  0.4193620000000 1.0
C      1  0.4669430000000  0.5773900000000  0.4561460000000 1.0
C      1  0.4699440000000  0.5879470000000  0.5055970000000 1.0
C      1  0.4654150000000  0.5709350000000  0.5531600000000 1.0
C      1  0.4658570000000  0.5307220000000  0.5844710000000 1.0
C      1  0.4674000000000  0.4800110000000  0.5845070000000 1.0
C      1  0.4715120000000  0.4367190000000  0.5593310000000 1.0
C      1  0.4751310000000  0.4183220000000  0.5128480000000 1.0
C      1  0.4673760000000  0.4159010000000  0.4649960000000 1.0
C      1  0.4663050000000  0.4487220000000  0.4275530000000 1.0
C      1  0.5184500000000  0.5330410000000  0.4552380000000 1.0
C      1  0.5257430000000  0.5592600000000  0.4753050000000 1.0
C      1  0.5243210000000  0.5553450000000  0.5064770000000 1.0
C      1  0.5247450000000  0.5481400000000  0.5459560000000 1.0
C      1  0.5250700000000  0.5167200000000  0.5571490000000 1.0
C      1  0.5220790000000  0.4829610000000  0.5611790000000 1.0
C      1  0.5280360000000  0.4620350000000  0.5341610000000 1.0
C      1  0.5260550000000  0.4466880000000  0.5044080000000 1.0
C      1  0.5277060000000  0.4692950000000  0.4779360000000 1.0
C      1  0.5185120000000  0.4758860000000  0.4465380000000 1.0
C      1  0.5247730000000  0.5048830000000  0.4351130000000 1.0
C      1  0.5528760000000  0.5715570000000  0.4668610000000 1.0
C      1  0.5568610000000  0.5730780000000  0.5296720000000 1.0
C      1  0.5545310000000  0.5696430000000  0.5578580000000 1.0
C      1  0.5606280000000  0.4999910000000  0.5738800000000 1.0
C      1  0.5591490000000  0.4703840000000  0.5792340000000 1.0
C      1  0.5615420000000  0.4504680000000  0.5558750000000 1.0
C      1  0.5410150000000  0.4202980000000  0.4988770000000 1.0
C      1  0.5511290000000  0.4273200000000  0.4728040000000 1.0
C      1  0.5582460000000  0.4724490000000  0.4283370000000 1.0
C      1  0.5516290000000  0.5007460000000  0.4202460000000 1.0
C      1  0.5585260000000  0.5498990000000  0.4471370000000 1.0
C      1  0.5143750000000  0.5169060000000  0.5999050000000 1.0
C      1  0.5084030000000  0.4565280000000  0.5940520000000 1.0
C      1  0.5162120000000  0.4111330000000  0.5600210000000 1.0
C      1  0.5052500000000  0.3802630000000  0.4994730000000 1.0
C      1  0.5124080000000  0.4020310000000  0.4429020000000 1.0
C      1  0.5098500000000  0.4576370000000  0.4071960000000 1.0
C      1  0.5078050000000  0.5130940000000  0.3957850000000 1.0
C      1  0.5105270000000  0.5629240000000  0.4238020000000 1.0
C      1  0.5088240000000  0.5989200000000  0.4677300000000 1.0
C      1  0.5126110000000  0.6081550000000  0.5258490000000 1.0
C      1  0.5069680000000  0.5723570000000  0.5784580000000 1.0
C      1  0.4955660000000  0.5426790000000  0.5375860000000 1.0
C      1  0.4891670000000  0.5141280000000  0.5421870000000 1.0
C      1  0.4943070000000  0.4858520000000  0.5498890000000 1.0
C      1  0.4897480000000  0.4640760000000  0.5296980000000 1.0
C      1  0.4951800000000  0.4445950000000  0.5068940000000 1.0
C      1  0.4906160000000  0.4579850000000  0.4801150000000 1.0
C      1  0.4903260000000  0.4737590000000  0.4551260000000 1.0
C      1  0.4811780000000  0.5005300000000  0.4574980000000 1.0
C      1  0.4908910000000  0.5260500000000  0.4643920000000 1.0
C      1  0.4831300000000  0.5358540000000  0.4897740000000 1.0
C      1  0.4955890000000  0.5519400000000  0.5095570000000 1.0
C      1  0.5349100000000  0.4670360000000  0.5946540000000 1.0
C      1  0.5383240000000  0.4303090000000  0.5532130000000 1.0
C      1  0.5286810000000  0.3953680000000  0.4982600000000 1.0
C      1  0.5365460000000  0.4135940000000  0.4525050000000 1.0
C      1  0.5360750000000  0.4536030000000  0.4204880000000 1.0
C      1  0.5348740000000  0.5037210000000  0.3970160000000 1.0
C      1  0.5371670000000  0.5498530000000  0.4256530000000 1.0
C      1  0.5356160000000  0.5933510000000  0.4584980000000 1.0
C      1  0.5352130000000  0.5900760000000  0.5176140000000 1.0
C      1  0.5330290000000  0.5793900000000  0.5718160000000 1.0
C      1  0.5433620000000  0.5185140000000  0.5909060000000 1.0
C      1  0.4885810000000  0.4746740000000  0.6040980000000 1.0
C      1  0.4922350000000  0.4203190000000  0.5747100000000 1.0
C      1  0.4887050000000  0.3917540000000  0.5202370000000 1.0
C      1  0.4897300000000  0.3960670000000  0.4609010000000 1.0
C      1  0.4892050000000  0.4380030000000  0.4125500000000 1.0
C      1  0.4884560000000  0.4927480000000  0.3902480000000 1.0
C      1  0.4899700000000  0.5522750000000  0.4058150000000 1.0
C      1  0.4894250000000  0.5942030000000  0.4472630000000 1.0
C      1  0.4906610000000  0.6107000000000  0.5063460000000 1.0
C      1  0.4862750000000  0.5873410000000  0.5656670000000 1.0
C      1  0.4921100000000  0.5366190000000  0.5997330000000 1.0
C      1  0.5019690000000  0.4299100000000  0.5993070000000 1.0
C      1  0.5058280000000  0.3934350000000  0.5418770000000 1.0
C      1  0.4916900000000  0.3729740000000  0.4765050000000 1.0
C      1  0.5010760000000  0.4150840000000  0.4218340000000 1.0
C      1  0.5037730000000  0.4702370000000  0.3830850000000 1.0
C      1  0.5017750000000  0.5377830000000  0.3847300000000 1.0
C      1  0.5050280000000  0.5901540000000  0.4242180000000 1.0
C      1  0.5025600000000  0.6211800000000  0.4831480000000 1.0
C      1  0.4994370000000  0.6056990000000  0.5499310000000 1.0
C      1  0.5009030000000  0.5629240000000  0.6036890000000 1.0
C      1  0.5035300000000  0.4958190000000  0.6139120000000 1.0
C      1  0.5017790000000  0.4976960000000  0.5031630000000 1.0
C      1  0.5272660000000  0.4944270000000  0.4923140000000 1.0
C      1  0.5484170000000  0.5010580000000  0.5065700000000 1.0
C      1  0.4739680000000  0.4936000000000  0.5008170000000 1.0
C      1  0.4515930000000  0.5067430000000  0.4984330000000 1.0
END
