TITL C-3578197-9521-541 -7.53041759445814e-07 125000 -450.795531339123 0 0 74 (C3i) n - 1
REM
REM in /home/bkarasulu/work/CARBON/AIRSS/Generating-Clusters/EDIP-Nigel-Params/with-SteepDescent/Higher-Symm/SD-CG/HFTN-CG
REM
REM
REM
REM
REM
REM ./C.cell (12c818d87b63d06a65506943cc24bca4)
REM
REM compiler GCC version 9.2.1 20190827 (Red Hat 9.2.1-1)
REM options -cpp -mtune=generic -march=x86-64 -g -O0 -fpre-include=/usr/include/finclude/math-vector-fortran.h
REM seed -913188065 1651068799 -290834205 -1741038461 -90087685 -1303935848 -577839390 -2132954442 766419967 -1554163849 -2043800494 2063219811 -424933455 1342105479 -415467818 -873940030 1564754001 -1088264003 -1695685942 1593989279 -1475691699 504378489 383975201 1902726785 617054062 1859596839 -1973160485 -1376450483 427587893 1968864079 -1489531252 824319997 -1812061557
REM
CELL 1.54180   50.00000   50.00000   50.00000   90.00000   90.00000   90.00000
LATT -1
SFAC C  
C      1  0.5189410000000  0.5133180000000  0.4776650000000 1.0
C      1  0.5213950000000  0.4900250000000  0.5219350000000 1.0
C      1  0.5022050000000  0.4775780000000  0.4773790000000 1.0
C      1  0.4820760000000  0.4866440000000  0.5223350000000 1.0
C      1  0.4796230000000  0.5099370000000  0.4780650000000 1.0
C      1  0.4988120000000  0.5223840000000  0.5226210000000 1.0
C      1  0.4859570000000  0.5360220000000  0.4600620000000 1.0
C      1  0.5246690000000  0.5294020000000  0.5407000000000 1.0
C      1  0.5378440000000  0.4949780000000  0.4589290000000 1.0
C      1  0.5150610000000  0.4639400000000  0.5399380000000 1.0
C      1  0.4763480000000  0.4705600000000  0.4593000000000 1.0
C      1  0.4631730000000  0.5049830000000  0.5410710000000 1.0
C      1  0.4657100000000  0.4731890000000  0.4964400000000 1.0
C      1  0.4599310000000  0.5166110000000  0.5042770000000 1.0
C      1  0.4946080000000  0.5435460000000  0.4970490000000 1.0
C      1  0.5353080000000  0.5267720000000  0.5035600000000 1.0
C      1  0.5410870000000  0.4833510000000  0.4957230000000 1.0
C      1  0.5064100000000  0.4564160000000  0.5029510000000 1.0
C      1  0.4517550000000  0.5127450000000  0.4440760000000 1.0
C      1  0.4875010000000  0.5469020000000  0.5574160000000 1.0
C      1  0.5343340000000  0.5363960000000  0.4434570000000 1.0
C      1  0.5492630000000  0.4872170000000  0.5559240000000 1.0
C      1  0.5135160000000  0.4530600000000  0.4425840000000 1.0
C      1  0.4666840000000  0.4635660000000  0.5565430000000 1.0
C      1  0.5416100000000  0.4576220000000  0.5530610000000 1.0
C      1  0.4840750000000  0.4448100000000  0.4453640000000 1.0
C      1  0.4448080000000  0.4850120000000  0.5545200000000 1.0
C      1  0.4594070000000  0.5423390000000  0.4469390000000 1.0
C      1  0.5169430000000  0.5551520000000  0.5546360000000 1.0
C      1  0.5562090000000  0.5149500000000  0.4454800000000 1.0
C      1  0.4379970000000  0.4444490000000  0.4919190000000 1.0
C      1  0.4212120000000  0.5261040000000  0.5092940000000 1.0
C      1  0.4834500000000  0.5819570000000  0.4932330000000 1.0
C      1  0.5630200000000  0.5555130000000  0.5080810000000 1.0
C      1  0.5798060000000  0.4738580000000  0.4907060000000 1.0
C      1  0.5175670000000  0.4180050000000  0.5067670000000 1.0
C      1  0.4364940000000  0.5064150000000  0.4683240000000 1.0
C      1  0.4742590000000  0.5576700000000  0.5335490000000 1.0
C      1  0.5371720000000  0.5525310000000  0.4677980000000 1.0
C      1  0.5645240000000  0.4935470000000  0.5316760000000 1.0
C      1  0.5267590000000  0.4422910000000  0.4664510000000 1.0
C      1  0.4638460000000  0.4474300000000  0.5322020000000 1.0
C      1  0.4219970000000  0.4955340000000  0.5111330000000 1.0
C      1  0.4573560000000  0.5660540000000  0.4910620000000 1.0
C      1  0.5362170000000  0.5700900000000  0.5108320000000 1.0
C      1  0.5790200000000  0.5044270000000  0.4888670000000 1.0
C      1  0.5436610000000  0.4339070000000  0.5089380000000 1.0
C      1  0.4648000000000  0.4298710000000  0.4891680000000 1.0
C      1  0.5758630000000  0.5242310000000  0.4666710000000 1.0
C      1  0.5593560000000  0.4458770000000  0.5314140000000 1.0
C      1  0.4828900000000  0.4229350000000  0.4663770000000 1.0
C      1  0.4251550000000  0.4757310000000  0.5333290000000 1.0
C      1  0.4416610000000  0.5540850000000  0.4685860000000 1.0
C      1  0.5181280000000  0.5770270000000  0.5336230000000 1.0
C      1  0.4728520000000  0.4920710000000  0.4382780000000 1.0
C      1  0.4801710000000  0.5181350000000  0.5624010000000 1.0
C      1  0.5057280000000  0.5285130000000  0.4383910000000 1.0
C      1  0.5281660000000  0.5078910000000  0.5617220000000 1.0
C      1  0.5208460000000  0.4818270000000  0.4375990000000 1.0
C      1  0.4952900000000  0.4714480000000  0.5616090000000 1.0
C      1  0.4830530000000  0.4354320000000  0.5119470000000 1.0
C      1  0.4358130000000  0.4831900000000  0.4879010000000 1.0
C      1  0.4536960000000  0.5472350000000  0.5137650000000 1.0
C      1  0.5179640000000  0.5645290000000  0.4880530000000 1.0
C      1  0.5652050000000  0.5167720000000  0.5120990000000 1.0
C      1  0.5473220000000  0.4527260000000  0.4862350000000 1.0
C      1  0.5752760000000  0.4692210000000  0.5200710000000 1.0
C      1  0.5111270000000  0.4204830000000  0.4774970000000 1.0
C      1  0.4370840000000  0.4503920000000  0.5213840000000 1.0
C      1  0.4257420000000  0.5307400000000  0.4799290000000 1.0
C      1  0.4898910000000  0.5794790000000  0.5225030000000 1.0
C      1  0.5639340000000  0.5495700000000  0.4786160000000 1.0
C      1  0.4997000000000  0.5009310000000  0.4285190000000 1.0
C      1  0.5013170000000  0.4990310000000  0.5714810000000 1.0
END
