TITL C-3577083-591-306 -0.0357616189447747 125000 -487.369061900719 0 0 82 (C1) n - 1
REM
REM in /home/bkarasulu/work/CARBON/AIRSS/Generating-Clusters/EDIP-Nigel-Params/with-SteepDescent/Higher-Symm/SD-CG/HFTN-CG
REM
REM
REM
REM
REM
REM ./C.cell (12c818d87b63d06a65506943cc24bca4)
REM
REM compiler GCC version 9.2.1 20190827 (Red Hat 9.2.1-1)
REM options -cpp -mtune=generic -march=x86-64 -g -O0 -fpre-include=/usr/include/finclude/math-vector-fortran.h
REM seed 722364586 -2029907426 1379410137 1363806056 -1193776013 -1820880050 885530343 -245998267 -1398138077 -1089511293 2141433790 -370083370 -1667084931 1880988913 -2147290034 -441325157 2110164745 -1724488769 1770623376 -1843549163 624304551 -1785252450 1304801845 -793343786 1494964515 516021653 514367584 -507710322 -1718751845 96721418 -1603769465 -300291637 1846554318
REM
CELL 1.54180   50.00000   50.00000   50.00000   90.00000   90.00000   90.00000
LATT -1
SFAC C  
C      1  0.4652050000000  0.4640570000000  0.4464330000000 1.0
C      1  0.5416830000000  0.4640950000000  0.4516070000000 1.0
C      1  0.5603360000000  0.4618790000000  0.5266340000000 1.0
C      1  0.4946970000000  0.4621720000000  0.5675630000000 1.0
C      1  0.4355940000000  0.4620350000000  0.5163610000000 1.0
C      1  0.4826270000000  0.5686910000000  0.4551930000000 1.0
C      1  0.5353280000000  0.5695610000000  0.4728640000000 1.0
C      1  0.5449340000000  0.5713060000000  0.5194830000000 1.0
C      1  0.4890690000000  0.5623240000000  0.5404870000000 1.0
C      1  0.4542300000000  0.5672860000000  0.4999880000000 1.0
C      1  0.4557570000000  0.5738800000000  0.4619950000000 1.0
C      1  0.5198590000000  0.5758520000000  0.4492820000000 1.0
C      1  0.5696340000000  0.5735870000000  0.5056260000000 1.0
C      1  0.5086980000000  0.5742620000000  0.5569130000000 1.0
C      1  0.4604330000000  0.5720240000000  0.5279110000000 1.0
C      1  0.5377170000000  0.4873640000000  0.5751760000000 1.0
C      1  0.4402250000000  0.4859730000000  0.5603060000000 1.0
C      1  0.4242660000000  0.4857220000000  0.4632120000000 1.0
C      1  0.5120180000000  0.4896070000000  0.4204720000000 1.0
C      1  0.5805490000000  0.4882870000000  0.4890500000000 1.0
C      1  0.5371180000000  0.5127650000000  0.4779140000000 1.0
C      1  0.5349850000000  0.5113820000000  0.5314260000000 1.0
C      1  0.4796620000000  0.5117180000000  0.5485490000000 1.0
C      1  0.4416930000000  0.5162230000000  0.4961550000000 1.0
C      1  0.4865360000000  0.5144720000000  0.4533420000000 1.0
C      1  0.4748230000000  0.5404170000000  0.5547250000000 1.0
C      1  0.4377890000000  0.5454770000000  0.4906610000000 1.0
C      1  0.4908490000000  0.5430420000000  0.4449970000000 1.0
C      1  0.5518540000000  0.5442990000000  0.4712020000000 1.0
C      1  0.5448940000000  0.5481140000000  0.5381870000000 1.0
C      1  0.5172060000000  0.5506210000000  0.4340650000000 1.0
C      1  0.5723510000000  0.5479680000000  0.4939190000000 1.0
C      1  0.5268400000000  0.5529740000000  0.5616520000000 1.0
C      1  0.4472390000000  0.5495850000000  0.5462460000000 1.0
C      1  0.4364400000000  0.5516300000000  0.4623490000000 1.0
C      1  0.4314570000000  0.5285530000000  0.5357140000000 1.0
C      1  0.4386580000000  0.5296100000000  0.4449270000000 1.0
C      1  0.5392770000000  0.5321280000000  0.4369260000000 1.0
C      1  0.5707630000000  0.5293270000000  0.5159950000000 1.0
C      1  0.5177860000000  0.5312460000000  0.5775500000000 1.0
C      1  0.4881220000000  0.4865610000000  0.5849240000000 1.0
C      1  0.4160790000000  0.4853510000000  0.5152750000000 1.0
C      1  0.4596070000000  0.4870140000000  0.4277270000000 1.0
C      1  0.5583340000000  0.4873360000000  0.4417000000000 1.0
C      1  0.5752560000000  0.4856550000000  0.5389880000000 1.0
C      1  0.4350630000000  0.5021690000000  0.4393500000000 1.0
C      1  0.5399960000000  0.5053140000000  0.4244150000000 1.0
C      1  0.5853020000000  0.5036870000000  0.5156360000000 1.0
C      1  0.5156560000000  0.5044070000000  0.5877880000000 1.0
C      1  0.4216540000000  0.5023330000000  0.5408630000000 1.0
C      1  0.5548830000000  0.5021400000000  0.5541570000000 1.0
C      1  0.4645990000000  0.5011780000000  0.5726490000000 1.0
C      1  0.4167530000000  0.5011180000000  0.4886120000000 1.0
C      1  0.4845030000000  0.5039470000000  0.4249610000000 1.0
C      1  0.5662810000000  0.5035550000000  0.4659270000000 1.0
C      1  0.5468240000000  0.4564470000000  0.4782310000000 1.0
C      1  0.5355630000000  0.4565610000000  0.5389860000000 1.0
C      1  0.4753600000000  0.4559950000000  0.5480790000000 1.0
C      1  0.4477700000000  0.4559310000000  0.4920640000000 1.0
C      1  0.4922450000000  0.4577770000000  0.4498900000000 1.0
C      1  0.4645670000000  0.5023260000000  0.4781250000000 1.0
C      1  0.5115660000000  0.5009750000000  0.4640530000000 1.0
C      1  0.5384500000000  0.4978190000000  0.5037980000000 1.0
C      1  0.5087150000000  0.4997230000000  0.5409140000000 1.0
C      1  0.4633080000000  0.5010770000000  0.5252950000000 1.0
C      1  0.4514210000000  0.4747750000000  0.4706500000000 1.0
C      1  0.5144090000000  0.4759660000000  0.4474140000000 1.0
C      1  0.5560710000000  0.4738010000000  0.4994400000000 1.0
C      1  0.5189900000000  0.4742860000000  0.5548870000000 1.0
C      1  0.4547670000000  0.4729010000000  0.5366700000000 1.0
C      1  0.5064430000000  0.5946110000000  0.5019010000000 1.0
C      1  0.4945550000000  0.4720640000000  0.5011880000000 1.0
C      1  0.4987900000000  0.4456010000000  0.5023130000000 1.0
C      1  0.4952820000000  0.6177570000000  0.5021070000000 1.0
C      1  0.5005890000000  0.5206560000000  0.5025090000000 1.0
C      1  0.5049250000000  0.3930890000000  0.5005430000000 1.0
C      1  0.5080170000000  0.3668980000000  0.4997250000000 1.0
C      1  0.5111980000000  0.3415300000000  0.4993020000000 1.0
C      1  0.5223870000000  0.5710650000000  0.4997300000000 1.0
C      1  0.5067210000000  0.5470640000000  0.5030640000000 1.0
C      1  0.5015760000000  0.4192600000000  0.5008480000000 1.0
C      1  0.4825410000000  0.4982680000000  0.5017670000000 1.0
END
