TITL C-3577090-796-571 -1.55765719110706e-06 125000 -630.593956474143 0 0 100 (C1) n - 1
REM
REM in /home/bkarasulu/work/CARBON/AIRSS/Generating-Clusters/EDIP-Nigel-Params/with-SteepDescent/Higher-Symm/SD-CG/HFTN-CG
REM
REM
REM
REM
REM
REM ./C.cell (12c818d87b63d06a65506943cc24bca4)
REM
REM compiler GCC version 9.2.1 20190827 (Red Hat 9.2.1-1)
REM options -cpp -mtune=generic -march=x86-64 -g -O0 -fpre-include=/usr/include/finclude/math-vector-fortran.h
REM seed 1265245956 -2099724367 2067567368 893869554 1803990473 -687705531 1210002015 532148085 -307884987 1045632672 25983209 -122643525 -1478329274 -1097627970 -569165255 -1033693240 -361907363 1214527026 -2042597762 1194455921 -1890153269 -1525101549 438702369 -91592807 -1320416524 -416024824 -1642041418 -923360235 1000700580 150025972 1407798326 955691980 -226944069
REM
CELL 1.54180   50.00000   50.00000   50.00000   90.00000   90.00000   90.00000
LATT -1
SFAC C  
C      1  0.5521500000000  0.5483960000000  0.5312800000000 1.0
C      1  0.4712610000000  0.5626340000000  0.5319420000000 1.0
C      1  0.4375340000000  0.4930160000000  0.5312000000000 1.0
C      1  0.4866460000000  0.4333970000000  0.5322950000000 1.0
C      1  0.5581240000000  0.4671480000000  0.5320960000000 1.0
C      1  0.5555200000000  0.4505600000000  0.5081020000000 1.0
C      1  0.5652110000000  0.5380870000000  0.5069840000000 1.0
C      1  0.4830790000000  0.5729500000000  0.5072310000000 1.0
C      1  0.4269020000000  0.5075200000000  0.5080650000000 1.0
C      1  0.4706350000000  0.4312620000000  0.5077470000000 1.0
C      1  0.5235350000000  0.4912970000000  0.5909680000000 1.0
C      1  0.5136390000000  0.5197660000000  0.5860350000000 1.0
C      1  0.4842330000000  0.5214650000000  0.5933730000000 1.0
C      1  0.4748650000000  0.4923740000000  0.5920950000000 1.0
C      1  0.4988050000000  0.4755500000000  0.5867540000000 1.0
C      1  0.5155490000000  0.5637370000000  0.5573210000000 1.0
C      1  0.4477550000000  0.5328450000000  0.5586110000000 1.0
C      1  0.4506790000000  0.4568030000000  0.5598350000000 1.0
C      1  0.5237450000000  0.4406720000000  0.5598610000000 1.0
C      1  0.5614730000000  0.5060840000000  0.5581300000000 1.0
C      1  0.5063100000000  0.4714310000000  0.5433170000000 1.0
C      1  0.5270200000000  0.4969040000000  0.5424430000000 1.0
C      1  0.5100290000000  0.5203190000000  0.5539110000000 1.0
C      1  0.4797490000000  0.5157700000000  0.5442370000000 1.0
C      1  0.4770880000000  0.4838360000000  0.5492230000000 1.0
C      1  0.4868570000000  0.5577680000000  0.5561670000000 1.0
C      1  0.4388610000000  0.5046110000000  0.5576760000000 1.0
C      1  0.4761670000000  0.4405260000000  0.5588740000000 1.0
C      1  0.5464580000000  0.4605060000000  0.5581770000000 1.0
C      1  0.5549690000000  0.5356930000000  0.5575300000000 1.0
C      1  0.5834170000000  0.4860880000000  0.4710900000000 1.0
C      1  0.5392910000000  0.5745890000000  0.4726650000000 1.0
C      1  0.4396030000000  0.5604640000000  0.4707170000000 1.0
C      1  0.4243140000000  0.4611600000000  0.4712660000000 1.0
C      1  0.5129350000000  0.4161320000000  0.4713790000000 1.0
C      1  0.4831100000000  0.5205140000000  0.5116550000000 1.0
C      1  0.4757400000000  0.4911680000000  0.5089610000000 1.0
C      1  0.5011170000000  0.4754530000000  0.5108720000000 1.0
C      1  0.5239510000000  0.4962540000000  0.5109060000000 1.0
C      1  0.5121250000000  0.5220450000000  0.5079520000000 1.0
C      1  0.5678360000000  0.5035740000000  0.4521160000000 1.0
C      1  0.5173350000000  0.5660810000000  0.4528460000000 1.0
C      1  0.4425430000000  0.5371990000000  0.4519660000000 1.0
C      1  0.4469850000000  0.4565900000000  0.4519740000000 1.0
C      1  0.5245440000000  0.4364520000000  0.4525260000000 1.0
C      1  0.5305650000000  0.5694690000000  0.5313100000000 1.0
C      1  0.4461070000000  0.5480740000000  0.5326020000000 1.0
C      1  0.4409360000000  0.4644180000000  0.5323430000000 1.0
C      1  0.5153120000000  0.4296580000000  0.5330080000000 1.0
C      1  0.5699240000000  0.4936930000000  0.5323200000000 1.0
C      1  0.4765640000000  0.4881900000000  0.4604810000000 1.0
C      1  0.5037090000000  0.4741870000000  0.4610620000000 1.0
C      1  0.5253180000000  0.4955020000000  0.4604010000000 1.0
C      1  0.5115210000000  0.5226560000000  0.4593950000000 1.0
C      1  0.4813620000000  0.5183610000000  0.4605930000000 1.0
C      1  0.5603490000000  0.4648410000000  0.4812030000000 1.0
C      1  0.5524250000000  0.5457870000000  0.4803530000000 1.0
C      1  0.4706810000000  0.5645140000000  0.4804990000000 1.0
C      1  0.4302560000000  0.4933560000000  0.4809850000000 1.0
C      1  0.4857810000000  0.4315660000000  0.4810390000000 1.0
C      1  0.4986670000000  0.4469550000000  0.5779640000000 1.0
C      1  0.5490160000000  0.4835550000000  0.5771540000000 1.0
C      1  0.5321980000000  0.5453660000000  0.5745320000000 1.0
C      1  0.4705250000000  0.5429170000000  0.5769470000000 1.0
C      1  0.4493520000000  0.4841790000000  0.5773100000000 1.0
C      1  0.5550370000000  0.4893380000000  0.4296250000000 1.0
C      1  0.5271610000000  0.5498120000000  0.4298440000000 1.0
C      1  0.4618230000000  0.5412800000000  0.4298040000000 1.0
C      1  0.4490680000000  0.4763060000000  0.4297720000000 1.0
C      1  0.5067930000000  0.4447250000000  0.4301520000000 1.0
C      1  0.5513000000000  0.4488330000000  0.4560730000000 1.0
C      1  0.5649950000000  0.5329860000000  0.4552340000000 1.0
C      1  0.4881890000000  0.5717480000000  0.4558420000000 1.0
C      1  0.4281860000000  0.5114050000000  0.4556920000000 1.0
C      1  0.4676820000000  0.4355370000000  0.4558040000000 1.0
C      1  0.4372230000000  0.5356220000000  0.5067780000000 1.0
C      1  0.4484100000000  0.4513910000000  0.5063720000000 1.0
C      1  0.5299700000000  0.4346780000000  0.5072170000000 1.0
C      1  0.5711260000000  0.5085950000000  0.5065430000000 1.0
C      1  0.5121540000000  0.5662060000000  0.5064480000000 1.0
C      1  0.4820840000000  0.4317640000000  0.4321150000000 1.0
C      1  0.5590330000000  0.4618580000000  0.4325380000000 1.0
C      1  0.5546010000000  0.5449530000000  0.4322150000000 1.0
C      1  0.4744500000000  0.5661350000000  0.4321270000000 1.0
C      1  0.4293730000000  0.4959800000000  0.4323940000000 1.0
C      1  0.4248740000000  0.4423000000000  0.4922040000000 1.0
C      1  0.5314300000000  0.4102890000000  0.4917970000000 1.0
C      1  0.5948720000000  0.5014800000000  0.4916920000000 1.0
C      1  0.5288980000000  0.5874400000000  0.4963450000000 1.0
C      1  0.4213510000000  0.5541180000000  0.4912580000000 1.0
C      1  0.5265780000000  0.4963100000000  0.4208750000000 1.0
C      1  0.5121430000000  0.5247540000000  0.4199860000000 1.0
C      1  0.4808980000000  0.5192200000000  0.4207960000000 1.0
C      1  0.4761020000000  0.4879020000000  0.4207020000000 1.0
C      1  0.5043200000000  0.4738850000000  0.4209620000000 1.0
C      1  0.5425770000000  0.4914710000000  0.4861710000000 1.0
C      1  0.5219310000000  0.5360740000000  0.4845180000000 1.0
C      1  0.4701500000000  0.5330000000000  0.4860620000000 1.0
C      1  0.4598430000000  0.4820790000000  0.4855010000000 1.0
C      1  0.5051170000000  0.4565900000000  0.4866740000000 1.0
END
