TITL C-3577081-279-8 -2.87803030008629e-06 125000 -1111.13309208568 0 0 179 (C1) n - 1
REM
REM in /home/bkarasulu/work/CARBON/AIRSS/Generating-Clusters/EDIP-Nigel-Params/with-SteepDescent/Higher-Symm/SD-CG/HFTN-CG
REM
REM
REM
REM
REM
REM ./C.cell (12c818d87b63d06a65506943cc24bca4)
REM
REM compiler GCC version 9.2.1 20190827 (Red Hat 9.2.1-1)
REM options -cpp -mtune=generic -march=x86-64 -g -O0 -fpre-include=/usr/include/finclude/math-vector-fortran.h
REM seed 870647925 -296482739 341024985 -2009161295 779399168 1264940331 1084324501 621653323 998016083 -1375452951 2046860117 1694019024 -1914997671 -243585476 -1602205315 -266614930 -1045648580 1109288499 645524875 1121963561 851375573 806357902 1291197869 1629064018 -1823411661 -332784552 1532380517 1387066159 -1911154824 1913696711 567051915 848417346 -1180337162
REM
CELL 1.54180   50.00000   50.00000   50.00000   90.00000   90.00000   90.00000
LATT -1
SFAC C  
C      1  0.5980990000000  0.5000990000000  0.4523060000000 1.0
C      1  0.5112010000000  0.4898200000000  0.4935350000000 1.0
C      1  0.4225080000000  0.4746620000000  0.5567700000000 1.0
C      1  0.4983480000000  0.5775900000000  0.4921120000000 1.0
C      1  0.6003480000000  0.5165890000000  0.5030010000000 1.0
C      1  0.5184400000000  0.6073390000000  0.5217800000000 1.0
C      1  0.4732020000000  0.5336350000000  0.4926530000000 1.0
C      1  0.4757680000000  0.4966360000000  0.4524040000000 1.0
C      1  0.4476970000000  0.5278860000000  0.5585320000000 1.0
C      1  0.4677370000000  0.4505510000000  0.5210620000000 1.0
C      1  0.4088510000000  0.4446490000000  0.5074610000000 1.0
C      1  0.5156600000000  0.4526030000000  0.4573380000000 1.0
C      1  0.4976180000000  0.5105170000000  0.5293380000000 1.0
C      1  0.5772860000000  0.4193120000000  0.5250220000000 1.0
C      1  0.4634950000000  0.4236550000000  0.4643370000000 1.0
C      1  0.5125610000000  0.5956320000000  0.4741960000000 1.0
C      1  0.5297590000000  0.4510980000000  0.4027510000000 1.0
C      1  0.5013540000000  0.3947870000000  0.4647330000000 1.0
C      1  0.5404610000000  0.5867150000000  0.5120980000000 1.0
C      1  0.5157370000000  0.5171900000000  0.6015160000000 1.0
C      1  0.4719300000000  0.5724190000000  0.5897070000000 1.0
C      1  0.5100950000000  0.5404560000000  0.5596880000000 1.0
C      1  0.4996530000000  0.5729900000000  0.5918950000000 1.0
C      1  0.4267510000000  0.5876250000000  0.4796610000000 1.0
C      1  0.5792140000000  0.5332160000000  0.4457080000000 1.0
C      1  0.5290180000000  0.4355040000000  0.4804650000000 1.0
C      1  0.5829550000000  0.5891830000000  0.4814070000000 1.0
C      1  0.4957540000000  0.4306920000000  0.5781350000000 1.0
C      1  0.4032660000000  0.5212680000000  0.4499330000000 1.0
C      1  0.4159260000000  0.4908090000000  0.4158550000000 1.0
C      1  0.4262820000000  0.5119470000000  0.4334710000000 1.0
C      1  0.4901010000000  0.3935660000000  0.4922660000000 1.0
C      1  0.5772700000000  0.4244960000000  0.4748910000000 1.0
C      1  0.5728510000000  0.5453710000000  0.5709580000000 1.0
C      1  0.5690900000000  0.4880620000000  0.4090030000000 1.0
C      1  0.4637430000000  0.4078320000000  0.4907870000000 1.0
C      1  0.4079260000000  0.4461000000000  0.4777970000000 1.0
C      1  0.5836900000000  0.4669690000000  0.5201000000000 1.0
C      1  0.4525780000000  0.5673290000000  0.4216990000000 1.0
C      1  0.5117530000000  0.3996430000000  0.5114860000000 1.0
C      1  0.5719320000000  0.4251930000000  0.4453480000000 1.0
C      1  0.3941020000000  0.5096390000000  0.4997650000000 1.0
C      1  0.5374030000000  0.3957510000000  0.4972250000000 1.0
C      1  0.5552020000000  0.4992900000000  0.5890430000000 1.0
C      1  0.4078340000000  0.5000000000000  0.5613640000000 1.0
C      1  0.5362780000000  0.5820360000000  0.5606560000000 1.0
C      1  0.5174930000000  0.4199710000000  0.5619420000000 1.0
C      1  0.5011170000000  0.5484900000000  0.4058930000000 1.0
C      1  0.4786820000000  0.5366970000000  0.5221750000000 1.0
C      1  0.4371120000000  0.4548250000000  0.4361680000000 1.0
C      1  0.5278940000000  0.5198040000000  0.5205100000000 1.0
C      1  0.4097970000000  0.4667250000000  0.4337640000000 1.0
C      1  0.4430220000000  0.4044880000000  0.5126590000000 1.0
C      1  0.5347460000000  0.5409990000000  0.5991770000000 1.0
C      1  0.3986040000000  0.4707310000000  0.4620900000000 1.0
C      1  0.4394640000000  0.5043140000000  0.6029810000000 1.0
C      1  0.4268470000000  0.5455950000000  0.4943850000000 1.0
C      1  0.4091340000000  0.5745780000000  0.5325550000000 1.0
C      1  0.4820530000000  0.5569310000000  0.4771890000000 1.0
C      1  0.4818850000000  0.5263880000000  0.4130820000000 1.0
C      1  0.5554280000000  0.5766210000000  0.5379080000000 1.0
C      1  0.5308670000000  0.3995250000000  0.4668280000000 1.0
C      1  0.5551160000000  0.5912690000000  0.4836650000000 1.0
C      1  0.4617730000000  0.5866740000000  0.4409340000000 1.0
C      1  0.5008300000000  0.4907510000000  0.3959080000000 1.0
C      1  0.4716760000000  0.5102850000000  0.5735600000000 1.0
C      1  0.5024670000000  0.4621710000000  0.3944360000000 1.0
C      1  0.4251430000000  0.5183700000000  0.5782480000000 1.0
C      1  0.5674820000000  0.4267290000000  0.5507900000000 1.0
C      1  0.5762560000000  0.4569330000000  0.4442920000000 1.0
C      1  0.4381530000000  0.4289090000000  0.4504940000000 1.0
C      1  0.4042360000000  0.5002910000000  0.4726480000000 1.0
C      1  0.5959200000000  0.4403070000000  0.5139710000000 1.0
C      1  0.3993960000000  0.5467030000000  0.5294590000000 1.0
C      1  0.4253700000000  0.4306140000000  0.5522460000000 1.0
C      1  0.6108390000000  0.5199730000000  0.4733770000000 1.0
C      1  0.5165110000000  0.4866530000000  0.5614470000000 1.0
C      1  0.5437430000000  0.4318360000000  0.5654400000000 1.0
C      1  0.5245630000000  0.4284580000000  0.4218740000000 1.0
C      1  0.4566780000000  0.4643800000000  0.4158650000000 1.0
C      1  0.5740860000000  0.5538000000000  0.5440390000000 1.0
C      1  0.4450820000000  0.5234240000000  0.4887290000000 1.0
C      1  0.5222040000000  0.5012660000000  0.4676470000000 1.0
C      1  0.4959570000000  0.4291970000000  0.4270150000000 1.0
C      1  0.4879480000000  0.5831460000000  0.5431220000000 1.0
C      1  0.4143400000000  0.4225420000000  0.4638920000000 1.0
C      1  0.4842720000000  0.4116930000000  0.4472610000000 1.0
C      1  0.5977530000000  0.5164150000000  0.5486200000000 1.0
C      1  0.5672220000000  0.4917430000000  0.4818780000000 1.0
C      1  0.4522400000000  0.4775250000000  0.5654550000000 1.0
C      1  0.5282730000000  0.5396970000000  0.4976620000000 1.0
C      1  0.4977100000000  0.5445330000000  0.4548490000000 1.0
C      1  0.5231880000000  0.4668670000000  0.5942410000000 1.0
C      1  0.4293790000000  0.4287210000000  0.5229390000000 1.0
C      1  0.4942720000000  0.5540880000000  0.5398170000000 1.0
C      1  0.5597070000000  0.4689710000000  0.4997340000000 1.0
C      1  0.5637230000000  0.5449260000000  0.4854940000000 1.0
C      1  0.4967360000000  0.4744460000000  0.5440620000000 1.0
C      1  0.3986180000000  0.5381460000000  0.5024840000000 1.0
C      1  0.4421060000000  0.5152890000000  0.5323360000000 1.0
C      1  0.4474560000000  0.5588600000000  0.5485100000000 1.0
C      1  0.5175820000000  0.4433550000000  0.5076350000000 1.0
C      1  0.5230410000000  0.5388810000000  0.3916010000000 1.0
C      1  0.5124540000000  0.5883860000000  0.4310370000000 1.0
C      1  0.5036500000000  0.5138800000000  0.5730410000000 1.0
C      1  0.4478240000000  0.5611320000000  0.5164890000000 1.0
C      1  0.5138980000000  0.5992130000000  0.5505470000000 1.0
C      1  0.4715840000000  0.4173020000000  0.5704150000000 1.0
C      1  0.4122250000000  0.5103720000000  0.5327120000000 1.0
C      1  0.5643940000000  0.5171700000000  0.4070620000000 1.0
C      1  0.4976670000000  0.4519890000000  0.5983460000000 1.0
C      1  0.5217870000000  0.5600850000000  0.5786920000000 1.0
C      1  0.5563850000000  0.4446820000000  0.4822660000000 1.0
C      1  0.4879440000000  0.4356910000000  0.5027860000000 1.0
C      1  0.4499000000000  0.5997000000000  0.4654720000000 1.0
C      1  0.4560770000000  0.3900460000000  0.5327240000000 1.0
C      1  0.5976080000000  0.5403950000000  0.5305680000000 1.0
C      1  0.5100970000000  0.5599900000000  0.4312620000000 1.0
C      1  0.5476270000000  0.5474770000000  0.4579720000000 1.0
C      1  0.5930800000000  0.4658230000000  0.4695650000000 1.0
C      1  0.4870440000000  0.5981360000000  0.5118460000000 1.0
C      1  0.4527690000000  0.5399160000000  0.4117900000000 1.0
C      1  0.4630040000000  0.5817720000000  0.5628880000000 1.0
C      1  0.4596460000000  0.5494800000000  0.5997310000000 1.0
C      1  0.5297780000000  0.4719060000000  0.5114250000000 1.0
C      1  0.4416060000000  0.4861320000000  0.4005750000000 1.0
C      1  0.4883090000000  0.4517800000000  0.4752730000000 1.0
C      1  0.6156330000000  0.4960610000000  0.5402690000000 1.0
C      1  0.5826990000000  0.5358780000000  0.4174100000000 1.0
C      1  0.4694460000000  0.6140060000000  0.4817490000000 1.0
C      1  0.4817310000000  0.4492760000000  0.4105390000000 1.0
C      1  0.5621820000000  0.4014190000000  0.5091900000000 1.0
C      1  0.5884780000000  0.5620570000000  0.4842650000000 1.0
C      1  0.5202430000000  0.5658140000000  0.5061780000000 1.0
C      1  0.5356980000000  0.5214040000000  0.4098150000000 1.0
C      1  0.4726120000000  0.4566350000000  0.5513500000000 1.0
C      1  0.5484510000000  0.4930710000000  0.4606260000000 1.0
C      1  0.4750130000000  0.4662880000000  0.6066670000000 1.0
C      1  0.4306740000000  0.5867410000000  0.5105120000000 1.0
C      1  0.4928850000000  0.6154800000000  0.4641570000000 1.0
C      1  0.4446880000000  0.4909160000000  0.4494350000000 1.0
C      1  0.6054060000000  0.4886210000000  0.5153340000000 1.0
C      1  0.5712130000000  0.5177790000000  0.4978440000000 1.0
C      1  0.4246090000000  0.5750330000000  0.5572100000000 1.0
C      1  0.5431300000000  0.4171080000000  0.4428050000000 1.0
C      1  0.4028460000000  0.5492170000000  0.4541460000000 1.0
C      1  0.6016440000000  0.5462900000000  0.4627950000000 1.0
C      1  0.4130440000000  0.4723570000000  0.5134430000000 1.0
C      1  0.4364690000000  0.4773240000000  0.4968390000000 1.0
C      1  0.4773330000000  0.4005620000000  0.5476720000000 1.0
C      1  0.5057920000000  0.4021380000000  0.5406920000000 1.0
C      1  0.5423370000000  0.4749460000000  0.4166110000000 1.0
C      1  0.4655880000000  0.4963680000000  0.5293300000000 1.0
C      1  0.4874980000000  0.6018490000000  0.4382260000000 1.0
C      1  0.5397270000000  0.5799810000000  0.4576450000000 1.0
C      1  0.5689940000000  0.5082720000000  0.5479600000000 1.0
C      1  0.4337760000000  0.4978400000000  0.4771190000000 1.0
C      1  0.5220230000000  0.5317100000000  0.4680270000000 1.0
C      1  0.4479880000000  0.4327800000000  0.5696960000000 1.0
C      1  0.5598170000000  0.5289730000000  0.5897570000000 1.0
C      1  0.5401930000000  0.4825300000000  0.5413470000000 1.0
C      1  0.5569560000000  0.5183810000000  0.5236060000000 1.0
C      1  0.5322060000000  0.4930660000000  0.6063160000000 1.0
C      1  0.5669610000000  0.4659160000000  0.5497290000000 1.0
C      1  0.4838400000000  0.4802090000000  0.4845110000000 1.0
C      1  0.5064420000000  0.4880570000000  0.4455150000000 1.0
C      1  0.4807910000000  0.5240170000000  0.4423390000000 1.0
C      1  0.6005480000000  0.4396690000000  0.4842750000000 1.0
C      1  0.5678480000000  0.4728920000000  0.5806220000000 1.0
C      1  0.4635990000000  0.5217660000000  0.6007680000000 1.0
C      1  0.4071270000000  0.4507420000000  0.5592250000000 1.0
C      1  0.5473770000000  0.4513530000000  0.5867490000000 1.0
C      1  0.4234840000000  0.5603050000000  0.4694930000000 1.0
C      1  0.5906130000000  0.4795890000000  0.4279070000000 1.0
C      1  0.4516050000000  0.4770900000000  0.5952330000000 1.0
C      1  0.4631210000000  0.4764710000000  0.5075880000000 1.0
C      1  0.5202770000000  0.4960410000000  0.4169320000000 1.0
C      1  0.4522910000000  0.5134830000000  0.3941000000000 1.0
C      1  0.5467780000000  0.4679010000000  0.4457060000000 1.0
END
