TITL C-3578207-9274-814 -2.77459787166831e-06 125000 -946.252775774016 0 0 152 (C1) n - 1
REM
REM in /home/bkarasulu/work/CARBON/AIRSS/Generating-Clusters/EDIP-Nigel-Params/with-SteepDescent/Higher-Symm/SD-CG/HFTN-CG
REM
REM
REM
REM
REM
REM ./C.cell (12c818d87b63d06a65506943cc24bca4)
REM
REM compiler GCC version 9.2.1 20190827 (Red Hat 9.2.1-1)
REM options -cpp -mtune=generic -march=x86-64 -g -O0 -fpre-include=/usr/include/finclude/math-vector-fortran.h
REM seed 160072948 768859332 -471931574 -313937961 1821067510 -92552500 -1809138315 1818308749 -1148549947 -553258988 -2145248717 -486988662 2076633292 1330859005 1269416564 354204722 125873651 1740933482 1778451981 1297635566 1497154736 343230852 -1370905137 -1482288292 1462433737 1578566938 58251896 -1692648572 1229625538 -119269967 -1611750790 -1191883357 1984202287
REM
CELL 1.54180   50.00000   50.00000   50.00000   90.00000   90.00000   90.00000
LATT -1
SFAC C  
C      1  0.4553390000000  0.4885670000000  0.5339730000000 1.0
C      1  0.5029980000000  0.4996840000000  0.5569090000000 1.0
C      1  0.5137080000000  0.4849300000000  0.5333090000000 1.0
C      1  0.5370270000000  0.4989990000000  0.5216910000000 1.0
C      1  0.5511550000000  0.4920090000000  0.4963810000000 1.0
C      1  0.5421760000000  0.4799410000000  0.4688290000000 1.0
C      1  0.5170990000000  0.4923870000000  0.4630450000000 1.0
C      1  0.4943890000000  0.4815920000000  0.4485670000000 1.0
C      1  0.4730710000000  0.4969680000000  0.4642380000000 1.0
C      1  0.4505040000000  0.4932020000000  0.4817660000000 1.0
C      1  0.4517030000000  0.4798680000000  0.5067770000000 1.0
C      1  0.5598240000000  0.4673630000000  0.5629820000000 1.0
C      1  0.5851570000000  0.4685520000000  0.5204820000000 1.0
C      1  0.5878630000000  0.4661220000000  0.4673450000000 1.0
C      1  0.5564960000000  0.4618440000000  0.4246180000000 1.0
C      1  0.5079290000000  0.4615140000000  0.4074590000000 1.0
C      1  0.4589760000000  0.4634770000000  0.4199950000000 1.0
C      1  0.4208600000000  0.4653090000000  0.4526300000000 1.0
C      1  0.4061340000000  0.4674010000000  0.5053750000000 1.0
C      1  0.4212740000000  0.4605630000000  0.5545620000000 1.0
C      1  0.4629770000000  0.4621000000000  0.5842980000000 1.0
C      1  0.5151010000000  0.4682240000000  0.5890660000000 1.0
C      1  0.4734070000000  0.5821690000000  0.4574640000000 1.0
C      1  0.4520160000000  0.5773780000000  0.4829070000000 1.0
C      1  0.4596940000000  0.5603120000000  0.5069000000000 1.0
C      1  0.4612460000000  0.5768230000000  0.5320720000000 1.0
C      1  0.4889950000000  0.5756370000000  0.5500070000000 1.0
C      1  0.5138270000000  0.5618050000000  0.5384190000000 1.0
C      1  0.5371880000000  0.5800040000000  0.5340050000000 1.0
C      1  0.5514000000000  0.5774230000000  0.5040200000000 1.0
C      1  0.5391640000000  0.5587960000000  0.4826860000000 1.0
C      1  0.5279290000000  0.5741400000000  0.4585130000000 1.0
C      1  0.4984720000000  0.5648260000000  0.4549070000000 1.0
C      1  0.4652990000000  0.4057360000000  0.4634980000000 1.0
C      1  0.4588920000000  0.3962990000000  0.4897940000000 1.0
C      1  0.4524100000000  0.4044760000000  0.5165940000000 1.0
C      1  0.4710120000000  0.3983520000000  0.5368730000000 1.0
C      1  0.4939660000000  0.4099400000000  0.5485000000000 1.0
C      1  0.5186470000000  0.4009280000000  0.5380700000000 1.0
C      1  0.5431700000000  0.4105380000000  0.5277110000000 1.0
C      1  0.5496100000000  0.4079920000000  0.4978060000000 1.0
C      1  0.5260890000000  0.3967160000000  0.4821360000000 1.0
C      1  0.5176680000000  0.4068010000000  0.4549100000000 1.0
C      1  0.4904980000000  0.3991910000000  0.4529530000000 1.0
C      1  0.5443830000000  0.4410000000000  0.5267540000000 1.0
C      1  0.5574420000000  0.4376370000000  0.4919450000000 1.0
C      1  0.5438470000000  0.4492460000000  0.4672110000000 1.0
C      1  0.5209560000000  0.4366630000000  0.4494700000000 1.0
C      1  0.4919320000000  0.4501560000000  0.4504920000000 1.0
C      1  0.4606260000000  0.4354080000000  0.4624090000000 1.0
C      1  0.4435870000000  0.4410150000000  0.4872030000000 1.0
C      1  0.4450620000000  0.4339680000000  0.5168050000000 1.0
C      1  0.4643650000000  0.4507850000000  0.5373590000000 1.0
C      1  0.4921030000000  0.4402060000000  0.5505580000000 1.0
C      1  0.5189650000000  0.4545420000000  0.5412740000000 1.0
C      1  0.4287050000000  0.5625000000000  0.4701860000000 1.0
C      1  0.4052780000000  0.5641370000000  0.5129060000000 1.0
C      1  0.4385960000000  0.5664080000000  0.5487780000000 1.0
C      1  0.4787990000000  0.5581500000000  0.5741280000000 1.0
C      1  0.5234700000000  0.5603850000000  0.5931710000000 1.0
C      1  0.5576320000000  0.5711300000000  0.5550130000000 1.0
C      1  0.5779770000000  0.5633240000000  0.5103230000000 1.0
C      1  0.5856820000000  0.5581280000000  0.4612240000000 1.0
C      1  0.5439250000000  0.5647240000000  0.4338770000000 1.0
C      1  0.5038880000000  0.5600850000000  0.4042320000000 1.0
C      1  0.4602880000000  0.5700650000000  0.4329570000000 1.0
C      1  0.4002940000000  0.5204110000000  0.4883650000000 1.0
C      1  0.4055150000000  0.5306240000000  0.5448550000000 1.0
C      1  0.4358730000000  0.5303660000000  0.5808510000000 1.0
C      1  0.4989420000000  0.5175960000000  0.6026220000000 1.0
C      1  0.5543150000000  0.5335700000000  0.5890030000000 1.0
C      1  0.5910710000000  0.5349290000000  0.5510950000000 1.0
C      1  0.6050850000000  0.5221670000000  0.4879180000000 1.0
C      1  0.5787380000000  0.5306900000000  0.4307960000000 1.0
C      1  0.5396310000000  0.5262890000000  0.4014920000000 1.0
C      1  0.4767060000000  0.5334150000000  0.3958390000000 1.0
C      1  0.4308480000000  0.5333100000000  0.4267890000000 1.0
C      1  0.4904370000000  0.4515140000000  0.5801320000000 1.0
C      1  0.5330950000000  0.4555920000000  0.5683120000000 1.0
C      1  0.5689150000000  0.4532320000000  0.5393220000000 1.0
C      1  0.5842980000000  0.4534730000000  0.4945190000000 1.0
C      1  0.5685990000000  0.4497890000000  0.4493760000000 1.0
C      1  0.5306130000000  0.4463100000000  0.4208990000000 1.0
C      1  0.4846500000000  0.4483300000000  0.4205670000000 1.0
C      1  0.4427900000000  0.4489870000000  0.4402400000000 1.0
C      1  0.4191460000000  0.4555110000000  0.4806880000000 1.0
C      1  0.4162090000000  0.4482360000000  0.5275340000000 1.0
C      1  0.4473240000000  0.4489960000000  0.5624490000000 1.0
C      1  0.4778640000000  0.6210210000000  0.5351410000000 1.0
C      1  0.4972340000000  0.6058420000000  0.5501230000000 1.0
C      1  0.5255280000000  0.6080570000000  0.5382170000000 1.0
C      1  0.5230120000000  0.6166400000000  0.5096830000000 1.0
C      1  0.5450180000000  0.6063090000000  0.4918870000000 1.0
C      1  0.5319180000000  0.6036220000000  0.4641940000000 1.0
C      1  0.5074340000000  0.6173310000000  0.4602780000000 1.0
C      1  0.4799050000000  0.6118410000000  0.4580410000000 1.0
C      1  0.4633160000000  0.6240450000000  0.4773930000000 1.0
C      1  0.4496630000000  0.6058120000000  0.4942500000000 1.0
C      1  0.4570180000000  0.6052880000000  0.5236510000000 1.0
C      1  0.4208360000000  0.4944000000000  0.4486570000000 1.0
C      1  0.4031110000000  0.4974680000000  0.5100000000000 1.0
C      1  0.4287300000000  0.4894600000000  0.5514950000000 1.0
C      1  0.4578100000000  0.4901830000000  0.5908920000000 1.0
C      1  0.5164210000000  0.4992620000000  0.5841460000000 1.0
C      1  0.5600420000000  0.4971690000000  0.5592260000000 1.0
C      1  0.5995580000000  0.4928400000000  0.5299760000000 1.0
C      1  0.5876080000000  0.4973260000000  0.4643050000000 1.0
C      1  0.5521010000000  0.4897780000000  0.4356490000000 1.0
C      1  0.5042870000000  0.4905320000000  0.4167860000000 1.0
C      1  0.4602910000000  0.4946060000000  0.4224600000000 1.0
C      1  0.4327640000000  0.5056900000000  0.4250580000000 1.0
C      1  0.4027790000000  0.5107620000000  0.4619970000000 1.0
C      1  0.4067290000000  0.5040950000000  0.5378490000000 1.0
C      1  0.4354810000000  0.5025260000000  0.5780940000000 1.0
C      1  0.4741360000000  0.5054240000000  0.6075810000000 1.0
C      1  0.5464280000000  0.5072560000000  0.5835670000000 1.0
C      1  0.5880010000000  0.5070290000000  0.5529510000000 1.0
C      1  0.6125610000000  0.5097940000000  0.5120910000000 1.0
C      1  0.5785540000000  0.5035760000000  0.4369790000000 1.0
C      1  0.5316350000000  0.5049150000000  0.4181860000000 1.0
C      1  0.4794590000000  0.5050730000000  0.4016690000000 1.0
C      1  0.4937680000000  0.5352970000000  0.4548790000000 1.0
C      1  0.4640300000000  0.5219660000000  0.4508810000000 1.0
C      1  0.4388510000000  0.5207280000000  0.4798320000000 1.0
C      1  0.4457320000000  0.5343260000000  0.5116580000000 1.0
C      1  0.4642550000000  0.5171890000000  0.5318280000000 1.0
C      1  0.4880830000000  0.5229200000000  0.5489780000000 1.0
C      1  0.5237630000000  0.5374990000000  0.5515800000000 1.0
C      1  0.5436050000000  0.5228170000000  0.5351680000000 1.0
C      1  0.5671230000000  0.5133060000000  0.4840160000000 1.0
C      1  0.5473300000000  0.5326110000000  0.4687620000000 1.0
C      1  0.5201960000000  0.5203950000000  0.4580250000000 1.0
C      1  0.4369270000000  0.5555940000000  0.4423960000000 1.0
C      1  0.4078680000000  0.5506820000000  0.4884240000000 1.0
C      1  0.4222740000000  0.5486290000000  0.5303670000000 1.0
C      1  0.4493350000000  0.5537400000000  0.5728570000000 1.0
C      1  0.4978370000000  0.5476150000000  0.5952920000000 1.0
C      1  0.5408280000000  0.5518370000000  0.5727540000000 1.0
C      1  0.5799120000000  0.5582840000000  0.5398180000000 1.0
C      1  0.5924270000000  0.5495670000000  0.4877890000000 1.0
C      1  0.5639830000000  0.5470970000000  0.4473090000000 1.0
C      1  0.5287560000000  0.5491640000000  0.4138070000000 1.0
C      1  0.4790460000000  0.5527560000000  0.4169380000000 1.0
C      1  0.4933680000000  0.4704790000000  0.4935690000000 1.0
C      1  0.4925940000000  0.4203190000000  0.5052720000000 1.0
C      1  0.5006300000000  0.5739310000000  0.4981290000000 1.0
C      1  0.5005980000000  0.5454610000000  0.4996820000000 1.0
C      1  0.4973370000000  0.4441550000000  0.4939590000000 1.0
C      1  0.5026880000000  0.3954940000000  0.4982710000000 1.0
C      1  0.4966720000000  0.5179870000000  0.5017180000000 1.0
C      1  0.5003520000000  0.6015440000000  0.5013030000000 1.0
C      1  0.4941710000000  0.4910980000000  0.5122520000000 1.0
END
