TITL C-3577082-504-311 5.69030747921395e-07 125000 -329.251223902854 0 0 54 (Ci) n - 1
REM
REM in /home/bkarasulu/work/CARBON/AIRSS/Generating-Clusters/EDIP-Nigel-Params/with-SteepDescent/Higher-Symm/SD-CG/HFTN-CG
REM
REM
REM
REM
REM
REM ./C.cell (12c818d87b63d06a65506943cc24bca4)
REM
REM compiler GCC version 9.2.1 20190827 (Red Hat 9.2.1-1)
REM options -cpp -mtune=generic -march=x86-64 -g -O0 -fpre-include=/usr/include/finclude/math-vector-fortran.h
REM seed 1119409397 -765045013 1249882318 1037219726 1688729637 -1989883370 1600627114 1916089322 581663628 543461602 737702604 -1012528976 -136342947 375623733 -278950294 1508036022 1345724137 -795723673 -1340613296 -881184475 -1454368396 491551637 903941185 1484301579 -1998588174 -1221708809 -1430494588 -715442558 378817539 1262502320 -733557281 388818630 109137392
REM
CELL 1.54180   50.00000   50.00000   50.00000   90.00000   90.00000   90.00000
LATT -1
SFAC C  
C      1  0.5368560000000  0.5496620000000  0.5330510000000 1.0
C      1  0.4877530000000  0.5444030000000  0.5431230000000 1.0
C      1  0.4629960000000  0.5449680000000  0.4828020000000 1.0
C      1  0.5373830000000  0.5477720000000  0.4455240000000 1.0
C      1  0.5374750000000  0.4539130000000  0.5172910000000 1.0
C      1  0.4630880000000  0.4511090000000  0.5545680000000 1.0
C      1  0.4636150000000  0.4492190000000  0.4670420000000 1.0
C      1  0.5127180000000  0.4544780000000  0.4569700000000 1.0
C      1  0.4953770000000  0.4819470000000  0.5684920000000 1.0
C      1  0.4424430000000  0.4831270000000  0.4946280000000 1.0
C      1  0.5020180000000  0.4886320000000  0.4250880000000 1.0
C      1  0.5678870000000  0.4890520000000  0.5035840000000 1.0
C      1  0.4984530000000  0.5102490000000  0.5750040000000 1.0
C      1  0.4325840000000  0.5098290000000  0.4965080000000 1.0
C      1  0.5050940000000  0.5169340000000  0.4316010000000 1.0
C      1  0.5580280000000  0.5157540000000  0.5054650000000 1.0
C      1  0.4760580000000  0.4771860000000  0.4343380000000 1.0
C      1  0.5602510000000  0.4765680000000  0.4778680000000 1.0
C      1  0.5010310000000  0.4804860000000  0.5380700000000 1.0
C      1  0.4424970000000  0.4677160000000  0.5178480000000 1.0
C      1  0.4994400000000  0.5183950000000  0.4620230000000 1.0
C      1  0.5579740000000  0.5311660000000  0.4822440000000 1.0
C      1  0.5244130000000  0.5216960000000  0.5657550000000 1.0
C      1  0.4402200000000  0.5223130000000  0.5222250000000 1.0
C      1  0.5095890000000  0.4522460000000  0.5296160000000 1.0
C      1  0.4607360000000  0.4478660000000  0.5265610000000 1.0
C      1  0.4846390000000  0.4523590000000  0.4481460000000 1.0
C      1  0.5360470000000  0.4614020000000  0.4868860000000 1.0
C      1  0.5158320000000  0.5465220000000  0.5519460000000 1.0
C      1  0.4644240000000  0.5374790000000  0.5132070000000 1.0
C      1  0.4908820000000  0.5466350000000  0.4704770000000 1.0
C      1  0.5397350000000  0.5510150000000  0.4735320000000 1.0
C      1  0.5344940000000  0.5224070000000  0.4332770000000 1.0
C      1  0.5526020000000  0.5257370000000  0.5317130000000 1.0
C      1  0.4762170000000  0.5241150000000  0.5605500000000 1.0
C      1  0.4459490000000  0.5212170000000  0.4719940000000 1.0
C      1  0.5242540000000  0.4747660000000  0.4395430000000 1.0
C      1  0.5545220000000  0.4776640000000  0.5280990000000 1.0
C      1  0.4659770000000  0.4764740000000  0.5668160000000 1.0
C      1  0.4478690000000  0.4731440000000  0.4683800000000 1.0
C      1  0.5177060000000  0.4849430000000  0.4923050000000 1.0
C      1  0.5214510000000  0.4959190000000  0.5207190000000 1.0
C      1  0.4740720000000  0.4896400000000  0.5249690000000 1.0
C      1  0.4878120000000  0.4714310000000  0.4875620000000 1.0
C      1  0.5263990000000  0.5092410000000  0.4751240000000 1.0
C      1  0.5126590000000  0.5274500000000  0.5125300000000 1.0
C      1  0.4827650000000  0.5139380000000  0.5077880000000 1.0
C      1  0.4790200000000  0.5029620000000  0.4793740000000 1.0
C      1  0.5421040000000  0.4961850000000  0.4514810000000 1.0
C      1  0.4529550000000  0.4923740000000  0.4469260000000 1.0
C      1  0.4583670000000  0.5026960000000  0.5486120000000 1.0
C      1  0.5475160000000  0.5065070000000  0.5531670000000 1.0
C      1  0.4862860000000  0.4488870000000  0.5108240000000 1.0
C      1  0.5141850000000  0.5499940000000  0.4892690000000 1.0
END
