TITL C-3577091-527-685 -1.23836957410962e-06 125000 -392.280100092847 0 0 65 (C1) n - 1
REM
REM in /home/bkarasulu/work/CARBON/AIRSS/Generating-Clusters/EDIP-Nigel-Params/with-SteepDescent/Higher-Symm/SD-CG/HFTN-CG
REM
REM
REM
REM
REM
REM ./C.cell (12c818d87b63d06a65506943cc24bca4)
REM
REM compiler GCC version 9.2.1 20190827 (Red Hat 9.2.1-1)
REM options -cpp -mtune=generic -march=x86-64 -g -O0 -fpre-include=/usr/include/finclude/math-vector-fortran.h
REM seed -65450309 329806614 -479277775 -1597465939 -1561418206 -621513306 145291771 -2015421521 -493481201 291962939 360915230 -1793760230 19855204 673942620 1419802251 1868517950 45722393 1026142726 2060411478 -436969498 1221744694 -1352658153 342495975 -1599866488 -599051556 957246421 259856386 190055764 -1573631707 -1102753179 187107121 227208834 -1107251954
REM
CELL 1.54180   50.00000   50.00000   50.00000   90.00000   90.00000   90.00000
LATT -1
SFAC C  
C      1  0.5439710000000  0.5071970000000  0.5615600000000 1.0
C      1  0.4446240000000  0.4985180000000  0.5665670000000 1.0
C      1  0.5435120000000  0.4938000000000  0.4367860000000 1.0
C      1  0.4659040000000  0.4938060000000  0.4274130000000 1.0
C      1  0.5065060000000  0.5385540000000  0.5677940000000 1.0
C      1  0.5104240000000  0.4677300000000  0.5654960000000 1.0
C      1  0.5053710000000  0.5288820000000  0.4346590000000 1.0
C      1  0.4975220000000  0.4567790000000  0.4469160000000 1.0
C      1  0.4346910000000  0.5020030000000  0.5380460000000 1.0
C      1  0.5527780000000  0.5022210000000  0.5350200000000 1.0
C      1  0.4464920000000  0.4984900000000  0.4506820000000 1.0
C      1  0.5668970000000  0.5022170000000  0.4537380000000 1.0
C      1  0.5012260000000  0.4628900000000  0.5380020000000 1.0
C      1  0.4938030000000  0.5626620000000  0.5609600000000 1.0
C      1  0.4889210000000  0.4367810000000  0.4678280000000 1.0
C      1  0.4903160000000  0.5514080000000  0.4752910000000 1.0
C      1  0.4770530000000  0.5454330000000  0.5192990000000 1.0
C      1  0.5226650000000  0.4495240000000  0.5029340000000 1.0
C      1  0.4668660000000  0.4643400000000  0.4940820000000 1.0
C      1  0.5262800000000  0.5490040000000  0.5011810000000 1.0
C      1  0.5592320000000  0.4736730000000  0.4980410000000 1.0
C      1  0.4370840000000  0.5153030000000  0.4967230000000 1.0
C      1  0.4359730000000  0.4674170000000  0.4878460000000 1.0
C      1  0.5695350000000  0.5233750000000  0.4940200000000 1.0
C      1  0.5623130000000  0.4765430000000  0.5266230000000 1.0
C      1  0.4338830000000  0.5309720000000  0.5315800000000 1.0
C      1  0.5708400000000  0.5316320000000  0.4563270000000 1.0
C      1  0.4337020000000  0.4724900000000  0.4579520000000 1.0
C      1  0.4711940000000  0.5615680000000  0.5435980000000 1.0
C      1  0.5306720000000  0.4395760000000  0.5290800000000 1.0
C      1  0.5420500000000  0.5620060000000  0.4805640000000 1.0
C      1  0.4606440000000  0.4366450000000  0.4674010000000 1.0
C      1  0.4611780000000  0.4934480000000  0.5237010000000 1.0
C      1  0.4580210000000  0.5116410000000  0.4750260000000 1.0
C      1  0.5286980000000  0.4828390000000  0.4756970000000 1.0
C      1  0.5588610000000  0.5259610000000  0.5206730000000 1.0
C      1  0.4680990000000  0.5376120000000  0.4645390000000 1.0
C      1  0.5443720000000  0.5469880000000  0.5343900000000 1.0
C      1  0.4709570000000  0.4685300000000  0.5376570000000 1.0
C      1  0.5388400000000  0.4576080000000  0.4626700000000 1.0
C      1  0.5274830000000  0.5219950000000  0.4562340000000 1.0
C      1  0.4602230000000  0.5234630000000  0.5708420000000 1.0
C      1  0.5390640000000  0.4698530000000  0.5674690000000 1.0
C      1  0.4720930000000  0.4629540000000  0.4295790000000 1.0
C      1  0.4966550000000  0.5600560000000  0.5020420000000 1.0
C      1  0.4966710000000  0.4405130000000  0.4949600000000 1.0
C      1  0.5698780000000  0.4965500000000  0.4830970000000 1.0
C      1  0.4244740000000  0.4898170000000  0.5025890000000 1.0
C      1  0.4650960000000  0.4765170000000  0.5662730000000 1.0
C      1  0.5345820000000  0.5347450000000  0.5594630000000 1.0
C      1  0.4740630000000  0.5305460000000  0.4369490000000 1.0
C      1  0.5332320000000  0.4659580000000  0.4362750000000 1.0
C      1  0.4838320000000  0.5154860000000  0.5277290000000 1.0
C      1  0.5204520000000  0.4804660000000  0.5144180000000 1.0
C      1  0.4802540000000  0.4908100000000  0.4835150000000 1.0
C      1  0.5157180000000  0.5236780000000  0.4862080000000 1.0
C      1  0.5504550000000  0.4555080000000  0.5441050000000 1.0
C      1  0.5461360000000  0.5458300000000  0.4576860000000 1.0
C      1  0.4484690000000  0.5447240000000  0.5533720000000 1.0
C      1  0.4495820000000  0.4507980000000  0.4449430000000 1.0
C      1  0.4881070000000  0.5156710000000  0.5609920000000 1.0
C      1  0.5006920000000  0.4844760000000  0.4610030000000 1.0
C      1  0.4917080000000  0.4877380000000  0.5759130000000 1.0
C      1  0.4971800000000  0.4992890000000  0.4333890000000 1.0
C      1  0.5005450000000  0.5027690000000  0.5039360000000 1.0
END
