TITL C-3577088-510-131 2.50815477191454e-06 125000 -643.200153834416 0 0 104 (C1) n - 1
REM
REM in /home/bkarasulu/work/CARBON/AIRSS/Generating-Clusters/EDIP-Nigel-Params/with-SteepDescent/Higher-Symm/SD-CG/HFTN-CG
REM
REM
REM
REM
REM
REM ./C.cell (12c818d87b63d06a65506943cc24bca4)
REM
REM compiler GCC version 9.2.1 20190827 (Red Hat 9.2.1-1)
REM options -cpp -mtune=generic -march=x86-64 -g -O0 -fpre-include=/usr/include/finclude/math-vector-fortran.h
REM seed 1290585896 1606923380 -179804254 -1010566863 1361791471 -1744785807 -228723920 -2014810253 -610500047 -1242646943 1709822459 2094643156 -641277788 -1661190140 26155274 799221332 -158831948 -1133378408 -1550114410 1012955201 101147997 1341885829 -576663921 415069942 -790735135 104123807 -322084218 500404918 2133862597 -1933393094 -87885041 972991272 -1101371340
REM
CELL 1.54180   50.00000   50.00000   50.00000   90.00000   90.00000   90.00000
LATT -1
SFAC C  
C      1  0.4827650000000  0.5307400000000  0.5006140000000 1.0
C      1  0.4694890000000  0.5051570000000  0.4926210000000 1.0
C      1  0.4749410000000  0.4783730000000  0.5043050000000 1.0
C      1  0.5009470000000  0.4648610000000  0.4979050000000 1.0
C      1  0.5306010000000  0.4726800000000  0.4997770000000 1.0
C      1  0.5443120000000  0.4949670000000  0.4856360000000 1.0
C      1  0.5387390000000  0.5225710000000  0.4986320000000 1.0
C      1  0.5130010000000  0.5388910000000  0.4949210000000 1.0
C      1  0.4641200000000  0.4138540000000  0.5236150000000 1.0
C      1  0.5325470000000  0.4274600000000  0.5122190000000 1.0
C      1  0.5874450000000  0.4697880000000  0.5160990000000 1.0
C      1  0.5798470000000  0.5412510000000  0.5192730000000 1.0
C      1  0.5319260000000  0.5885900000000  0.5209740000000 1.0
C      1  0.4616250000000  0.5735120000000  0.5145630000000 1.0
C      1  0.4167560000000  0.5321330000000  0.5175530000000 1.0
C      1  0.4304150000000  0.4596320000000  0.5175960000000 1.0
C      1  0.5062790000000  0.5968800000000  0.5105380000000 1.0
C      1  0.4508670000000  0.5660470000000  0.5394550000000 1.0
C      1  0.4191400000000  0.5075820000000  0.5035760000000 1.0
C      1  0.4349040000000  0.4479200000000  0.5424640000000 1.0
C      1  0.4839180000000  0.4174110000000  0.5031450000000 1.0
C      1  0.5447350000000  0.4330290000000  0.5369710000000 1.0
C      1  0.5995560000000  0.4952840000000  0.5100520000000 1.0
C      1  0.5669710000000  0.5523670000000  0.5415460000000 1.0
C      1  0.4761400000000  0.5038640000000  0.4490350000000 1.0
C      1  0.4423400000000  0.4745410000000  0.4705960000000 1.0
C      1  0.4695930000000  0.4757020000000  0.4562180000000 1.0
C      1  0.4975570000000  0.4607640000000  0.4679830000000 1.0
C      1  0.5132780000000  0.4796860000000  0.4504850000000 1.0
C      1  0.5331700000000  0.4982520000000  0.4572530000000 1.0
C      1  0.5223160000000  0.5242940000000  0.4547410000000 1.0
C      1  0.4920140000000  0.5284520000000  0.4578950000000 1.0
C      1  0.5259460000000  0.5738120000000  0.5456000000000 1.0
C      1  0.4900350000000  0.5742900000000  0.5194110000000 1.0
C      1  0.4263270000000  0.5268730000000  0.5439750000000 1.0
C      1  0.4216810000000  0.4867740000000  0.5240720000000 1.0
C      1  0.4736460000000  0.4270440000000  0.5479160000000 1.0
C      1  0.5038110000000  0.4369930000000  0.5133380000000 1.0
C      1  0.5704600000000  0.4732480000000  0.5395140000000 1.0
C      1  0.5855580000000  0.5136130000000  0.5277390000000 1.0
C      1  0.5039860000000  0.5759130000000  0.4423390000000 1.0
C      1  0.4533470000000  0.5538530000000  0.4428170000000 1.0
C      1  0.4302610000000  0.5067820000000  0.4301320000000 1.0
C      1  0.4418690000000  0.4494830000000  0.4298300000000 1.0
C      1  0.4909450000000  0.4247640000000  0.4435460000000 1.0
C      1  0.5430930000000  0.4453350000000  0.4399580000000 1.0
C      1  0.5778000000000  0.4963790000000  0.4374480000000 1.0
C      1  0.5577600000000  0.5527120000000  0.4392990000000 1.0
C      1  0.5273810000000  0.5774480000000  0.4601240000000 1.0
C      1  0.4719750000000  0.5558880000000  0.4653870000000 1.0
C      1  0.4269170000000  0.5205780000000  0.4556380000000 1.0
C      1  0.4240570000000  0.4641690000000  0.4479320000000 1.0
C      1  0.4647320000000  0.4228410000000  0.4570160000000 1.0
C      1  0.5268620000000  0.4397890000000  0.4643670000000 1.0
C      1  0.5821290000000  0.4748370000000  0.4565240000000 1.0
C      1  0.5748490000000  0.5411240000000  0.4596770000000 1.0
C      1  0.4988810000000  0.4404690000000  0.5424210000000 1.0
C      1  0.5496200000000  0.4566790000000  0.5513900000000 1.0
C      1  0.5641340000000  0.5006580000000  0.5436150000000 1.0
C      1  0.5431110000000  0.5531260000000  0.5558830000000 1.0
C      1  0.4982660000000  0.5641550000000  0.5458650000000 1.0
C      1  0.4474250000000  0.5434270000000  0.5555640000000 1.0
C      1  0.4328980000000  0.4988690000000  0.5489150000000 1.0
C      1  0.4562240000000  0.4468720000000  0.5604590000000 1.0
C      1  0.5219420000000  0.5684270000000  0.4899900000000 1.0
C      1  0.4612620000000  0.5516760000000  0.4941590000000 1.0
C      1  0.4386020000000  0.5046410000000  0.4804070000000 1.0
C      1  0.4517680000000  0.4590860000000  0.4960380000000 1.0
C      1  0.4605240000000  0.4288410000000  0.4877370000000 1.0
C      1  0.5414560000000  0.4454790000000  0.4909860000000 1.0
C      1  0.5738750000000  0.4852820000000  0.4837650000000 1.0
C      1  0.5625260000000  0.5396220000000  0.4950830000000 1.0
C      1  0.4734350000000  0.4716960000000  0.5673310000000 1.0
C      1  0.5003550000000  0.4671450000000  0.5537630000000 1.0
C      1  0.5279690000000  0.4756700000000  0.5638840000000 1.0
C      1  0.5369670000000  0.5033940000000  0.5544930000000 1.0
C      1  0.5255710000000  0.5295080000000  0.5650040000000 1.0
C      1  0.4973050000000  0.5358140000000  0.5540420000000 1.0
C      1  0.4705630000000  0.5254480000000  0.5657790000000 1.0
C      1  0.4615250000000  0.4974630000000  0.5564300000000 1.0
C      1  0.5332740000000  0.5024330000000  0.6034300000000 1.0
C      1  0.5238170000000  0.5272270000000  0.5948110000000 1.0
C      1  0.4984900000000  0.5342170000000  0.6040770000000 1.0
C      1  0.4737110000000  0.5244670000000  0.5958210000000 1.0
C      1  0.4683490000000  0.4991130000000  0.6060530000000 1.0
C      1  0.4774290000000  0.4744550000000  0.5968370000000 1.0
C      1  0.5031970000000  0.4672550000000  0.6045130000000 1.0
C      1  0.5271900000000  0.4768260000000  0.5941050000000 1.0
C      1  0.4274410000000  0.5478970000000  0.4509780000000 1.0
C      1  0.4140050000000  0.4840290000000  0.4313270000000 1.0
C      1  0.4437340000000  0.4231510000000  0.4387470000000 1.0
C      1  0.5127880000000  0.4149540000000  0.4595820000000 1.0
C      1  0.5689240000000  0.4527450000000  0.4462870000000 1.0
C      1  0.5879900000000  0.5192920000000  0.4495080000000 1.0
C      1  0.5515340000000  0.5790690000000  0.4459870000000 1.0
C      1  0.4832350000000  0.5818890000000  0.4605250000000 1.0
C      1  0.4673390000000  0.4667450000000  0.4269630000000 1.0
C      1  0.4942270000000  0.4493370000000  0.4248500000000 1.0
C      1  0.5246680000000  0.4654130000000  0.4273640000000 1.0
C      1  0.5483470000000  0.4977930000000  0.4307530000000 1.0
C      1  0.5354410000000  0.5338400000000  0.4299990000000 1.0
C      1  0.5004810000000  0.5495870000000  0.4266480000000 1.0
C      1  0.4700080000000  0.5384640000000  0.4224150000000 1.0
C      1  0.4604960000000  0.5052760000000  0.4235650000000 1.0
END
