TITL C-3577082-504-688 -8.67248945419811e-06 125000 -577.76564389118 0 0 95 (C1) n - 1
REM
REM in /home/bkarasulu/work/CARBON/AIRSS/Generating-Clusters/EDIP-Nigel-Params/with-SteepDescent/Higher-Symm/SD-CG/HFTN-CG
REM
REM
REM
REM
REM
REM ./C.cell (12c818d87b63d06a65506943cc24bca4)
REM
REM compiler GCC version 9.2.1 20190827 (Red Hat 9.2.1-1)
REM options -cpp -mtune=generic -march=x86-64 -g -O0 -fpre-include=/usr/include/finclude/math-vector-fortran.h
REM seed -934355789 1064606980 55727899 514782308 -1318532737 -1679721295 -688376316 -116254516 1150417363 994908465 -655447909 -1727258339 1119760949 -204103304 102693306 -163074412 1081582316 979099830 -1536231891 -957479575 -148635042 1075469204 1965075206 -1920963208 670866496 1856092716 -1435890695 -1682256303 1658029571 622461758 -2141772035 -647053904 1093585760
REM
CELL 1.54180   50.00000   50.00000   50.00000   90.00000   90.00000   90.00000
LATT -1
SFAC C  
C      1  0.4331490000000  0.4565590000000  0.5355930000000 1.0
C      1  0.5675290000000  0.5439370000000  0.4630550000000 1.0
C      1  0.4473140000000  0.4981290000000  0.5642430000000 1.0
C      1  0.5538200000000  0.5023220000000  0.4348360000000 1.0
C      1  0.5708200000000  0.4824610000000  0.4479110000000 1.0
C      1  0.4308410000000  0.5180590000000  0.5493670000000 1.0
C      1  0.5550460000000  0.4763010000000  0.5740910000000 1.0
C      1  0.4479300000000  0.5222380000000  0.4182930000000 1.0
C      1  0.4406060000000  0.4964300000000  0.4273910000000 1.0
C      1  0.5613900000000  0.5040550000000  0.5709460000000 1.0
C      1  0.5149830000000  0.5072290000000  0.5902430000000 1.0
C      1  0.4872230000000  0.4904410000000  0.4143990000000 1.0
C      1  0.4102530000000  0.5100230000000  0.5311270000000 1.0
C      1  0.5898480000000  0.4905200000000  0.4673000000000 1.0
C      1  0.5213930000000  0.4729070000000  0.5275170000000 1.0
C      1  0.4737830000000  0.5262410000000  0.4752070000000 1.0
C      1  0.5648950000000  0.5043790000000  0.5413510000000 1.0
C      1  0.4280200000000  0.4998710000000  0.4551350000000 1.0
C      1  0.5070490000000  0.4282040000000  0.5212950000000 1.0
C      1  0.4942890000000  0.5700640000000  0.4806080000000 1.0
C      1  0.4887310000000  0.5461270000000  0.4373250000000 1.0
C      1  0.5143290000000  0.4499820000000  0.5681980000000 1.0
C      1  0.4609240000000  0.4335080000000  0.5434810000000 1.0
C      1  0.5390380000000  0.5673280000000  0.4533000000000 1.0
C      1  0.4743180000000  0.4952780000000  0.5304740000000 1.0
C      1  0.5193030000000  0.5093200000000  0.4684180000000 1.0
C      1  0.5250610000000  0.4450420000000  0.5392620000000 1.0
C      1  0.4761720000000  0.5541470000000  0.4632740000000 1.0
C      1  0.5315220000000  0.4665950000000  0.5839590000000 1.0
C      1  0.4712080000000  0.5358290000000  0.4187330000000 1.0
C      1  0.5634930000000  0.4520070000000  0.4823620000000 1.0
C      1  0.4348760000000  0.5528010000000  0.5168250000000 1.0
C      1  0.4780420000000  0.4315990000000  0.5198850000000 1.0
C      1  0.5230530000000  0.5723430000000  0.4770470000000 1.0
C      1  0.4911350000000  0.4913850000000  0.5857120000000 1.0
C      1  0.5105500000000  0.5069730000000  0.4169590000000 1.0
C      1  0.4396040000000  0.4505870000000  0.4600760000000 1.0
C      1  0.5575910000000  0.5481770000000  0.5364680000000 1.0
C      1  0.4982420000000  0.5154700000000  0.4884330000000 1.0
C      1  0.4932200000000  0.4731420000000  0.5189560000000 1.0
C      1  0.5546940000000  0.4440470000000  0.5290930000000 1.0
C      1  0.4453770000000  0.5598860000000  0.4705090000000 1.0
C      1  0.4569380000000  0.4563850000000  0.4904900000000 1.0
C      1  0.5460110000000  0.5509340000000  0.5080490000000 1.0
C      1  0.4885860000000  0.5202970000000  0.5360000000000 1.0
C      1  0.5112620000000  0.4820640000000  0.4577620000000 1.0
C      1  0.4013520000000  0.4996530000000  0.5073510000000 1.0
C      1  0.5970940000000  0.5011820000000  0.4912460000000 1.0
C      1  0.5792620000000  0.5271740000000  0.5316330000000 1.0
C      1  0.4202950000000  0.4743540000000  0.4672620000000 1.0
C      1  0.5316080000000  0.5403660000000  0.5546980000000 1.0
C      1  0.4679180000000  0.4575790000000  0.4460560000000 1.0
C      1  0.4649270000000  0.4523140000000  0.5661930000000 1.0
C      1  0.5355670000000  0.5466420000000  0.4329260000000 1.0
C      1  0.5599680000000  0.5310710000000  0.4373590000000 1.0
C      1  0.4412820000000  0.4692650000000  0.5613710000000 1.0
C      1  0.5126150000000  0.4429000000000  0.4281060000000 1.0
C      1  0.4859980000000  0.5555200000000  0.5689640000000 1.0
C      1  0.5128320000000  0.5281620000000  0.4389320000000 1.0
C      1  0.4902870000000  0.4670850000000  0.5685060000000 1.0
C      1  0.4663540000000  0.5046170000000  0.5843110000000 1.0
C      1  0.5358020000000  0.4950340000000  0.4143150000000 1.0
C      1  0.5439850000000  0.5060760000000  0.4863010000000 1.0
C      1  0.4491370000000  0.4988010000000  0.5139980000000 1.0
C      1  0.5367770000000  0.5877680000000  0.4964260000000 1.0
C      1  0.4654220000000  0.4191510000000  0.4973170000000 1.0
C      1  0.5583430000000  0.5779590000000  0.5114770000000 1.0
C      1  0.4422310000000  0.4278540000000  0.4820680000000 1.0
C      1  0.4519940000000  0.5675330000000  0.4994340000000 1.0
C      1  0.5492490000000  0.4355180000000  0.5008310000000 1.0
C      1  0.5381960000000  0.5222960000000  0.5803940000000 1.0
C      1  0.4635410000000  0.4758220000000  0.4216630000000 1.0
C      1  0.5565500000000  0.4576890000000  0.4552450000000 1.0
C      1  0.4441360000000  0.5435970000000  0.5421260000000 1.0
C      1  0.4376320000000  0.4713030000000  0.5096100000000 1.0
C      1  0.5607760000000  0.5313970000000  0.4892370000000 1.0
C      1  0.4814380000000  0.5688530000000  0.5065670000000 1.0
C      1  0.5205770000000  0.4303470000000  0.4956170000000 1.0
C      1  0.5107720000000  0.5644710000000  0.5566790000000 1.0
C      1  0.4898360000000  0.4349280000000  0.4444630000000 1.0
C      1  0.4120520000000  0.4760720000000  0.4958550000000 1.0
C      1  0.5861870000000  0.5245560000000  0.5025730000000 1.0
C      1  0.4816210000000  0.4804780000000  0.4621330000000 1.0
C      1  0.5167010000000  0.5173930000000  0.5421490000000 1.0
C      1  0.4473880000000  0.5241230000000  0.4947630000000 1.0
C      1  0.5466500000000  0.4792950000000  0.5034180000000 1.0
C      1  0.4745730000000  0.5454710000000  0.5432150000000 1.0
C      1  0.5262590000000  0.4573160000000  0.4506820000000 1.0
C      1  0.5062000000000  0.4301810000000  0.4698860000000 1.0
C      1  0.4977230000000  0.5742460000000  0.5306260000000 1.0
C      1  0.5249740000000  0.4894860000000  0.5527630000000 1.0
C      1  0.4704100000000  0.5082130000000  0.4498580000000 1.0
C      1  0.4290990000000  0.5261470000000  0.4704160000000 1.0
C      1  0.5671570000000  0.4785720000000  0.5263960000000 1.0
C      1  0.4860660000000  0.4877800000000  0.4936780000000 1.0
END
