TITL C-3578206-1180-548 2.63227795641183e-07 125000 -72.7425861237028 0 0 13 (C1) n - 1
REM
REM in /home/bkarasulu/work/CARBON/AIRSS/Generating-Clusters/EDIP-Nigel-Params/with-SteepDescent/Higher-Symm/SD-CG/HFTN-CG
REM
REM
REM
REM
REM
REM ./C.cell (12c818d87b63d06a65506943cc24bca4)
REM
REM compiler GCC version 9.2.1 20190827 (Red Hat 9.2.1-1)
REM options -cpp -mtune=generic -march=x86-64 -g -O0 -fpre-include=/usr/include/finclude/math-vector-fortran.h
REM seed 1119521885 -354688937 1845171385 1896598558 857776206 344449678 657022677 -622848594 1938827268 1612852500 -1348479087 240316106 -1824575656 -1907236649 1987767776 988355768 33545426 -985892398 -394287180 866658363 2125872906 -507587239 532479648 -1918360745 -1252982094 -1377376345 517907549 894556698 1034784227 1982771484 1117622992 -696596640 8179938
REM
CELL 1.54180   50.00000   50.00000   50.00000   90.00000   90.00000   90.00000
LATT -1
SFAC C  
C      1  0.5318320000000  0.4712830000000  0.5054660000000 1.0
C      1  0.5210740000000  0.5273580000000  0.4866310000000 1.0
C      1  0.5293350000000  0.4936000000000  0.5239000000000 1.0
C      1  0.4693630000000  0.4931620000000  0.4935190000000 1.0
C      1  0.4616480000000  0.5105920000000  0.4730430000000 1.0
C      1  0.4840100000000  0.5074530000000  0.5148470000000 1.0
C      1  0.5114990000000  0.4904830000000  0.5454790000000 1.0
C      1  0.5115610000000  0.4635670000000  0.4883690000000 1.0
C      1  0.5028890000000  0.5355800000000  0.4687190000000 1.0
C      1  0.4852300000000  0.4959120000000  0.5406050000000 1.0
C      1  0.4864350000000  0.4726730000000  0.4848690000000 1.0
C      1  0.4776470000000  0.5293940000000  0.4622840000000 1.0
C      1  0.5112320000000  0.5046880000000  0.5015570000000 1.0
END
