TITL C-3578204-4308-545 -6.84922748150297e-08 125000 -432.321495231583 0 0 71 (C1) n - 1
REM
REM in /home/bkarasulu/work/CARBON/AIRSS/Generating-Clusters/EDIP-Nigel-Params/with-SteepDescent/Higher-Symm/SD-CG/HFTN-CG
REM
REM
REM
REM
REM
REM ./C.cell (12c818d87b63d06a65506943cc24bca4)
REM
REM compiler GCC version 9.2.1 20190827 (Red Hat 9.2.1-1)
REM options -cpp -mtune=generic -march=x86-64 -g -O0 -fpre-include=/usr/include/finclude/math-vector-fortran.h
REM seed 1642613530 -683187953 -554764292 -938157358 183684017 -889030514 55575959 -1486118205 1532209012 809724050 -1080196579 1293964500 1680152351 -1949963930 1065567573 -532859836 1862480466 2112814098 1382193109 1553608432 1461779950 526252477 -1139118673 1699471623 182339687 -1585382763 1866053743 -1471981516 -894338463 968215568 2143784469 -1044977651 -112614092
REM
CELL 1.54180   50.00000   50.00000   50.00000   90.00000   90.00000   90.00000
LATT -1
SFAC C  
C      1  0.5267780000000  0.4264220000000  0.4726890000000 1.0
C      1  0.5503620000000  0.5569560000000  0.4725110000000 1.0
C      1  0.4272210000000  0.5119140000000  0.4727140000000 1.0
C      1  0.4627950000000  0.5640550000000  0.5253840000000 1.0
C      1  0.4642480000000  0.4331510000000  0.5265520000000 1.0
C      1  0.5769720000000  0.5007140000000  0.5258860000000 1.0
C      1  0.5549270000000  0.5141840000000  0.5402790000000 1.0
C      1  0.4609690000000  0.5390350000000  0.5408970000000 1.0
C      1  0.4878550000000  0.4470730000000  0.5380350000000 1.0
C      1  0.5048730000000  0.5378420000000  0.4763430000000 1.0
C      1  0.4662370000000  0.4828490000000  0.4770370000000 1.0
C      1  0.5333390000000  0.4761490000000  0.4765990000000 1.0
C      1  0.4683610000000  0.5051790000000  0.4984500000000 1.0
C      1  0.5138210000000  0.4663590000000  0.4980810000000 1.0
C      1  0.5229770000000  0.5252310000000  0.4980800000000 1.0
C      1  0.4383670000000  0.5211380000000  0.5414930000000 1.0
C      1  0.5142680000000  0.4357180000000  0.5412550000000 1.0
C      1  0.5496600000000  0.5424640000000  0.5413870000000 1.0
C      1  0.4600670000000  0.4257820000000  0.4973410000000 1.0
C      1  0.5853460000000  0.5007810000000  0.4965790000000 1.0
C      1  0.4580090000000  0.5712400000000  0.4961140000000 1.0
C      1  0.5457000000000  0.4971460000000  0.5607990000000 1.0
C      1  0.4802610000000  0.5399700000000  0.5614070000000 1.0
C      1  0.4768780000000  0.4651630000000  0.5583700000000 1.0
C      1  0.5819150000000  0.4708490000000  0.4937170000000 1.0
C      1  0.4857400000000  0.5829970000000  0.4927870000000 1.0
C      1  0.4362420000000  0.4440200000000  0.4942110000000 1.0
C      1  0.5420240000000  0.5495830000000  0.4981080000000 1.0
C      1  0.4373670000000  0.5090730000000  0.4985990000000 1.0
C      1  0.5250250000000  0.4376380000000  0.4981730000000 1.0
C      1  0.5632140000000  0.4653730000000  0.4715660000000 1.0
C      1  0.4995310000000  0.5691430000000  0.4707230000000 1.0
C      1  0.4414390000000  0.4627510000000  0.4720480000000 1.0
C      1  0.4896250000000  0.5745990000000  0.5297260000000 1.0
C      1  0.4408020000000  0.4502770000000  0.5315310000000 1.0
C      1  0.5732820000000  0.4721520000000  0.5308040000000 1.0
C      1  0.4790320000000  0.4377650000000  0.4740710000000 1.0
C      1  0.5652230000000  0.5104080000000  0.4733930000000 1.0
C      1  0.4590690000000  0.5488370000000  0.4726500000000 1.0
C      1  0.5047620000000  0.4535330000000  0.4376290000000 1.0
C      1  0.5384940000000  0.5244210000000  0.4371720000000 1.0
C      1  0.4606670000000  0.5178690000000  0.4370760000000 1.0
C      1  0.4406660000000  0.5301740000000  0.4562630000000 1.0
C      1  0.5038170000000  0.4302640000000  0.4571200000000 1.0
C      1  0.5589760000000  0.5355630000000  0.4566260000000 1.0
C      1  0.5265330000000  0.5517930000000  0.5536310000000 1.0
C      1  0.4396570000000  0.4963270000000  0.5540900000000 1.0
C      1  0.5344650000000  0.4507870000000  0.5530560000000 1.0
C      1  0.5227890000000  0.4203610000000  0.5199110000000 1.0
C      1  0.5580240000000  0.5570600000000  0.5195540000000 1.0
C      1  0.4228160000000  0.5214970000000  0.5187950000000 1.0
C      1  0.5532190000000  0.4712960000000  0.5517090000000 1.0
C      1  0.4995660000000  0.5581970000000  0.5514790000000 1.0
C      1  0.4488680000000  0.4700110000000  0.5513860000000 1.0
C      1  0.5683180000000  0.4883780000000  0.4515970000000 1.0
C      1  0.4769400000000  0.5619900000000  0.4509020000000 1.0
C      1  0.4585840000000  0.4463980000000  0.4522670000000 1.0
C      1  0.5391600000000  0.5036040000000  0.4858330000000 1.0
C      1  0.4779560000000  0.5299230000000  0.4852790000000 1.0
C      1  0.4867400000000  0.4636480000000  0.4862830000000 1.0
C      1  0.4838810000000  0.5382860000000  0.4335380000000 1.0
C      1  0.4755800000000  0.4637320000000  0.4343540000000 1.0
C      1  0.5445380000000  0.4940460000000  0.4338920000000 1.0
C      1  0.5215270000000  0.4785760000000  0.4482400000000 1.0
C      1  0.5086800000000  0.5261820000000  0.4480430000000 1.0
C      1  0.4740730000000  0.4913860000000  0.4484510000000 1.0
C      1  0.5083250000000  0.4897300000000  0.5842680000000 1.0
C      1  0.5014840000000  0.4987220000000  0.4506010000000 1.0
C      1  0.4922080000000  0.4897700000000  0.5630110000000 1.0
C      1  0.5020560000000  0.4982300000000  0.5099040000000 1.0
C      1  0.5028500000000  0.4975970000000  0.5383490000000 1.0
END
