TITL C-3578194-7807-368 -8.38280982837951e-07 125000 -218.818867478391 0 0 36 (C3) n - 1
REM
REM in /home/bkarasulu/work/CARBON/AIRSS/Generating-Clusters/EDIP-Nigel-Params/with-SteepDescent/Higher-Symm/SD-CG/HFTN-CG
REM
REM
REM
REM
REM
REM ./C.cell (12c818d87b63d06a65506943cc24bca4)
REM
REM compiler GCC version 9.2.1 20190827 (Red Hat 9.2.1-1)
REM options -cpp -mtune=generic -march=x86-64 -g -O0 -fpre-include=/usr/include/finclude/math-vector-fortran.h
REM seed -845729146 1246752501 266344282 -971668146 -523725287 198851338 -1216624361 433697989 977157886 -606427238 159755515 -493348046 -1939969514 1497365923 -595640423 1688880555 -1731167528 -1327503069 56020802 -200515067 1880992730 1907747531 -1236469272 885705739 1640864951 -83875572 582936930 -1534332701 2094020414 396076420 896945898 1464022796 1169867452
REM
CELL 1.54180   50.00000   50.00000   50.00000   90.00000   90.00000   90.00000
LATT -1
SFAC C  
C      1  0.4720650000000  0.4642800000000  0.5051030000000 1.0
C      1  0.5183910000000  0.4642810000000  0.5216400000000 1.0
C      1  0.5095500000000  0.4642830000000  0.4732530000000 1.0
C      1  0.4846450000000  0.5373740000000  0.5166080000000 1.0
C      1  0.5220560000000  0.5373770000000  0.5049950000000 1.0
C      1  0.4932930000000  0.5373760000000  0.4784020000000 1.0
C      1  0.5437940000000  0.5179340000000  0.4984970000000 1.0
C      1  0.4767990000000  0.5179320000000  0.4628250000000 1.0
C      1  0.4794040000000  0.5179290000000  0.5386800000000 1.0
C      1  0.4541540000000  0.5072240000000  0.5448210000000 1.0
C      1  0.5617380000000  0.5072310000000  0.5172940000000 1.0
C      1  0.4841070000000  0.5072300000000  0.4378860000000 1.0
C      1  0.5459700000000  0.5029460000000  0.5403410000000 1.0
C      1  0.5119510000000  0.5029480000000  0.4400190000000 1.0
C      1  0.4420790000000  0.5029410000000  0.5196410000000 1.0
C      1  0.4604220000000  0.5481060000000  0.5056660000000 1.0
C      1  0.5246900000000  0.5481080000000  0.5314430000000 1.0
C      1  0.5148800000000  0.5481100000000  0.4628970000000 1.0
C      1  0.4458430000000  0.5244000000000  0.4995640000000 1.0
C      1  0.5266980000000  0.5244020000000  0.5471190000000 1.0
C      1  0.5274550000000  0.5244060000000  0.4533200000000 1.0
C      1  0.5287140000000  0.4605810000000  0.4945780000000 1.0
C      1  0.4809520000000  0.4605790000000  0.4778440000000 1.0
C      1  0.4903410000000  0.4605780000000  0.5275740000000 1.0
C      1  0.5018340000000  0.5118700000000  0.5564630000000 1.0
C      1  0.5479800000000  0.5118760000000  0.4701810000000 1.0
C      1  0.4501840000000  0.5118710000000  0.4733580000000 1.0
C      1  0.5550830000000  0.4663680000000  0.4862240000000 1.0
C      1  0.4605320000000  0.4663640000000  0.4591840000000 1.0
C      1  0.4843900000000  0.4663610000000  0.5545880000000 1.0
C      1  0.5070420000000  0.4826460000000  0.5621880000000 1.0
C      1  0.5503370000000  0.4826520000000  0.4628080000000 1.0
C      1  0.4426240000000  0.4826460000000  0.4750030000000 1.0
C      1  0.5320850000000  0.4762630000000  0.5453230000000 1.0
C      1  0.5232120000000  0.4762660000000  0.4495520000000 1.0
C      1  0.4447080000000  0.4762600000000  0.5051220000000 1.0
END
