TITL C-3578198-8939-335 3.58955962417212e-07 125000 -67.7707837883105 0 0 12 (C1) n - 1
REM
REM in /home/bkarasulu/work/CARBON/AIRSS/Generating-Clusters/EDIP-Nigel-Params/with-SteepDescent/Higher-Symm/SD-CG/HFTN-CG
REM
REM
REM
REM
REM
REM ./C.cell (12c818d87b63d06a65506943cc24bca4)
REM
REM compiler GCC version 9.2.1 20190827 (Red Hat 9.2.1-1)
REM options -cpp -mtune=generic -march=x86-64 -g -O0 -fpre-include=/usr/include/finclude/math-vector-fortran.h
REM seed -88750283 901398630 -1810291816 1785490630 -1533523122 633050180 -1276326554 -1153112756 -1843040931 454019175 -1220127804 1770914025 -2008460935 1553603553 -939952582 -1149248340 -1981133123 -1796650771 -1545327940 823959856 -1321041682 -826849963 857401819 -758420413 -309907056 -547421309 1932580443 -1857730675 2146565712 815439917 1356124290 728042989 -1161302096
REM
CELL 1.54180   50.00000   50.00000   50.00000   90.00000   90.00000   90.00000
LATT -1
SFAC C  
C      1  0.5279830000000  0.5306530000000  0.5255100000000 1.0
C      1  0.4715800000000  0.5315960000000  0.5270870000000 1.0
C      1  0.5306710000000  0.5065840000000  0.5120230000000 1.0
C      1  0.4687370000000  0.5080620000000  0.5126990000000 1.0
C      1  0.5135600000000  0.4952230000000  0.4922240000000 1.0
C      1  0.4849670000000  0.4978480000000  0.4915690000000 1.0
C      1  0.5155450000000  0.4650770000000  0.4506630000000 1.0
C      1  0.4888730000000  0.4691110000000  0.4540530000000 1.0
C      1  0.5247030000000  0.4792760000000  0.4719850000000 1.0
C      1  0.4731420000000  0.4829140000000  0.4715010000000 1.0
C      1  0.5142190000000  0.5167150000000  0.5450560000000 1.0
C      1  0.4860200000000  0.5169410000000  0.5456310000000 1.0
END
