TITL C-3578199-7832-45 1.77126255267294e-06 125000 -422.535165256516 0 0 68 (C3) n - 1
REM
REM in /home/bkarasulu/work/CARBON/AIRSS/Generating-Clusters/EDIP-Nigel-Params/with-SteepDescent/Higher-Symm/SD-CG/HFTN-CG
REM
REM
REM
REM
REM
REM ./C.cell (12c818d87b63d06a65506943cc24bca4)
REM
REM compiler GCC version 9.2.1 20190827 (Red Hat 9.2.1-1)
REM options -cpp -mtune=generic -march=x86-64 -g -O0 -fpre-include=/usr/include/finclude/math-vector-fortran.h
REM seed -1106599214 -1289030864 -1396499677 -1107545965 246331333 -715943966 1489309454 -1341796510 -731319123 -1939644823 1946978862 1577392661 2078917313 190189242 -1496075108 596751345 1948127308 444619693 -2054621908 1037419633 -1522292998 -1817512072 -1354370017 -1427605887 1814403448 -1426041764 663851671 -1597344835 -1762177662 568803163 35114602 -1653877591 -1766236471
REM
CELL 1.54180   50.00000   50.00000   50.00000   90.00000   90.00000   90.00000
LATT -1
SFAC C  
C      1  0.4474100000000  0.4944210000000  0.4846310000000 1.0
C      1  0.5138680000000  0.4944760000000  0.5529680000000 1.0
C      1  0.5398210000000  0.4945790000000  0.4612450000000 1.0
C      1  0.4371440000000  0.5536020000000  0.5262280000000 1.0
C      1  0.5548530000000  0.5537730000000  0.5410430000000 1.0
C      1  0.5088280000000  0.5537790000000  0.4316970000000 1.0
C      1  0.5383910000000  0.4313480000000  0.4798520000000 1.0
C      1  0.4644230000000  0.4312360000000  0.4765840000000 1.0
C      1  0.4985770000000  0.4312430000000  0.5422760000000 1.0
C      1  0.4920110000000  0.5418420000000  0.4524230000000 1.0
C      1  0.4635370000000  0.5417440000000  0.5304330000000 1.0
C      1  0.5453320000000  0.5418800000000  0.5160870000000 1.0
C      1  0.5616510000000  0.4425320000000  0.4682580000000 1.0
C      1  0.4427200000000  0.4423520000000  0.4622340000000 1.0
C      1  0.4969690000000  0.4423620000000  0.5682440000000 1.0
C      1  0.5373380000000  0.5258400000000  0.4594000000000 1.0
C      1  0.4469620000000  0.5256800000000  0.4876950000000 1.0
C      1  0.5166540000000  0.5257430000000  0.5518150000000 1.0
C      1  0.4704930000000  0.5594640000000  0.4626650000000 1.0
C      1  0.4831140000000  0.5594270000000  0.5439420000000 1.0
C      1  0.5471910000000  0.5595620000000  0.4923730000000 1.0
C      1  0.4796430000000  0.5631930000000  0.4906550000000 1.0
C      1  0.5027680000000  0.5632070000000  0.5220220000000 1.0
C      1  0.5183700000000  0.5632560000000  0.4863110000000 1.0
C      1  0.4706400000000  0.5242640000000  0.5737230000000 1.0
C      1  0.5793230000000  0.5244910000000  0.4882960000000 1.0
C      1  0.4509980000000  0.5243290000000  0.4368870000000 1.0
C      1  0.5629760000000  0.5131310000000  0.5570510000000 1.0
C      1  0.5187480000000  0.5131600000000  0.4166700000000 1.0
C      1  0.4192880000000  0.5129310000000  0.5251620000000 1.0
C      1  0.4855220000000  0.4455790000000  0.5181810000000 1.0
C      1  0.5240090000000  0.4456490000000  0.5032010000000 1.0
C      1  0.4917930000000  0.4456170000000  0.4773600000000 1.0
C      1  0.5162540000000  0.5356510000000  0.5223290000000 1.0
C      1  0.5119740000000  0.5356780000000  0.4744860000000 1.0
C      1  0.4726800000000  0.5355980000000  0.5021150000000 1.0
C      1  0.4520370000000  0.4811700000000  0.5128980000000 1.0
C      1  0.5360730000000  0.4812850000000  0.5348310000000 1.0
C      1  0.5130500000000  0.4813070000000  0.4510870000000 1.0
C      1  0.4997590000000  0.4969770000000  0.4291050000000 1.0
C      1  0.4396000000000  0.4968100000000  0.5353950000000 1.0
C      1  0.5617290000000  0.4969990000000  0.5343490000000 1.0
C      1  0.4744740000000  0.5082140000000  0.4432380000000 1.0
C      1  0.4644490000000  0.5081240000000  0.5502220000000 1.0
C      1  0.5621120000000  0.5083060000000  0.5054130000000 1.0
C      1  0.5260970000000  0.4340140000000  0.5313100000000 1.0
C      1  0.5151260000000  0.4340460000000  0.4615010000000 1.0
C      1  0.4601560000000  0.4339300000000  0.5059070000000 1.0
C      1  0.4303800000000  0.4596710000000  0.4800460000000 1.0
C      1  0.5185140000000  0.4597440000000  0.5700190000000 1.0
C      1  0.5523660000000  0.4598810000000  0.4487060000000 1.0
C      1  0.4925260000000  0.4761540000000  0.4730950000000 1.0
C      1  0.4813730000000  0.4761040000000  0.5196700000000 1.0
C      1  0.5272840000000  0.4761850000000  0.5060410000000 1.0
C      1  0.4680350000000  0.4887810000000  0.4643600000000 1.0
C      1  0.4860180000000  0.4887530000000  0.5452440000000 1.0
C      1  0.5470730000000  0.4888860000000  0.4892280000000 1.0
C      1  0.4924300000000  0.5400820000000  0.5643580000000 1.0
C      1  0.5602700000000  0.5402500000000  0.4741030000000 1.0
C      1  0.4481870000000  0.5400860000000  0.4604790000000 1.0
C      1  0.4390650000000  0.4549940000000  0.5072870000000 1.0
C      1  0.5377760000000  0.4551170000000  0.5488780000000 1.0
C      1  0.5244390000000  0.4551710000000  0.4425960000000 1.0
C      1  0.5297810000000  0.5344780000000  0.4309060000000 1.0
C      1  0.4260390000000  0.5342640000000  0.5084830000000 1.0
C      1  0.5450940000000  0.5344120000000  0.5595380000000 1.0
C      1  0.5003750000000  0.4885400000000  0.4996110000000 1.0
C      1  0.5003260000000  0.5205510000000  0.4996330000000 1.0
END
