TITL C-3577079-311-298 2.78744596014359e-06 125000 -1129.62101589503 0 0 184 (C1) n - 1
REM
REM in /home/bkarasulu/work/CARBON/AIRSS/Generating-Clusters/EDIP-Nigel-Params/with-SteepDescent/Higher-Symm/SD-CG/HFTN-CG
REM
REM
REM
REM
REM
REM ./C.cell (12c818d87b63d06a65506943cc24bca4)
REM
REM compiler GCC version 9.2.1 20190827 (Red Hat 9.2.1-1)
REM options -cpp -mtune=generic -march=x86-64 -g -O0 -fpre-include=/usr/include/finclude/math-vector-fortran.h
REM seed 123115840 1772103036 -2019011422 -1376338595 20757759 1041475724 -2031671079 288187269 -1466649060 -216005086 -732539897 -214958731 2045696747 410960157 -1528488166 1867688040 -685470400 1989447703 374103014 -33974750 -1355542777 705069289 -1403920316 987420928 965112529 -584492637 1482553608 -249571050 -2050936049 -1211960394 2082478742 1631020964 850770758
REM
CELL 1.54180   50.00000   50.00000   50.00000   90.00000   90.00000   90.00000
LATT -1
SFAC C  
C      1  0.4782870000000  0.4260910000000  0.4060280000000 1.0
C      1  0.4554910000000  0.5609910000000  0.4145820000000 1.0
C      1  0.4321350000000  0.5994920000000  0.4784090000000 1.0
C      1  0.4359060000000  0.4155340000000  0.4732330000000 1.0
C      1  0.4183990000000  0.4351470000000  0.5133900000000 1.0
C      1  0.4274600000000  0.5801790000000  0.5232780000000 1.0
C      1  0.5132250000000  0.4517060000000  0.5417140000000 1.0
C      1  0.5091370000000  0.5402400000000  0.5437300000000 1.0
C      1  0.5295630000000  0.5672590000000  0.4708050000000 1.0
C      1  0.5170090000000  0.4302940000000  0.4774210000000 1.0
C      1  0.4671460000000  0.5492080000000  0.5892800000000 1.0
C      1  0.4628830000000  0.4475400000000  0.5695870000000 1.0
C      1  0.5126820000000  0.5718810000000  0.5453540000000 1.0
C      1  0.5147000000000  0.4234740000000  0.5515960000000 1.0
C      1  0.4474770000000  0.4745410000000  0.5661490000000 1.0
C      1  0.4476310000000  0.5250490000000  0.5678310000000 1.0
C      1  0.5493150000000  0.4666630000000  0.6037920000000 1.0
C      1  0.5468460000000  0.5298160000000  0.6073030000000 1.0
C      1  0.4652940000000  0.4502000000000  0.4185470000000 1.0
C      1  0.4373720000000  0.5431400000000  0.4333430000000 1.0
C      1  0.4307040000000  0.5557060000000  0.4604270000000 1.0
C      1  0.4425030000000  0.4450170000000  0.4361430000000 1.0
C      1  0.5413280000000  0.5893690000000  0.4407910000000 1.0
C      1  0.5502820000000  0.4056460000000  0.4561800000000 1.0
C      1  0.5891520000000  0.4725830000000  0.5401300000000 1.0
C      1  0.5877290000000  0.5238300000000  0.5492850000000 1.0
C      1  0.6015390000000  0.4427780000000  0.4731360000000 1.0
C      1  0.5819410000000  0.5587140000000  0.4608970000000 1.0
C      1  0.5177260000000  0.4680590000000  0.5660770000000 1.0
C      1  0.5141600000000  0.5227790000000  0.5691050000000 1.0
C      1  0.4470150000000  0.4271980000000  0.5162620000000 1.0
C      1  0.4568370000000  0.5799540000000  0.5156870000000 1.0
C      1  0.4691950000000  0.4319190000000  0.5423920000000 1.0
C      1  0.4664280000000  0.5582160000000  0.5625750000000 1.0
C      1  0.5582820000000  0.4504600000000  0.4796830000000 1.0
C      1  0.5739800000000  0.5456070000000  0.4853460000000 1.0
C      1  0.4806160000000  0.5459860000000  0.4000990000000 1.0
C      1  0.5019690000000  0.4424960000000  0.3954750000000 1.0
C      1  0.4516120000000  0.4620670000000  0.4687980000000 1.0
C      1  0.4498520000000  0.5392220000000  0.4779010000000 1.0
C      1  0.4849610000000  0.5834790000000  0.4821820000000 1.0
C      1  0.4804010000000  0.4042740000000  0.4901410000000 1.0
C      1  0.4610080000000  0.5524130000000  0.5022010000000 1.0
C      1  0.4567850000000  0.4521290000000  0.4988630000000 1.0
C      1  0.4786320000000  0.4106660000000  0.4398670000000 1.0
C      1  0.4644230000000  0.5855570000000  0.4339380000000 1.0
C      1  0.5806490000000  0.5302840000000  0.4215500000000 1.0
C      1  0.5825940000000  0.4579770000000  0.4248960000000 1.0
C      1  0.5162810000000  0.4446680000000  0.4240230000000 1.0
C      1  0.5032560000000  0.5561350000000  0.4153770000000 1.0
C      1  0.4867090000000  0.5853750000000  0.5337890000000 1.0
C      1  0.4901490000000  0.4090220000000  0.5425890000000 1.0
C      1  0.5284030000000  0.3961800000000  0.4370940000000 1.0
C      1  0.5139870000000  0.5990770000000  0.4365170000000 1.0
C      1  0.4994940000000  0.5906140000000  0.5077850000000 1.0
C      1  0.4965300000000  0.3956890000000  0.5158510000000 1.0
C      1  0.5083460000000  0.4387000000000  0.5977680000000 1.0
C      1  0.5168060000000  0.5651160000000  0.5964000000000 1.0
C      1  0.5135540000000  0.3814230000000  0.4613140000000 1.0
C      1  0.5080370000000  0.6145920000000  0.4603620000000 1.0
C      1  0.4767370000000  0.5381050000000  0.4632870000000 1.0
C      1  0.4785890000000  0.4493800000000  0.4610540000000 1.0
C      1  0.4181130000000  0.5535630000000  0.5324670000000 1.0
C      1  0.4112500000000  0.4610820000000  0.5248950000000 1.0
C      1  0.5757290000000  0.4283130000000  0.5470420000000 1.0
C      1  0.5708070000000  0.5695340000000  0.5549870000000 1.0
C      1  0.4180500000000  0.4375400000000  0.4835270000000 1.0
C      1  0.4132670000000  0.5848330000000  0.4967510000000 1.0
C      1  0.5450900000000  0.5515510000000  0.4930010000000 1.0
C      1  0.5343530000000  0.4486680000000  0.4938540000000 1.0
C      1  0.4809490000000  0.5177670000000  0.3897360000000 1.0
C      1  0.4901280000000  0.4689970000000  0.3867210000000 1.0
C      1  0.4854710000000  0.3901140000000  0.4631280000000 1.0
C      1  0.4792320000000  0.6072510000000  0.4636750000000 1.0
C      1  0.4433680000000  0.5820560000000  0.4576840000000 1.0
C      1  0.4491910000000  0.4196060000000  0.4470500000000 1.0
C      1  0.4378380000000  0.5296630000000  0.5366980000000 1.0
C      1  0.4357900000000  0.4787590000000  0.5331380000000 1.0
C      1  0.5458900000000  0.5921270000000  0.5270560000000 1.0
C      1  0.5440760000000  0.4153120000000  0.5209720000000 1.0
C      1  0.4035550000000  0.5588440000000  0.4868700000000 1.0
C      1  0.4078450000000  0.4647300000000  0.4750490000000 1.0
C      1  0.3949950000000  0.4711940000000  0.5012770000000 1.0
C      1  0.3984350000000  0.5444240000000  0.5123790000000 1.0
C      1  0.5216680000000  0.5814960000000  0.5725400000000 1.0
C      1  0.5244510000000  0.4218650000000  0.5795930000000 1.0
C      1  0.4643600000000  0.5310270000000  0.5216410000000 1.0
C      1  0.4646320000000  0.4738510000000  0.5192930000000 1.0
C      1  0.4951050000000  0.5756070000000  0.4364830000000 1.0
C      1  0.5105200000000  0.4210950000000  0.4422530000000 1.0
C      1  0.5305540000000  0.5994270000000  0.4775000000000 1.0
C      1  0.5285540000000  0.4013510000000  0.4809930000000 1.0
C      1  0.5487710000000  0.5904900000000  0.5607790000000 1.0
C      1  0.5510340000000  0.4104860000000  0.5536280000000 1.0
C      1  0.5985340000000  0.5267640000000  0.5223050000000 1.0
C      1  0.5924500000000  0.4744100000000  0.5108960000000 1.0
C      1  0.5774610000000  0.4241510000000  0.5161020000000 1.0
C      1  0.5803050000000  0.5742460000000  0.5277020000000 1.0
C      1  0.5725130000000  0.5531520000000  0.4352470000000 1.0
C      1  0.5876780000000  0.4387180000000  0.4481500000000 1.0
C      1  0.4916590000000  0.5539090000000  0.6044320000000 1.0
C      1  0.4872170000000  0.4539470000000  0.5844540000000 1.0
C      1  0.4516950000000  0.4049010000000  0.4963420000000 1.0
C      1  0.4560790000000  0.6044890000000  0.4940180000000 1.0
C      1  0.4975340000000  0.5618320000000  0.4642720000000 1.0
C      1  0.4887210000000  0.4337790000000  0.4857310000000 1.0
C      1  0.5206180000000  0.5349150000000  0.6204810000000 1.0
C      1  0.5230270000000  0.4578270000000  0.6162300000000 1.0
C      1  0.5414760000000  0.5531480000000  0.5257150000000 1.0
C      1  0.5377260000000  0.4548520000000  0.5236640000000 1.0
C      1  0.4799870000000  0.5423730000000  0.5428490000000 1.0
C      1  0.4850370000000  0.4552620000000  0.5324040000000 1.0
C      1  0.5460760000000  0.5628760000000  0.4305630000000 1.0
C      1  0.5583610000000  0.4350330000000  0.4539120000000 1.0
C      1  0.5834180000000  0.4481390000000  0.4958920000000 1.0
C      1  0.5905250000000  0.5531850000000  0.5098260000000 1.0
C      1  0.5257560000000  0.3939880000000  0.5098290000000 1.0
C      1  0.5257280000000  0.6022350000000  0.5071210000000 1.0
C      1  0.5419060000000  0.5334300000000  0.5783340000000 1.0
C      1  0.5460340000000  0.4596360000000  0.5742680000000 1.0
C      1  0.4898140000000  0.4605060000000  0.4344730000000 1.0
C      1  0.4654500000000  0.5302240000000  0.4371070000000 1.0
C      1  0.5616280000000  0.5411210000000  0.5537930000000 1.0
C      1  0.5639420000000  0.4559230000000  0.5470850000000 1.0
C      1  0.5460150000000  0.4504080000000  0.4304740000000 1.0
C      1  0.5303800000000  0.5540980000000  0.4090570000000 1.0
C      1  0.4800660000000  0.5009190000000  0.5134000000000 1.0
C      1  0.4787310000000  0.5118860000000  0.6098240000000 1.0
C      1  0.4345580000000  0.4894190000000  0.3708560000000 1.0
C      1  0.4819700000000  0.4994870000000  0.4842460000000 1.0
C      1  0.5039610000000  0.4779850000000  0.6288990000000 1.0
C      1  0.4877610000000  0.5055770000000  0.5822210000000 1.0
C      1  0.4006310000000  0.4956640000000  0.4359420000000 1.0
C      1  0.5215510000000  0.4966670000000  0.5547830000000 1.0
C      1  0.5656920000000  0.4966240000000  0.5846220000000 1.0
C      1  0.5086600000000  0.4994660000000  0.5268200000000 1.0
C      1  0.4085350000000  0.4948690000000  0.4653210000000 1.0
C      1  0.5819110000000  0.5039110000000  0.5092450000000 1.0
C      1  0.4600410000000  0.4906570000000  0.6198410000000 1.0
C      1  0.4566600000000  0.4882220000000  0.3892570000000 1.0
C      1  0.5076160000000  0.4982130000000  0.4726000000000 1.0
C      1  0.4991830000000  0.4950800000000  0.3992550000000 1.0
C      1  0.6071880000000  0.4950160000000  0.4441380000000 1.0
C      1  0.3909210000000  0.5162350000000  0.5809780000000 1.0
C      1  0.5326540000000  0.4972940000000  0.5116560000000 1.0
C      1  0.5942830000000  0.4920220000000  0.5843140000000 1.0
C      1  0.3971510000000  0.5146950000000  0.5210360000000 1.0
C      1  0.6409740000000  0.5146470000000  0.5040860000000 1.0
C      1  0.3876110000000  0.5130100000000  0.5501790000000 1.0
C      1  0.5119110000000  0.5012040000000  0.4456190000000 1.0
C      1  0.6000700000000  0.4962850000000  0.5564920000000 1.0
C      1  0.3837620000000  0.5083430000000  0.4751830000000 1.0
C      1  0.5314820000000  0.5049010000000  0.4851880000000 1.0
C      1  0.6283580000000  0.4985770000000  0.5520180000000 1.0
C      1  0.6279070000000  0.5152340000000  0.4809330000000 1.0
C      1  0.5760080000000  0.5049320000000  0.4097720000000 1.0
C      1  0.6049150000000  0.5107150000000  0.4665490000000 1.0
C      1  0.4274070000000  0.5063480000000  0.5192800000000 1.0
C      1  0.3624810000000  0.5053910000000  0.4570210000000 1.0
C      1  0.5939590000000  0.4846130000000  0.4221480000000 1.0
C      1  0.4174710000000  0.5041900000000  0.5924880000000 1.0
C      1  0.5566600000000  0.5035490000000  0.6123430000000 1.0
C      1  0.5539190000000  0.5038620000000  0.4673590000000 1.0
C      1  0.5518290000000  0.4981830000000  0.5539420000000 1.0
C      1  0.4185500000000  0.4972810000000  0.4136700000000 1.0
C      1  0.3736170000000  0.5016270000000  0.4324910000000 1.0
C      1  0.5275270000000  0.4998720000000  0.3950370000000 1.0
C      1  0.5398570000000  0.5043000000000  0.4412880000000 1.0
C      1  0.4577870000000  0.4923820000000  0.4680710000000 1.0
C      1  0.4116710000000  0.5005780000000  0.5632650000000 1.0
C      1  0.4455980000000  0.4897630000000  0.4166110000000 1.0
C      1  0.4639490000000  0.5004280000000  0.4374750000000 1.0
C      1  0.4917360000000  0.4902380000000  0.4290030000000 1.0
C      1  0.5785420000000  0.5151190000000  0.4804870000000 1.0
C      1  0.4766110000000  0.4695850000000  0.6296460000000 1.0
C      1  0.4125690000000  0.4940060000000  0.3865450000000 1.0
C      1  0.4380740000000  0.4853210000000  0.6010590000000 1.0
C      1  0.5562880000000  0.5036990000000  0.5252800000000 1.0
C      1  0.5050360000000  0.5082970000000  0.6230030000000 1.0
C      1  0.5477740000000  0.4972490000000  0.4143960000000 1.0
C      1  0.6388980000000  0.5104600000000  0.5303460000000 1.0
C      1  0.3819900000000  0.4979550000000  0.5022500000000 1.0
C      1  0.4354290000000  0.5091670000000  0.4824090000000 1.0
C      1  0.4648340000000  0.5005600000000  0.5644400000000 1.0
END
