TITL C-3578206-1180-118 -1.14634747840913e-06 125000 -295.077779070645 0 0 48 (C4) n - 1
REM
REM in /home/bkarasulu/work/CARBON/AIRSS/Generating-Clusters/EDIP-Nigel-Params/with-SteepDescent/Higher-Symm/SD-CG/HFTN-CG
REM
REM
REM
REM
REM
REM ./C.cell (12c818d87b63d06a65506943cc24bca4)
REM
REM compiler GCC version 9.2.1 20190827 (Red Hat 9.2.1-1)
REM options -cpp -mtune=generic -march=x86-64 -g -O0 -fpre-include=/usr/include/finclude/math-vector-fortran.h
REM seed -970220666 1269128123 1030321032 459717306 -1050590282 -1599394425 2063550769 1248183926 1531011483 2018036175 2065840919 -735727522 -1437305866 -978890447 899101240 768453337 -1083762734 1501400154 694332134 40919697 1901139248 1733130974 -9459506 -899050033 -1614845745 -1134542914 -655154367 -116026862 742037382 30068873 1535108171 1144560264 1576953195
REM
CELL 1.54180   50.00000   50.00000   50.00000   90.00000   90.00000   90.00000
LATT -1
SFAC C  
C      1  0.4503350000000  0.5286840000000  0.4648500000000 1.0
C      1  0.5286640000000  0.5496530000000  0.4648170000000 1.0
C      1  0.5496330000000  0.4713240000000  0.4647990000000 1.0
C      1  0.4713040000000  0.4503550000000  0.4648320000000 1.0
C      1  0.5495290000000  0.5288620000000  0.4648050000000 1.0
C      1  0.4711260000000  0.5495490000000  0.4648430000000 1.0
C      1  0.4504390000000  0.4711450000000  0.4648430000000 1.0
C      1  0.5288430000000  0.4504580000000  0.4648060000000 1.0
C      1  0.4452350000000  0.5132920000000  0.5566170000000 1.0
C      1  0.5133240000000  0.5547850000000  0.5565900000000 1.0
C      1  0.5548170000000  0.4866960000000  0.5565640000000 1.0
C      1  0.4867280000000  0.4452030000000  0.5565900000000 1.0
C      1  0.5547680000000  0.5134890000000  0.5565670000000 1.0
C      1  0.4865300000000  0.5547370000000  0.5566030000000 1.0
C      1  0.4452830000000  0.4864980000000  0.5566140000000 1.0
C      1  0.5135210000000  0.4452510000000  0.5565780000000 1.0
C      1  0.4856970000000  0.5411380000000  0.4409950000000 1.0
C      1  0.5411050000000  0.5142820000000  0.4409670000000 1.0
C      1  0.5142490000000  0.4588750000000  0.4409730000000 1.0
C      1  0.4588420000000  0.4857310000000  0.4410010000000 1.0
C      1  0.5141010000000  0.5411890000000  0.4409820000000 1.0
C      1  0.4587910000000  0.5141340000000  0.4410040000000 1.0
C      1  0.4858460000000  0.4588240000000  0.4409860000000 1.0
C      1  0.5411560000000  0.4858790000000  0.4409640000000 1.0
C      1  0.4414930000000  0.4854960000000  0.4888040000000 1.0
C      1  0.4854900000000  0.5585030000000  0.4887930000000 1.0
C      1  0.5584970000000  0.5145060000000  0.4887550000000 1.0
C      1  0.5145000000000  0.4414990000000  0.4887670000000 1.0
C      1  0.5585490000000  0.4857070000000  0.4887520000000 1.0
C      1  0.5142890000000  0.5585550000000  0.4887800000000 1.0
C      1  0.4414410000000  0.5142950000000  0.4888080000000 1.0
C      1  0.4857010000000  0.4414470000000  0.4887800000000 1.0
C      1  0.5280330000000  0.4351970000000  0.5121710000000 1.0
C      1  0.4352030000000  0.4719710000000  0.5122170000000 1.0
C      1  0.4719780000000  0.5648010000000  0.5122110000000 1.0
C      1  0.5648080000000  0.5280270000000  0.5121650000000 1.0
C      1  0.4722110000000  0.4350960000000  0.5121960000000 1.0
C      1  0.5649080000000  0.4722040000000  0.5121580000000 1.0
C      1  0.5278000000000  0.5649010000000  0.5121850000000 1.0
C      1  0.4351030000000  0.5277930000000  0.5122230000000 1.0
C      1  0.4474400000000  0.4674590000000  0.5366510000000 1.0
C      1  0.4674800000000  0.5525730000000  0.5366510000000 1.0
C      1  0.5525930000000  0.5325330000000  0.5366100000000 1.0
C      1  0.5325530000000  0.4474190000000  0.5366100000000 1.0
C      1  0.5527100000000  0.4676490000000  0.5366030000000 1.0
C      1  0.5323640000000  0.5526890000000  0.5366220000000 1.0
C      1  0.4473230000000  0.5323430000000  0.5366580000000 1.0
C      1  0.4676700000000  0.4473020000000  0.5366390000000 1.0
END
