TITL C-3577085-527-235 -1.12910749580862e-06 125000 -193.707942051492 0 0 33 (C1) n - 1
REM
REM in /home/bkarasulu/work/CARBON/AIRSS/Generating-Clusters/EDIP-Nigel-Params/with-SteepDescent/Higher-Symm/SD-CG/HFTN-CG
REM
REM
REM
REM
REM
REM ./C.cell (12c818d87b63d06a65506943cc24bca4)
REM
REM compiler GCC version 9.2.1 20190827 (Red Hat 9.2.1-1)
REM options -cpp -mtune=generic -march=x86-64 -g -O0 -fpre-include=/usr/include/finclude/math-vector-fortran.h
REM seed -435318078 -865618822 -1260534503 2042809963 1755733659 772221974 -1348802849 1982260250 -30241170 -73222127 -376622604 -184122267 195728201 1171683796 795393352 1877988532 -964631892 1125846059 -682834369 1253776985 149242629 481300992 1811067180 722131938 1496451750 -1990493120 701361924 961228105 -1837541758 100647728 1971655890 1457864493 -706907760
REM
CELL 1.54180   50.00000   50.00000   50.00000   90.00000   90.00000   90.00000
LATT -1
SFAC C  
C      1  0.5190590000000  0.5488520000000  0.4976320000000 1.0
C      1  0.4863600000000  0.4446430000000  0.5095200000000 1.0
C      1  0.5066760000000  0.5342510000000  0.4578750000000 1.0
C      1  0.4947920000000  0.4705190000000  0.5446280000000 1.0
C      1  0.4641100000000  0.4581930000000  0.4953910000000 1.0
C      1  0.5329560000000  0.5209780000000  0.4990090000000 1.0
C      1  0.4698930000000  0.5083540000000  0.5258430000000 1.0
C      1  0.5292050000000  0.4909110000000  0.4690350000000 1.0
C      1  0.5660640000000  0.5148860000000  0.4705450000000 1.0
C      1  0.4347530000000  0.4815970000000  0.5282800000000 1.0
C      1  0.4894660000000  0.5451380000000  0.5012340000000 1.0
C      1  0.5118610000000  0.4574030000000  0.5008090000000 1.0
C      1  0.5581280000000  0.4877450000000  0.4739180000000 1.0
C      1  0.4423620000000  0.5072260000000  0.5184230000000 1.0
C      1  0.4401530000000  0.4613460000000  0.5097770000000 1.0
C      1  0.5613760000000  0.5276120000000  0.4949400000000 1.0
C      1  0.4830930000000  0.5341430000000  0.5279450000000 1.0
C      1  0.5148410000000  0.4643570000000  0.4717230000000 1.0
C      1  0.4929260000000  0.4590670000000  0.4536800000000 1.0
C      1  0.5049680000000  0.5351900000000  0.5455520000000 1.0
C      1  0.5203320000000  0.5570370000000  0.4700430000000 1.0
C      1  0.4842540000000  0.4447260000000  0.5381130000000 1.0
C      1  0.4476190000000  0.4771690000000  0.5532800000000 1.0
C      1  0.5529750000000  0.5256940000000  0.4476880000000 1.0
C      1  0.5274490000000  0.5205700000000  0.5479750000000 1.0
C      1  0.4738390000000  0.4785690000000  0.4502950000000 1.0
C      1  0.5143350000000  0.4788400000000  0.5231640000000 1.0
C      1  0.4873400000000  0.5240130000000  0.4794130000000 1.0
C      1  0.5269240000000  0.5137660000000  0.4490910000000 1.0
C      1  0.4729560000000  0.4901490000000  0.5489510000000 1.0
C      1  0.4748160000000  0.4818140000000  0.4794440000000 1.0
C      1  0.5299150000000  0.5052130000000  0.5246790000000 1.0
C      1  0.4990520000000  0.4993510000000  0.4935120000000 1.0
END
