TITL C-3578196-9646-232 -3.8295075757778e-07 125000 -285.909338440133 0 0 46 (C1) n - 1
REM
REM in /home/bkarasulu/work/CARBON/AIRSS/Generating-Clusters/EDIP-Nigel-Params/with-SteepDescent/Higher-Symm/SD-CG/HFTN-CG
REM
REM
REM
REM
REM
REM ./C.cell (12c818d87b63d06a65506943cc24bca4)
REM
REM compiler GCC version 9.2.1 20190827 (Red Hat 9.2.1-1)
REM options -cpp -mtune=generic -march=x86-64 -g -O0 -fpre-include=/usr/include/finclude/math-vector-fortran.h
REM seed -1119005870 -701283412 1973351388 2102756202 787941499 -1768571774 -426952177 211983863 -936799336 -1213107193 -472518325 -1849835983 -1554312004 -1492672162 801316150 44669981 635473906 -809876839 -1583691466 -942614124 -1576219290 1378539207 1975961567 -1336539350 -54357135 -1773172429 391065350 -1027801634 -768712188 -1728549367 936138120 1453282935 -1732257679
REM
CELL 1.54180   50.00000   50.00000   50.00000   90.00000   90.00000   90.00000
LATT -1
SFAC C  
C      1  0.4363350000000  0.5344830000000  0.4968690000000 1.0
C      1  0.4374790000000  0.5135040000000  0.4544690000000 1.0
C      1  0.4357440000000  0.4718220000000  0.4771090000000 1.0
C      1  0.4417230000000  0.4657010000000  0.5252610000000 1.0
C      1  0.4453910000000  0.5097100000000  0.5379830000000 1.0
C      1  0.5493530000000  0.5090730000000  0.5212570000000 1.0
C      1  0.5503570000000  0.5231290000000  0.4959990000000 1.0
C      1  0.5500770000000  0.5035160000000  0.4749550000000 1.0
C      1  0.5492040000000  0.4773390000000  0.4871550000000 1.0
C      1  0.5487720000000  0.4807180000000  0.5158090000000 1.0
C      1  0.5251350000000  0.5126560000000  0.4300570000000 1.0
C      1  0.5201620000000  0.4387940000000  0.4683950000000 1.0
C      1  0.5191660000000  0.4506970000000  0.5480870000000 1.0
C      1  0.5231770000000  0.5282070000000  0.5621160000000 1.0
C      1  0.5255230000000  0.5686200000000  0.4896210000000 1.0
C      1  0.5463770000000  0.5503410000000  0.4920200000000 1.0
C      1  0.5460350000000  0.5092700000000  0.4480910000000 1.0
C      1  0.5432220000000  0.4533580000000  0.4743750000000 1.0
C      1  0.5412450000000  0.4609350000000  0.5339470000000 1.0
C      1  0.5445050000000  0.5203840000000  0.5461370000000 1.0
C      1  0.4961340000000  0.5485300000000  0.5238740000000 1.0
C      1  0.4952700000000  0.5436730000000  0.4576740000000 1.0
C      1  0.4947940000000  0.4772550000000  0.4457350000000 1.0
C      1  0.4975010000000  0.4532380000000  0.5037060000000 1.0
C      1  0.4984310000000  0.4842880000000  0.5683790000000 1.0
C      1  0.5096970000000  0.4901830000000  0.4264730000000 1.0
C      1  0.5057810000000  0.4298160000000  0.4905270000000 1.0
C      1  0.5144730000000  0.4617890000000  0.5735830000000 1.0
C      1  0.5049430000000  0.5443020000000  0.5494820000000 1.0
C      1  0.5092880000000  0.5651630000000  0.4676340000000 1.0
C      1  0.4808410000000  0.5263840000000  0.5092710000000 1.0
C      1  0.4784960000000  0.5253050000000  0.4756170000000 1.0
C      1  0.4785980000000  0.4920150000000  0.4671090000000 1.0
C      1  0.4805740000000  0.4774790000000  0.4953270000000 1.0
C      1  0.4836710000000  0.4813030000000  0.5416730000000 1.0
C      1  0.4534980000000  0.4833880000000  0.5433600000000 1.0
C      1  0.4526740000000  0.5284190000000  0.5185200000000 1.0
C      1  0.4493320000000  0.5314880000000  0.4722310000000 1.0
C      1  0.4496310000000  0.4888870000000  0.4598310000000 1.0
C      1  0.4520400000000  0.4690920000000  0.4994890000000 1.0
C      1  0.5101530000000  0.5081360000000  0.5755290000000 1.0
C      1  0.5091160000000  0.5695470000000  0.5116790000000 1.0
C      1  0.5081420000000  0.5336050000000  0.4355680000000 1.0
C      1  0.5033220000000  0.4515600000000  0.4506580000000 1.0
C      1  0.4942080000000  0.4537350000000  0.5327160000000 1.0
C      1  0.4901940000000  0.4983390000000  0.5162920000000 1.0
END
