TITL C-3578203-1966-386 1.3367987945261e-06 125000 -439.466713252859 0 0 73 (C1) n - 1
REM
REM in /home/bkarasulu/work/CARBON/AIRSS/Generating-Clusters/EDIP-Nigel-Params/with-SteepDescent/Higher-Symm/SD-CG/HFTN-CG
REM
REM
REM
REM
REM
REM ./C.cell (12c818d87b63d06a65506943cc24bca4)
REM
REM compiler GCC version 9.2.1 20190827 (Red Hat 9.2.1-1)
REM options -cpp -mtune=generic -march=x86-64 -g -O0 -fpre-include=/usr/include/finclude/math-vector-fortran.h
REM seed 1547590590 505862875 2133457715 1222055398 1879437911 1464509077 -1321115166 -1228072557 419841554 -1354701542 328062615 -653402314 2118725915 -1294678682 879019277 596915103 593636447 307056881 999873708 -447656474 -1571561289 -1829379262 -1559289553 -1812776193 797180501 -30932973 1742134803 541154610 1498655344 -1638473115 -186855682 -892675889 1254156675
REM
CELL 1.54180   50.00000   50.00000   50.00000   90.00000   90.00000   90.00000
LATT -1
SFAC C  
C      1  0.4856130000000  0.4579840000000  0.5659160000000 1.0
C      1  0.4371020000000  0.4584800000000  0.5206730000000 1.0
C      1  0.4530370000000  0.4580360000000  0.4556280000000 1.0
C      1  0.5161210000000  0.4601060000000  0.4378460000000 1.0
C      1  0.5598080000000  0.4574560000000  0.4800260000000 1.0
C      1  0.5469000000000  0.4585920000000  0.5452000000000 1.0
C      1  0.5686240000000  0.5284670000000  0.5047100000000 1.0
C      1  0.5324220000000  0.5303200000000  0.5684710000000 1.0
C      1  0.4589120000000  0.5281290000000  0.5604030000000 1.0
C      1  0.4301460000000  0.5286750000000  0.4931220000000 1.0
C      1  0.4685750000000  0.5276820000000  0.4322330000000 1.0
C      1  0.5415480000000  0.5331030000000  0.4374090000000 1.0
C      1  0.4487110000000  0.5406460000000  0.5142620000000 1.0
C      1  0.4573470000000  0.5441760000000  0.4546540000000 1.0
C      1  0.5145780000000  0.5453740000000  0.4401870000000 1.0
C      1  0.5471280000000  0.5379240000000  0.4860680000000 1.0
C      1  0.5393420000000  0.5405760000000  0.5403620000000 1.0
C      1  0.4862940000000  0.5407020000000  0.5557730000000 1.0
C      1  0.5316760000000  0.4534490000000  0.4642680000000 1.0
C      1  0.5480510000000  0.4519920000000  0.5100720000000 1.0
C      1  0.5157370000000  0.4533770000000  0.5479410000000 1.0
C      1  0.4672060000000  0.4527760000000  0.5399550000000 1.0
C      1  0.4508880000000  0.4523800000000  0.4928230000000 1.0
C      1  0.4835220000000  0.4528670000000  0.4552150000000 1.0
C      1  0.5214540000000  0.5599660000000  0.5231680000000 1.0
C      1  0.4926070000000  0.5605460000000  0.5313430000000 1.0
C      1  0.4709880000000  0.5632930000000  0.5105900000000 1.0
C      1  0.4789670000000  0.5648910000000  0.4811820000000 1.0
C      1  0.5089410000000  0.5649630000000  0.4727040000000 1.0
C      1  0.5295110000000  0.5613640000000  0.4943850000000 1.0
C      1  0.5185500000000  0.4770360000000  0.4787340000000 1.0
C      1  0.5293810000000  0.4773260000000  0.5074400000000 1.0
C      1  0.5090930000000  0.4767000000000  0.5302280000000 1.0
C      1  0.4782660000000  0.4792930000000  0.5265720000000 1.0
C      1  0.4681060000000  0.4783270000000  0.4958530000000 1.0
C      1  0.4885830000000  0.4783720000000  0.4722360000000 1.0
C      1  0.4895460000000  0.4299350000000  0.4738050000000 1.0
C      1  0.5186600000000  0.4297230000000  0.4785780000000 1.0
C      1  0.5286870000000  0.4289220000000  0.5067070000000 1.0
C      1  0.5096200000000  0.4294610000000  0.5298550000000 1.0
C      1  0.4804070000000  0.4300310000000  0.5245980000000 1.0
C      1  0.4706140000000  0.4300420000000  0.4966990000000 1.0
C      1  0.4699930000000  0.5191860000000  0.5100700000000 1.0
C      1  0.4764340000000  0.5359890000000  0.4757160000000 1.0
C      1  0.5034520000000  0.5274910000000  0.4625900000000 1.0
C      1  0.5257080000000  0.5150830000000  0.4825110000000 1.0
C      1  0.5269960000000  0.5161820000000  0.5265810000000 1.0
C      1  0.4960330000000  0.5170690000000  0.5390070000000 1.0
C      1  0.4372500000000  0.5321480000000  0.5412550000000 1.0
C      1  0.4315960000000  0.5308810000000  0.4634370000000 1.0
C      1  0.4953260000000  0.5319780000000  0.4195450000000 1.0
C      1  0.5600040000000  0.5399360000000  0.4590840000000 1.0
C      1  0.5678520000000  0.5319010000000  0.5338760000000 1.0
C      1  0.5047340000000  0.5322210000000  0.5794590000000 1.0
C      1  0.5011640000000  0.5028400000000  0.4147200000000 1.0
C      1  0.5660170000000  0.5016140000000  0.4564370000000 1.0
C      1  0.5728430000000  0.5027080000000  0.5407690000000 1.0
C      1  0.4998110000000  0.5031220000000  0.5864570000000 1.0
C      1  0.4259280000000  0.5043610000000  0.5412120000000 1.0
C      1  0.4284660000000  0.5020320000000  0.4556300000000 1.0
C      1  0.4349190000000  0.4987780000000  0.4936550000000 1.0
C      1  0.4749700000000  0.5003260000000  0.4430110000000 1.0
C      1  0.5405740000000  0.5040650000000  0.4424480000000 1.0
C      1  0.5610120000000  0.4995680000000  0.5044610000000 1.0
C      1  0.5291700000000  0.4999160000000  0.5618370000000 1.0
C      1  0.4609060000000  0.4978770000000  0.5562900000000 1.0
C      1  0.5542470000000  0.4854850000000  0.5555660000000 1.0
C      1  0.4789730000000  0.4852120000000  0.5760980000000 1.0
C      1  0.4257860000000  0.4858960000000  0.5186430000000 1.0
C      1  0.4496550000000  0.4852100000000  0.4456370000000 1.0
C      1  0.5216550000000  0.4872730000000  0.4280130000000 1.0
C      1  0.5709100000000  0.4852290000000  0.4800990000000 1.0
C      1  0.4992910000000  0.5091840000000  0.5019430000000 1.0
END
