TITL C-3578205-846-692 6.93684825278911e-07 125000 -187.088440747429 0 0 35 (Cs) n - 1
REM
REM in /home/bkarasulu/work/CARBON/AIRSS/Generating-Clusters/EDIP-Nigel-Params/with-SteepDescent/Higher-Symm/SD-CG/HFTN-CG
REM
REM
REM
REM
REM
REM ./C.cell (12c818d87b63d06a65506943cc24bca4)
REM
REM compiler GCC version 9.2.1 20190827 (Red Hat 9.2.1-1)
REM options -cpp -mtune=generic -march=x86-64 -g -O0 -fpre-include=/usr/include/finclude/math-vector-fortran.h
REM seed 1718263749 -531662366 711489834 615250908 1982431890 449614157 113103054 -515072688 -607060459 -795060105 508188628 1581929196 -1474825852 535118411 -379290501 -731837087 -1955226809 1339078552 1694046394 -39969991 1949494743 359932156 -1551527177 972569260 -1395699717 -1270040644 968104183 -1876872669 760514881 294856062 -988771470 1416820584 266547827
REM
CELL 1.54180   50.00000   50.00000   50.00000   90.00000   90.00000   90.00000
LATT -1
SFAC C  
C      1  0.5210080000000  0.4355230000000  0.4848900000000 1.0
C      1  0.5203940000000  0.5658260000000  0.5159830000000 1.0
C      1  0.4891270000000  0.4332670000000  0.4846160000000 1.0
C      1  0.4886890000000  0.5667660000000  0.5150820000000 1.0
C      1  0.5203750000000  0.4353950000000  0.5159790000000 1.0
C      1  0.5210270000000  0.5657000000000  0.4848940000000 1.0
C      1  0.4886700000000  0.4344650000000  0.5150780000000 1.0
C      1  0.4891470000000  0.5679660000000  0.4846200000000 1.0
C      1  0.5195340000000  0.5361650000000  0.5252140000000 1.0
C      1  0.5187590000000  0.4651460000000  0.4761750000000 1.0
C      1  0.4756050000000  0.5405530000000  0.5257720000000 1.0
C      1  0.4755990000000  0.4561700000000  0.4711990000000 1.0
C      1  0.5187700000000  0.5360780000000  0.4761770000000 1.0
C      1  0.5195230000000  0.4650570000000  0.5252120000000 1.0
C      1  0.4756120000000  0.5450670000000  0.4712010000000 1.0
C      1  0.4755930000000  0.4606810000000  0.5257700000000 1.0
C      1  0.5455540000000  0.4815540000000  0.5252780000000 1.0
C      1  0.5448190000000  0.5196060000000  0.4750350000000 1.0
C      1  0.4532740000000  0.4814500000000  0.5233240000000 1.0
C      1  0.4641830000000  0.5199730000000  0.4805840000000 1.0
C      1  0.5448130000000  0.4816100000000  0.4750340000000 1.0
C      1  0.5455590000000  0.5196600000000  0.5252790000000 1.0
C      1  0.4641770000000  0.4812670000000  0.4805830000000 1.0
C      1  0.4532800000000  0.5197910000000  0.5233250000000 1.0
C      1  0.5349030000000  0.4864510000000  0.4481030000000 1.0
C      1  0.5370440000000  0.5147430000000  0.5525860000000 1.0
C      1  0.4615660000000  0.4864310000000  0.4522200000000 1.0
C      1  0.4607300000000  0.5147420000000  0.5509050000000 1.0
C      1  0.5370400000000  0.4864720000000  0.5525850000000 1.0
C      1  0.5349070000000  0.5147700000000  0.4481030000000 1.0
C      1  0.4607260000000  0.4864950000000  0.5509050000000 1.0
C      1  0.4615700000000  0.5148120000000  0.4522210000000 1.0
C      1  0.5027020000000  0.5272640000000  0.5009290000000 1.0
C      1  0.5026940000000  0.4739640000000  0.5009280000000 1.0
C      1  0.4985180000000  0.5006140000000  0.5008570000000 1.0
END
