TITL C-3578197-9521-689 8.26365617109751e-07 125000 -350.521047460545 0 0 58 (Cs) n - 1
REM
REM in /home/bkarasulu/work/CARBON/AIRSS/Generating-Clusters/EDIP-Nigel-Params/with-SteepDescent/Higher-Symm/SD-CG/HFTN-CG
REM
REM
REM
REM
REM
REM ./C.cell (12c818d87b63d06a65506943cc24bca4)
REM
REM compiler GCC version 9.2.1 20190827 (Red Hat 9.2.1-1)
REM options -cpp -mtune=generic -march=x86-64 -g -O0 -fpre-include=/usr/include/finclude/math-vector-fortran.h
REM seed -1736192329 220434240 760193953 -1478327825 1621673443 1640892427 2041656660 -565805972 2048372861 1588461051 -1247466750 -187730368 1538836877 1328703000 136879303 -423629974 -145626665 -815663049 1981980278 -1742302494 1513164190 -1206113944 781127618 -997365839 582875191 704836991 -1066904690 -544159307 991321754 758247145 2013585755 -894767602 -889772160
REM
CELL 1.54180   50.00000   50.00000   50.00000   90.00000   90.00000   90.00000
LATT -1
SFAC C  
C      1  0.4208620000000  0.5203140000000  0.4817820000000 1.0
C      1  0.4396010000000  0.5603420000000  0.4819750000000 1.0
C      1  0.4819150000000  0.5790050000000  0.4847850000000 1.0
C      1  0.5254490000000  0.5709200000000  0.4872480000000 1.0
C      1  0.5608390000000  0.5441250000000  0.4872710000000 1.0
C      1  0.5804310000000  0.5044150000000  0.4848490000000 1.0
C      1  0.5739480000000  0.4586230000000  0.4820630000000 1.0
C      1  0.5405030000000  0.4297290000000  0.4818610000000 1.0
C      1  0.4946960000000  0.4209330000000  0.4844050000000 1.0
C      1  0.4563860000000  0.4429380000000  0.4897590000000 1.0
C      1  0.4248190000000  0.4738390000000  0.4843590000000 1.0
C      1  0.4757310000000  0.4282470000000  0.5066430000000 1.0
C      1  0.4369840000000  0.4575840000000  0.5066180000000 1.0
C      1  0.4145170000000  0.4980530000000  0.4989100000000 1.0
C      1  0.4239570000000  0.5429640000000  0.4994230000000 1.0
C      1  0.4597700000000  0.5691680000000  0.5006540000000 1.0
C      1  0.5034600000000  0.5771190000000  0.5051040000000 1.0
C      1  0.5459390000000  0.5612280000000  0.5033450000000 1.0
C      1  0.5727550000000  0.5246530000000  0.5051500000000 1.0
C      1  0.5769570000000  0.4804420000000  0.5007310000000 1.0
C      1  0.5614500000000  0.4388630000000  0.4995130000000 1.0
C      1  0.5207840000000  0.4175940000000  0.4989800000000 1.0
C      1  0.4712240000000  0.4625210000000  0.4724790000000 1.0
C      1  0.4487940000000  0.4832350000000  0.4674060000000 1.0
C      1  0.4466360000000  0.5138690000000  0.4684640000000 1.0
C      1  0.4575620000000  0.5426290000000  0.4645840000000 1.0
C      1  0.4860740000000  0.5556170000000  0.4660140000000 1.0
C      1  0.5169030000000  0.5505320000000  0.4671420000000 1.0
C      1  0.5435500000000  0.5303570000000  0.4671590000000 1.0
C      1  0.5568080000000  0.5020620000000  0.4660600000000 1.0
C      1  0.5520410000000  0.4710950000000  0.4646460000000 1.0
C      1  0.5273200000000  0.4527800000000  0.4685170000000 1.0
C      1  0.4972500000000  0.4465470000000  0.4674380000000 1.0
C      1  0.5453140000000  0.4927390000000  0.5620450000000 1.0
C      1  0.5356980000000  0.4671420000000  0.5567820000000 1.0
C      1  0.5089520000000  0.4634280000000  0.5642480000000 1.0
C      1  0.4860350000000  0.4581610000000  0.5491970000000 1.0
C      1  0.4629460000000  0.4756430000000  0.5491820000000 1.0
C      1  0.4617880000000  0.4991380000000  0.5642170000000 1.0
C      1  0.4581140000000  0.5258850000000  0.5567310000000 1.0
C      1  0.4801380000000  0.5420860000000  0.5620020000000 1.0
C      1  0.5036830000000  0.5491590000000  0.5491870000000 1.0
C      1  0.5269870000000  0.5362430000000  0.5568030000000 1.0
C      1  0.5457460000000  0.5173120000000  0.5492140000000 1.0
C      1  0.5225620000000  0.5303540000000  0.5056960000000 1.0
C      1  0.5473920000000  0.5132040000000  0.5197990000000 1.0
C      1  0.5502920000000  0.4825700000000  0.5138050000000 1.0
C      1  0.5436410000000  0.4556390000000  0.5290240000000 1.0
C      1  0.5197150000000  0.4360900000000  0.5225800000000 1.0
C      1  0.4925110000000  0.4450430000000  0.5245340000000 1.0
C      1  0.4485840000000  0.4783020000000  0.5245050000000 1.0
C      1  0.4325900000000  0.5020560000000  0.5225230000000 1.0
C      1  0.4449100000000  0.5303920000000  0.5289590000000 1.0
C      1  0.4690410000000  0.5440890000000  0.5137520000000 1.0
C      1  0.4993070000000  0.5496110000000  0.5197670000000 1.0
C      1  0.5013290000000  0.5022750000000  0.4635390000000 1.0
C      1  0.5088780000000  0.5122660000000  0.4874820000000 1.0
C      1  0.4970500000000  0.4966020000000  0.4387510000000 1.0
END
