TITL C-3577081-279-540 8.45752420331951e-07 125000 -1177.57281968503 0 0 187 (C1) n - 1
REM
REM in /home/bkarasulu/work/CARBON/AIRSS/Generating-Clusters/EDIP-Nigel-Params/with-SteepDescent/Higher-Symm/SD-CG/HFTN-CG
REM
REM
REM
REM
REM
REM ./C.cell (12c818d87b63d06a65506943cc24bca4)
REM
REM compiler GCC version 9.2.1 20190827 (Red Hat 9.2.1-1)
REM options -cpp -mtune=generic -march=x86-64 -g -O0 -fpre-include=/usr/include/finclude/math-vector-fortran.h
REM seed 772550283 -1723107989 -855495763 435512013 -2130240864 -1194492147 -979147000 -786836042 -1800123579 -1193170558 465636384 -683932216 -274051131 501381266 -1425751087 1820349461 -395132870 -1458908347 664478102 700128091 933137006 850466912 1093632965 -1179624327 29528970 646929789 1181833457 1666604875 -8898350 -1744960536 192343195 -1940453025 -984548327
REM
CELL 1.54180   50.00000   50.00000   50.00000   90.00000   90.00000   90.00000
LATT -1
SFAC C  
C      1  0.5932030000000  0.5288500000000  0.4625500000000 1.0
C      1  0.4100600000000  0.4702320000000  0.4600980000000 1.0
C      1  0.5463390000000  0.4038500000000  0.4710640000000 1.0
C      1  0.4517150000000  0.5944710000000  0.4696180000000 1.0
C      1  0.6023400000000  0.4879310000000  0.4922630000000 1.0
C      1  0.4003460000000  0.5112840000000  0.4907770000000 1.0
C      1  0.5868290000000  0.5745050000000  0.4853750000000 1.0
C      1  0.4146000000000  0.4258320000000  0.4803030000000 1.0
C      1  0.3952140000000  0.4916110000000  0.5113330000000 1.0
C      1  0.6073810000000  0.5077210000000  0.5131690000000 1.0
C      1  0.5568550000000  0.5875030000000  0.5300960000000 1.0
C      1  0.4422160000000  0.4119750000000  0.5346530000000 1.0
C      1  0.4072880000000  0.4514470000000  0.5525120000000 1.0
C      1  0.5946930000000  0.5468930000000  0.5517760000000 1.0
C      1  0.5198920000000  0.5284060000000  0.6125410000000 1.0
C      1  0.4794080000000  0.4724490000000  0.6134590000000 1.0
C      1  0.5012450000000  0.5840500000000  0.4078160000000 1.0
C      1  0.5026090000000  0.4176770000000  0.4044510000000 1.0
C      1  0.5962610000000  0.4508380000000  0.5283230000000 1.0
C      1  0.4015580000000  0.5488570000000  0.5278710000000 1.0
C      1  0.5041790000000  0.4012790000000  0.5473490000000 1.0
C      1  0.4975980000000  0.5986360000000  0.5454000000000 1.0
C      1  0.5799310000000  0.4643620000000  0.5704850000000 1.0
C      1  0.4170720000000  0.5358340000000  0.5708690000000 1.0
C      1  0.4889100000000  0.4919480000000  0.3813740000000 1.0
C      1  0.5109770000000  0.5131730000000  0.3813530000000 1.0
C      1  0.5637950000000  0.4195810000000  0.4908490000000 1.0
C      1  0.4324980000000  0.5811290000000  0.4903910000000 1.0
C      1  0.5878470000000  0.4364670000000  0.4828260000000 1.0
C      1  0.4102080000000  0.5627330000000  0.4821180000000 1.0
C      1  0.4882350000000  0.5851560000000  0.4339750000000 1.0
C      1  0.5098070000000  0.4116520000000  0.4321020000000 1.0
C      1  0.5291910000000  0.5568480000000  0.5139380000000 1.0
C      1  0.4735790000000  0.4365860000000  0.5163610000000 1.0
C      1  0.5783050000000  0.4301650000000  0.5386450000000 1.0
C      1  0.4182110000000  0.5703210000000  0.5389200000000 1.0
C      1  0.4835610000000  0.4469010000000  0.5408890000000 1.0
C      1  0.5156830000000  0.5504380000000  0.5388830000000 1.0
C      1  0.4174480000000  0.5493680000000  0.4580200000000 1.0
C      1  0.5823110000000  0.4507980000000  0.4586620000000 1.0
C      1  0.5308630000000  0.5528670000000  0.5706060000000 1.0
C      1  0.4682030000000  0.4462290000000  0.5732110000000 1.0
C      1  0.4827320000000  0.5158560000000  0.5474680000000 1.0
C      1  0.5127050000000  0.4831690000000  0.5480990000000 1.0
C      1  0.5667160000000  0.5359540000000  0.4534130000000 1.0
C      1  0.4379700000000  0.4645390000000  0.4532420000000 1.0
C      1  0.5994620000000  0.5473950000000  0.4846010000000 1.0
C      1  0.4018530000000  0.4511410000000  0.4812480000000 1.0
C      1  0.5326560000000  0.3839010000000  0.4845330000000 1.0
C      1  0.4747190000000  0.6041010000000  0.4826130000000 1.0
C      1  0.5691350000000  0.4361290000000  0.5658380000000 1.0
C      1  0.4272140000000  0.5644400000000  0.5667380000000 1.0
C      1  0.5156830000000  0.5115530000000  0.4822430000000 1.0
C      1  0.4732540000000  0.4838090000000  0.4815010000000 1.0
C      1  0.5108990000000  0.6009390000000  0.4411970000000 1.0
C      1  0.4890650000000  0.3917710000000  0.4298590000000 1.0
C      1  0.5201810000000  0.4781920000000  0.5980830000000 1.0
C      1  0.4781220000000  0.5232910000000  0.5977920000000 1.0
C      1  0.5191520000000  0.5215350000000  0.4286100000000 1.0
C      1  0.4760200000000  0.4715000000000  0.4317340000000 1.0
C      1  0.4389750000000  0.4634280000000  0.5116580000000 1.0
C      1  0.5547650000000  0.5432040000000  0.5086840000000 1.0
C      1  0.4894970000000  0.4752980000000  0.5306080000000 1.0
C      1  0.5059180000000  0.5222890000000  0.5296120000000 1.0
C      1  0.5450830000000  0.5926030000000  0.5566240000000 1.0
C      1  0.4556930000000  0.4053460000000  0.5603160000000 1.0
C      1  0.5666850000000  0.5285210000000  0.4068250000000 1.0
C      1  0.4422930000000  0.4694550000000  0.4078630000000 1.0
C      1  0.4421690000000  0.5352770000000  0.4679350000000 1.0
C      1  0.5586320000000  0.4666280000000  0.4686060000000 1.0
C      1  0.4594410000000  0.5885130000000  0.4409420000000 1.0
C      1  0.5369840000000  0.4127620000000  0.4438140000000 1.0
C      1  0.5439650000000  0.5164430000000  0.5249140000000 1.0
C      1  0.4553040000000  0.4872380000000  0.5274470000000 1.0
C      1  0.5386240000000  0.4453110000000  0.5057020000000 1.0
C      1  0.4609470000000  0.5577740000000  0.5038820000000 1.0
C      1  0.5121600000000  0.5392080000000  0.4551210000000 1.0
C      1  0.4901050000000  0.4478340000000  0.4476480000000 1.0
C      1  0.5920220000000  0.4996310000000  0.4664060000000 1.0
C      1  0.4131990000000  0.4989690000000  0.4663580000000 1.0
C      1  0.3940920000000  0.4464370000000  0.5276030000000 1.0
C      1  0.6111500000000  0.5541120000000  0.5300780000000 1.0
C      1  0.4625620000000  0.4027110000000  0.4332640000000 1.0
C      1  0.5352330000000  0.5849640000000  0.4465170000000 1.0
C      1  0.6047830000000  0.4996530000000  0.5411190000000 1.0
C      1  0.3960430000000  0.4998420000000  0.5395690000000 1.0
C      1  0.4511760000000  0.4708090000000  0.5764130000000 1.0
C      1  0.5479670000000  0.5292220000000  0.5745510000000 1.0
C      1  0.5074850000000  0.5355010000000  0.4031720000000 1.0
C      1  0.4921430000000  0.4669460000000  0.4025760000000 1.0
C      1  0.4817870000000  0.4374250000000  0.3989380000000 1.0
C      1  0.5213750000000  0.5635150000000  0.4021060000000 1.0
C      1  0.4502760000000  0.4242450000000  0.5794730000000 1.0
C      1  0.5506310000000  0.5735910000000  0.5753620000000 1.0
C      1  0.4540590000000  0.4829940000000  0.6023340000000 1.0
C      1  0.5454400000000  0.5178780000000  0.6008450000000 1.0
C      1  0.4550100000000  0.6037520000000  0.5301480000000 1.0
C      1  0.5461520000000  0.3920980000000  0.5322860000000 1.0
C      1  0.5492920000000  0.6022540000000  0.5055930000000 1.0
C      1  0.4507380000000  0.4002170000000  0.5079010000000 1.0
C      1  0.5566800000000  0.4828770000000  0.5681510000000 1.0
C      1  0.4414990000000  0.5184880000000  0.5692540000000 1.0
C      1  0.4657390000000  0.5077720000000  0.5021240000000 1.0
C      1  0.5343040000000  0.4949310000000  0.5033200000000 1.0
C      1  0.4510740000000  0.5125690000000  0.5976620000000 1.0
C      1  0.5473050000000  0.4885390000000  0.5963500000000 1.0
C      1  0.4644000000000  0.5338290000000  0.3811190000000 1.0
C      1  0.5359310000000  0.4722040000000  0.3823770000000 1.0
C      1  0.5652230000000  0.5942060000000  0.4820980000000 1.0
C      1  0.4379860000000  0.4104520000000  0.4831500000000 1.0
C      1  0.5537210000000  0.4702610000000  0.4980330000000 1.0
C      1  0.4466570000000  0.5322800000000  0.4967370000000 1.0
C      1  0.4495930000000  0.4966480000000  0.4070910000000 1.0
C      1  0.5457940000000  0.5090980000000  0.4130920000000 1.0
C      1  0.4175260000000  0.5657900000000  0.4353560000000 1.0
C      1  0.5792440000000  0.4342390000000  0.4362890000000 1.0
C      1  0.4830770000000  0.5666020000000  0.4827660000000 1.0
C      1  0.5120050000000  0.4497400000000  0.4906050000000 1.0
C      1  0.4538770000000  0.4029580000000  0.4606080000000 1.0
C      1  0.5568250000000  0.6013700000000  0.4563820000000 1.0
C      1  0.4631310000000  0.5429490000000  0.4293840000000 1.0
C      1  0.5368970000000  0.4616250000000  0.4300010000000 1.0
C      1  0.5648080000000  0.4916560000000  0.4560490000000 1.0
C      1  0.4412230000000  0.5086760000000  0.4563010000000 1.0
C      1  0.5210430000000  0.6083230000000  0.5006760000000 1.0
C      1  0.4789050000000  0.3923630000000  0.5037250000000 1.0
C      1  0.5078330000000  0.4954970000000  0.4556360000000 1.0
C      1  0.4776700000000  0.4945000000000  0.4524920000000 1.0
C      1  0.5635880000000  0.5474420000000  0.4267390000000 1.0
C      1  0.4402260000000  0.4493640000000  0.4273240000000 1.0
C      1  0.4893340000000  0.4286620000000  0.4938260000000 1.0
C      1  0.5143010000000  0.5720350000000  0.4917220000000 1.0
C      1  0.4082610000000  0.5394420000000  0.5006990000000 1.0
C      1  0.5914770000000  0.4603190000000  0.5011200000000 1.0
C      1  0.5050970000000  0.4885320000000  0.5745210000000 1.0
C      1  0.4916140000000  0.5124600000000  0.5738890000000 1.0
C      1  0.5396880000000  0.4267390000000  0.5729120000000 1.0
C      1  0.4581590000000  0.5717350000000  0.5717830000000 1.0
C      1  0.4674620000000  0.5988000000000  0.5574330000000 1.0
C      1  0.5324130000000  0.3980370000000  0.5595310000000 1.0
C      1  0.4941110000000  0.5196220000000  0.5024880000000 1.0
C      1  0.4998240000000  0.4757260000000  0.5010290000000 1.0
C      1  0.5894470000000  0.5189410000000  0.5569670000000 1.0
C      1  0.4100030000000  0.4810780000000  0.5577070000000 1.0
C      1  0.5271880000000  0.3813930000000  0.5119030000000 1.0
C      1  0.4738980000000  0.6143580000000  0.5094670000000 1.0
C      1  0.4812020000000  0.3945820000000  0.5629200000000 1.0
C      1  0.5205170000000  0.6046180000000  0.5615040000000 1.0
C      1  0.4797520000000  0.5546960000000  0.5926640000000 1.0
C      1  0.5188270000000  0.4460110000000  0.5934480000000 1.0
C      1  0.4390110000000  0.4896650000000  0.5569620000000 1.0
C      1  0.5603590000000  0.5112120000000  0.5547690000000 1.0
C      1  0.5636500000000  0.4126830000000  0.5207450000000 1.0
C      1  0.4335370000000  0.5869480000000  0.5203550000000 1.0
C      1  0.4629080000000  0.5057970000000  0.3831050000000 1.0
C      1  0.5365800000000  0.4999550000000  0.3860830000000 1.0
C      1  0.4659250000000  0.5613820000000  0.5355190000000 1.0
C      1  0.5360230000000  0.4417500000000  0.5376060000000 1.0
C      1  0.4880890000000  0.4480880000000  0.5972120000000 1.0
C      1  0.5110260000000  0.5527030000000  0.5950490000000 1.0
C      1  0.4540460000000  0.4590550000000  0.4792420000000 1.0
C      1  0.5562510000000  0.5516210000000  0.4764070000000 1.0
C      1  0.4641030000000  0.4308090000000  0.4232520000000 1.0
C      1  0.5427400000000  0.5678910000000  0.4226530000000 1.0
C      1  0.4609870000000  0.5338140000000  0.5497020000000 1.0
C      1  0.5367990000000  0.4689550000000  0.5499550000000 1.0
C      1  0.5165760000000  0.4646150000000  0.4554630000000 1.0
C      1  0.4829640000000  0.5474340000000  0.4565490000000 1.0
C      1  0.5557400000000  0.4859420000000  0.4289660000000 1.0
C      1  0.4473690000000  0.5162440000000  0.4285000000000 1.0
C      1  0.4722680000000  0.4356390000000  0.4706960000000 1.0
C      1  0.5295340000000  0.5627030000000  0.4670570000000 1.0
C      1  0.5007530000000  0.3868660000000  0.5215810000000 1.0
C      1  0.5006090000000  0.6153070000000  0.5203830000000 1.0
C      1  0.5517080000000  0.4345740000000  0.4311160000000 1.0
C      1  0.4443090000000  0.5673970000000  0.4275870000000 1.0
C      1  0.6121530000000  0.5361920000000  0.5078030000000 1.0
C      1  0.4059370000000  0.4641520000000  0.5072820000000 1.0
C      1  0.4784820000000  0.5419750000000  0.4038250000000 1.0
C      1  0.5217150000000  0.4625170000000  0.4044120000000 1.0
C      1  0.5078350000000  0.4307800000000  0.5429120000000 1.0
C      1  0.4943530000000  0.5696510000000  0.5381460000000 1.0
C      1  0.3993230000000  0.5283720000000  0.5479890000000 1.0
C      1  0.5981460000000  0.4713980000000  0.5482550000000 1.0
C      1  0.4320420000000  0.4413520000000  0.5349240000000 1.0
C      1  0.5738390000000  0.5626660000000  0.5242530000000 1.0
C      1  0.5001780000000  0.5028230000000  0.6163350000000 1.0
END
