TITL C-3578203-1966-333 -2.58061089986353e-06 125000 -579.074683137117 0 0 92 (C1) n - 1
REM
REM in /home/bkarasulu/work/CARBON/AIRSS/Generating-Clusters/EDIP-Nigel-Params/with-SteepDescent/Higher-Symm/SD-CG/HFTN-CG
REM
REM
REM
REM
REM
REM ./C.cell (12c818d87b63d06a65506943cc24bca4)
REM
REM compiler GCC version 9.2.1 20190827 (Red Hat 9.2.1-1)
REM options -cpp -mtune=generic -march=x86-64 -g -O0 -fpre-include=/usr/include/finclude/math-vector-fortran.h
REM seed 1845534540 -142993974 -1895677033 1747485149 -1424330998 601983119 63604940 -254223993 -840610723 -5354517 599510306 -1334369590 -98759590 585501543 -1685918662 -1698521189 -611404429 1895591447 2054877720 1940832806 -1576876267 -53632192 -300482385 1912619976 -1183192828 924109464 1725910608 1339425973 1712208759 976648129 1702625820 -242578229 -1777929704
REM
CELL 1.54180   50.00000   50.00000   50.00000   90.00000   90.00000   90.00000
LATT -1
SFAC C  
C      1  0.5217280000000  0.4600510000000  0.5786000000000 1.0
C      1  0.5405880000000  0.5065590000000  0.5814230000000 1.0
C      1  0.5063550000000  0.5444200000000  0.5796810000000 1.0
C      1  0.4603490000000  0.5204620000000  0.5784520000000 1.0
C      1  0.4718640000000  0.4714490000000  0.5803740000000 1.0
C      1  0.5213050000000  0.4208890000000  0.4810950000000 1.0
C      1  0.5744330000000  0.4984610000000  0.4766660000000 1.0
C      1  0.5291650000000  0.5769490000000  0.4808720000000 1.0
C      1  0.4414630000000  0.5496780000000  0.4777100000000 1.0
C      1  0.4387810000000  0.4588760000000  0.4756290000000 1.0
C      1  0.4470660000000  0.4451370000000  0.5478270000000 1.0
C      1  0.5412010000000  0.4242020000000  0.5531650000000 1.0
C      1  0.5760750000000  0.5148230000000  0.5491580000000 1.0
C      1  0.5122420000000  0.5836640000000  0.5530200000000 1.0
C      1  0.4259560000000  0.5365500000000  0.5497860000000 1.0
C      1  0.4814510000000  0.5367870000000  0.5655060000000 1.0
C      1  0.4605030000000  0.4937930000000  0.5652300000000 1.0
C      1  0.4952320000000  0.4586130000000  0.5644470000000 1.0
C      1  0.5370990000000  0.4818910000000  0.5660230000000 1.0
C      1  0.5292860000000  0.5309510000000  0.5656790000000 1.0
C      1  0.5474220000000  0.4805800000000  0.5158510000000 1.0
C      1  0.5340670000000  0.5395060000000  0.5160090000000 1.0
C      1  0.4751790000000  0.5461540000000  0.5176660000000 1.0
C      1  0.4532070000000  0.4905040000000  0.5153040000000 1.0
C      1  0.4951630000000  0.4467160000000  0.5148130000000 1.0
C      1  0.5085580000000  0.5761100000000  0.4596320000000 1.0
C      1  0.4444380000000  0.5293350000000  0.4548450000000 1.0
C      1  0.4550730000000  0.4499280000000  0.4520430000000 1.0
C      1  0.5384410000000  0.4341230000000  0.4603840000000 1.0
C      1  0.5623960000000  0.5142570000000  0.4539190000000 1.0
C      1  0.4352910000000  0.5326670000000  0.5747950000000 1.0
C      1  0.4590110000000  0.4466690000000  0.5725950000000 1.0
C      1  0.5347760000000  0.4355320000000  0.5765710000000 1.0
C      1  0.5655480000000  0.5194620000000  0.5741740000000 1.0
C      1  0.5118500000000  0.5715530000000  0.5770370000000 1.0
C      1  0.5729790000000  0.4691510000000  0.4737460000000 1.0
C      1  0.5524640000000  0.5605410000000  0.4725930000000 1.0
C      1  0.4601930000000  0.5724680000000  0.4758650000000 1.0
C      1  0.4274590000000  0.4853930000000  0.4718880000000 1.0
C      1  0.4924810000000  0.4173540000000  0.4727410000000 1.0
C      1  0.4743920000000  0.4861780000000  0.4288380000000 1.0
C      1  0.4988600000000  0.4722440000000  0.4204670000000 1.0
C      1  0.5193160000000  0.4929410000000  0.4130360000000 1.0
C      1  0.5062680000000  0.5196790000000  0.4146050000000 1.0
C      1  0.4759410000000  0.5147600000000  0.4160140000000 1.0
C      1  0.4848330000000  0.4618810000000  0.4899530000000 1.0
C      1  0.5305200000000  0.4670990000000  0.4951830000000 1.0
C      1  0.5345550000000  0.5205470000000  0.4920920000000 1.0
C      1  0.4951330000000  0.5478430000000  0.4965040000000 1.0
C      1  0.4606850000000  0.5101950000000  0.4956840000000 1.0
C      1  0.4976390000000  0.4731720000000  0.5380690000000 1.0
C      1  0.5257210000000  0.4890490000000  0.5390770000000 1.0
C      1  0.5194640000000  0.5210050000000  0.5389180000000 1.0
C      1  0.4878610000000  0.5245260000000  0.5391810000000 1.0
C      1  0.4745520000000  0.4953020000000  0.5387830000000 1.0
C      1  0.4491840000000  0.5356280000000  0.5042290000000 1.0
C      1  0.4554610000000  0.4628600000000  0.5010990000000 1.0
C      1  0.5226770000000  0.4387280000000  0.5054180000000 1.0
C      1  0.5590310000000  0.5051250000000  0.5020560000000 1.0
C      1  0.5171410000000  0.5639540000000  0.5063460000000 1.0
C      1  0.4741270000000  0.5762240000000  0.5235470000000 1.0
C      1  0.4241940000000  0.4992010000000  0.5188820000000 1.0
C      1  0.4757670000000  0.4237880000000  0.5174960000000 1.0
C      1  0.5695110000000  0.4625100000000  0.5219860000000 1.0
C      1  0.5633240000000  0.5479280000000  0.5184510000000 1.0
C      1  0.4259960000000  0.5284100000000  0.5231410000000 1.0
C      1  0.4515540000000  0.4396930000000  0.5209540000000 1.0
C      1  0.5384220000000  0.4282540000000  0.5269070000000 1.0
C      1  0.5753410000000  0.5218030000000  0.5222540000000 1.0
C      1  0.5031970000000  0.5826840000000  0.5267140000000 1.0
C      1  0.4768150000000  0.4084070000000  0.4942380000000 1.0
C      1  0.5812180000000  0.4573940000000  0.4978660000000 1.0
C      1  0.5706940000000  0.5598950000000  0.4941260000000 1.0
C      1  0.4615580000000  0.5869500000000  0.5003460000000 1.0
C      1  0.4116910000000  0.4924450000000  0.4943810000000 1.0
C      1  0.4870020000000  0.5587890000000  0.4713330000000 1.0
C      1  0.4521790000000  0.5034840000000  0.4688740000000 1.0
C      1  0.4841000000000  0.4446030000000  0.4618740000000 1.0
C      1  0.5439740000000  0.4630830000000  0.4685250000000 1.0
C      1  0.5411360000000  0.5328840000000  0.4648880000000 1.0
C      1  0.5174140000000  0.5652040000000  0.4348970000000 1.0
C      1  0.4663450000000  0.5356800000000  0.4354340000000 1.0
C      1  0.4520850000000  0.4670730000000  0.4288720000000 1.0
C      1  0.5257260000000  0.4334620000000  0.4352460000000 1.0
C      1  0.5512900000000  0.4973550000000  0.4336950000000 1.0
C      1  0.5036680000000  0.4505890000000  0.4390010000000 1.0
C      1  0.5294010000000  0.4842820000000  0.4494770000000 1.0
C      1  0.5151330000000  0.5365520000000  0.4402890000000 1.0
C      1  0.4887300000000  0.5336660000000  0.4551780000000 1.0
C      1  0.4774440000000  0.4912810000000  0.4572650000000 1.0
C      1  0.5058050000000  0.5000450000000  0.4658210000000 1.0
C      1  0.5055880000000  0.4840680000000  0.4906880000000 1.0
END
