TITL C-3577080-309-699 -4.0736626585254e-06 125000 -741.805967919921 0 0 119 (C1) n - 1
REM
REM in /home/bkarasulu/work/CARBON/AIRSS/Generating-Clusters/EDIP-Nigel-Params/with-SteepDescent/Higher-Symm/SD-CG/HFTN-CG
REM
REM
REM
REM
REM
REM ./C.cell (12c818d87b63d06a65506943cc24bca4)
REM
REM compiler GCC version 9.2.1 20190827 (Red Hat 9.2.1-1)
REM options -cpp -mtune=generic -march=x86-64 -g -O0 -fpre-include=/usr/include/finclude/math-vector-fortran.h
REM seed 47112246 -1626764648 1470375596 -768532230 -190064976 1809115306 -796285595 1929143354 -1372636318 -1364519653 -1759908535 462647885 -504278800 1459751734 -2057242001 -278288560 -529981671 -728889321 1813361616 841109600 -1266972044 -371771337 -1658492437 23945431 1485665508 -1897071317 -1114296976 -5904149 -1975473868 591007258 -824294985 -659613678 1056026829
REM
CELL 1.54180   50.00000   50.00000   50.00000   90.00000   90.00000   90.00000
LATT -1
SFAC C  
C      1  0.5066560000000  0.5193730000000  0.5208000000000 1.0
C      1  0.5242300000000  0.5206050000000  0.4981470000000 1.0
C      1  0.5073140000000  0.5233550000000  0.4748680000000 1.0
C      1  0.4793990000000  0.5241290000000  0.4835910000000 1.0
C      1  0.4792380000000  0.5209430000000  0.5124300000000 1.0
C      1  0.4959260000000  0.4560400000000  0.5222230000000 1.0
C      1  0.5205540000000  0.4600510000000  0.5007490000000 1.0
C      1  0.5091060000000  0.4687910000000  0.4748650000000 1.0
C      1  0.4809430000000  0.4721790000000  0.4786810000000 1.0
C      1  0.4728070000000  0.4653650000000  0.5055660000000 1.0
C      1  0.5433370000000  0.5448690000000  0.5623660000000 1.0
C      1  0.5753170000000  0.5471360000000  0.4791380000000 1.0
C      1  0.5029870000000  0.5454070000000  0.4236020000000 1.0
C      1  0.4269180000000  0.5446200000000  0.4740680000000 1.0
C      1  0.4518050000000  0.5478050000000  0.5637180000000 1.0
C      1  0.5399810000000  0.4472320000000  0.5714940000000 1.0
C      1  0.5777790000000  0.4490330000000  0.4865530000000 1.0
C      1  0.5099620000000  0.4499280000000  0.4252600000000 1.0
C      1  0.4277550000000  0.4472590000000  0.4663780000000 1.0
C      1  0.4507270000000  0.4524820000000  0.5542280000000 1.0
C      1  0.4559310000000  0.5811040000000  0.5083710000000 1.0
C      1  0.4971040000000  0.5856750000000  0.5364970000000 1.0
C      1  0.5429570000000  0.5873670000000  0.5127810000000 1.0
C      1  0.5338590000000  0.5926110000000  0.4667790000000 1.0
C      1  0.4790430000000  0.5935740000000  0.4647040000000 1.0
C      1  0.4591090000000  0.4135720000000  0.5072750000000 1.0
C      1  0.4968050000000  0.4167870000000  0.5411160000000 1.0
C      1  0.5456730000000  0.4013990000000  0.5239270000000 1.0
C      1  0.5329610000000  0.4071220000000  0.4715350000000 1.0
C      1  0.4822620000000  0.4113100000000  0.4621990000000 1.0
C      1  0.4709680000000  0.4778870000000  0.4280180000000 1.0
C      1  0.4223950000000  0.4770190000000  0.5045570000000 1.0
C      1  0.4884360000000  0.4760830000000  0.5718310000000 1.0
C      1  0.5598610000000  0.4743700000000  0.5359140000000 1.0
C      1  0.5558330000000  0.4779140000000  0.4534250000000 1.0
C      1  0.4515920000000  0.5305690000000  0.4403110000000 1.0
C      1  0.4311870000000  0.5252320000000  0.5252290000000 1.0
C      1  0.4949510000000  0.5172280000000  0.5686750000000 1.0
C      1  0.5661480000000  0.5166760000000  0.5259220000000 1.0
C      1  0.5412020000000  0.5279740000000  0.4367230000000 1.0
C      1  0.5489770000000  0.5042400000000  0.5018190000000 1.0
C      1  0.5170510000000  0.5121300000000  0.4491450000000 1.0
C      1  0.4573480000000  0.5137040000000  0.4660870000000 1.0
C      1  0.4564970000000  0.5085880000000  0.5279370000000 1.0
C      1  0.5129740000000  0.5040580000000  0.5455350000000 1.0
C      1  0.5412280000000  0.4783360000000  0.5131390000000 1.0
C      1  0.5246060000000  0.4820290000000  0.4522580000000 1.0
C      1  0.4627310000000  0.4844360000000  0.4581970000000 1.0
C      1  0.4496850000000  0.4795010000000  0.5193000000000 1.0
C      1  0.5004440000000  0.4769230000000  0.5444330000000 1.0
C      1  0.4715830000000  0.5971300000000  0.5285490000000 1.0
C      1  0.5190310000000  0.6006280000000  0.5235680000000 1.0
C      1  0.5521980000000  0.5966570000000  0.4878850000000 1.0
C      1  0.5065830000000  0.5982900000000  0.4758800000000 1.0
C      1  0.4604640000000  0.6022910000000  0.4862390000000 1.0
C      1  0.4750190000000  0.4023340000000  0.5282640000000 1.0
C      1  0.5213840000000  0.4019100000000  0.5387240000000 1.0
C      1  0.5431510000000  0.3965270000000  0.4959480000000 1.0
C      1  0.5075200000000  0.3970360000000  0.4626650000000 1.0
C      1  0.4658910000000  0.4005840000000  0.4828150000000 1.0
C      1  0.5255410000000  0.5649950000000  0.5687570000000 1.0
C      1  0.5794070000000  0.5660820000000  0.4993340000000 1.0
C      1  0.5256390000000  0.5624530000000  0.4273180000000 1.0
C      1  0.4392050000000  0.5637670000000  0.4555990000000 1.0
C      1  0.4357250000000  0.5630680000000  0.5459780000000 1.0
C      1  0.5187360000000  0.4308570000000  0.5798890000000 1.0
C      1  0.5794200000000  0.4299100000000  0.5067280000000 1.0
C      1  0.5294470000000  0.4308010000000  0.4304900000000 1.0
C      1  0.4405370000000  0.4296600000000  0.4489250000000 1.0
C      1  0.4341700000000  0.4333760000000  0.5421310000000 1.0
C      1  0.5937610000000  0.5172070000000  0.5130900000000 1.0
C      1  0.5398650000000  0.5141490000000  0.4101800000000 1.0
C      1  0.4264510000000  0.5147720000000  0.4335790000000 1.0
C      1  0.4158760000000  0.5163220000000  0.5484440000000 1.0
C      1  0.5149180000000  0.5143170000000  0.5914890000000 1.0
C      1  0.5896100000000  0.4854940000000  0.5208040000000 1.0
C      1  0.5434250000000  0.4852540000000  0.4173350000000 1.0
C      1  0.4332780000000  0.4854150000000  0.4320100000000 1.0
C      1  0.4173690000000  0.4868620000000  0.5415430000000 1.0
C      1  0.5116510000000  0.4837060000000  0.5922260000000 1.0
C      1  0.4671290000000  0.5702610000000  0.4506110000000 1.0
C      1  0.4321620000000  0.5691740000000  0.5186790000000 1.0
C      1  0.4993540000000  0.5692200000000  0.5604970000000 1.0
C      1  0.5629420000000  0.5686800000000  0.5222430000000 1.0
C      1  0.5396710000000  0.5692450000000  0.4511070000000 1.0
C      1  0.4675940000000  0.4268020000000  0.4423480000000 1.0
C      1  0.4343080000000  0.4270600000000  0.5146290000000 1.0
C      1  0.4933460000000  0.4264850000000  0.5685110000000 1.0
C      1  0.5638130000000  0.4237950000000  0.5291590000000 1.0
C      1  0.5449100000000  0.4266420000000  0.4533480000000 1.0
C      1  0.4767920000000  0.5563440000000  0.4270350000000 1.0
C      1  0.4182220000000  0.5508430000000  0.5010200000000 1.0
C      1  0.4818120000000  0.5455760000000  0.5632240000000 1.0
C      1  0.5565790000000  0.5439480000000  0.5365410000000 1.0
C      1  0.5638610000000  0.5539070000000  0.4538990000000 1.0
C      1  0.4809420000000  0.4489180000000  0.4281890000000 1.0
C      1  0.4234880000000  0.4476700000000  0.4957610000000 1.0
C      1  0.4743060000000  0.4489590000000  0.5720070000000 1.0
C      1  0.5545060000000  0.4463780000000  0.5457510000000 1.0
C      1  0.5605630000000  0.4494930000000  0.4630210000000 1.0
C      1  0.5407670000000  0.5196760000000  0.5765900000000 1.0
C      1  0.5879230000000  0.5214830000000  0.4835880000000 1.0
C      1  0.5090270000000  0.5209900000000  0.4076900000000 1.0
C      1  0.4151520000000  0.5200450000000  0.4622870000000 1.0
C      1  0.4385890000000  0.5219840000000  0.5686660000000 1.0
C      1  0.5376440000000  0.4752970000000  0.5798280000000 1.0
C      1  0.5866780000000  0.4758240000000  0.4925230000000 1.0
C      1  0.5171680000000  0.4735690000000  0.4110770000000 1.0
C      1  0.4209910000000  0.4732050000000  0.4559680000000 1.0
C      1  0.4387440000000  0.4777590000000  0.5603530000000 1.0
C      1  0.4244670000000  0.4939680000000  0.4765990000000 1.0
C      1  0.4978590000000  0.4945430000000  0.4198170000000 1.0
C      1  0.5445500000000  0.4956240000000  0.5579980000000 1.0
C      1  0.5700810000000  0.4967640000000  0.4784330000000 1.0
C      1  0.4583720000000  0.5011730000000  0.5599560000000 1.0
C      1  0.5003560000000  0.4013620000000  0.5003590000000 1.0
C      1  0.4774240000000  0.6194540000000  0.5072080000000 1.0
C      1  0.5063560000000  0.6153880000000  0.5002920000000 1.0
C      1  0.5164230000000  0.4286480000000  0.5060870000000 1.0
END
