TITL C-3578199-7832-103 2.50632832180867e-08 125000 -93.8102507300519 0 0 17 (C2) n - 1
REM
REM in /home/bkarasulu/work/CARBON/AIRSS/Generating-Clusters/EDIP-Nigel-Params/with-SteepDescent/Higher-Symm/SD-CG/HFTN-CG
REM
REM
REM
REM
REM
REM ./C.cell (12c818d87b63d06a65506943cc24bca4)
REM
REM compiler GCC version 9.2.1 20190827 (Red Hat 9.2.1-1)
REM options -cpp -mtune=generic -march=x86-64 -g -O0 -fpre-include=/usr/include/finclude/math-vector-fortran.h
REM seed 1030965760 1329431050 1565536595 -517566030 1657365107 1956651662 -1844773362 2041780579 947654767 -498496581 -1899190279 1857437227 1469872146 1203936094 1605712502 -469666686 874210948 -943058973 -1912190709 -965882957 1442582981 -606191262 891333537 -247416074 -607024131 1153501740 -329712089 -2100636081 -757814209 -1438110432 -655428059 939325198 -82185614
REM
CELL 1.54180   50.00000   50.00000   50.00000   90.00000   90.00000   90.00000
LATT -1
SFAC C  
C      1  0.5064140000000  0.4673420000000  0.4719200000000 1.0
C      1  0.4952390000000  0.5305050000000  0.4676910000000 1.0
C      1  0.4949190000000  0.4671750000000  0.5292890000000 1.0
C      1  0.5306820000000  0.4701340000000  0.4897840000000 1.0
C      1  0.4687730000000  0.5314990000000  0.4943060000000 1.0
C      1  0.5336980000000  0.4935990000000  0.4709990000000 1.0
C      1  0.4677280000000  0.4935220000000  0.5303820000000 1.0
C      1  0.4706710000000  0.5132240000000  0.4703530000000 1.0
C      1  0.5063190000000  0.5302680000000  0.5339310000000 1.0
C      1  0.5327880000000  0.5313430000000  0.5073220000000 1.0
C      1  0.4706610000000  0.4701700000000  0.5114440000000 1.0
C      1  0.5308250000000  0.5129180000000  0.5311550000000 1.0
C      1  0.5192470000000  0.5179960000000  0.4828290000000 1.0
C      1  0.5197540000000  0.4817460000000  0.5179720000000 1.0
C      1  0.4822670000000  0.5179440000000  0.5187120000000 1.0
C      1  0.4816300000000  0.4819280000000  0.4833320000000 1.0
C      1  0.5007270000000  0.5010890000000  0.5007150000000 1.0
END
