TITL C-3578197-9521-438 1.48847939283182e-06 125000 -783.700536575955 0 0 127 (C1) n - 1
REM
REM in /home/bkarasulu/work/CARBON/AIRSS/Generating-Clusters/EDIP-Nigel-Params/with-SteepDescent/Higher-Symm/SD-CG/HFTN-CG
REM
REM
REM
REM
REM
REM ./C.cell (12c818d87b63d06a65506943cc24bca4)
REM
REM compiler GCC version 9.2.1 20190827 (Red Hat 9.2.1-1)
REM options -cpp -mtune=generic -march=x86-64 -g -O0 -fpre-include=/usr/include/finclude/math-vector-fortran.h
REM seed 129557420 -993470942 247544499 237153440 762177539 -10446995 1500946268 1293920885 -271126785 -659676544 -1765578416 142436078 -1439849815 521533268 652705440 2036556767 1218587718 -1478773529 -1145891166 1772183679 -124183074 1349888872 1007621875 2026300304 571395432 754103037 920679171 1576378122 -1251686391 -984300266 429486985 -1850775884 -23274651
REM
CELL 1.54180   50.00000   50.00000   50.00000   90.00000   90.00000   90.00000
LATT -1
SFAC C  
C      1  0.5306640000000  0.4273480000000  0.5127560000000 1.0
C      1  0.4711640000000  0.5729000000000  0.4858350000000 1.0
C      1  0.4819710000000  0.5103380000000  0.4476350000000 1.0
C      1  0.5134190000000  0.4859550000000  0.5507340000000 1.0
C      1  0.5451720000000  0.5143330000000  0.4925720000000 1.0
C      1  0.4495140000000  0.4841100000000  0.5109220000000 1.0
C      1  0.5367120000000  0.5545740000000  0.4233290000000 1.0
C      1  0.4672850000000  0.4502250000000  0.5764330000000 1.0
C      1  0.5577130000000  0.5049280000000  0.5881980000000 1.0
C      1  0.4407680000000  0.4981900000000  0.4155980000000 1.0
C      1  0.5223890000000  0.5648990000000  0.5652410000000 1.0
C      1  0.4736720000000  0.4305350000000  0.4302180000000 1.0
C      1  0.4208560000000  0.5535930000000  0.4921350000000 1.0
C      1  0.5774790000000  0.4506020000000  0.5054960000000 1.0
C      1  0.5471870000000  0.5238940000000  0.5705000000000 1.0
C      1  0.4501170000000  0.4764940000000  0.4308170000000 1.0
C      1  0.5672420000000  0.4450870000000  0.4546130000000 1.0
C      1  0.4351120000000  0.5515980000000  0.5408980000000 1.0
C      1  0.5935370000000  0.5113080000000  0.5089210000000 1.0
C      1  0.4020650000000  0.4862910000000  0.4915760000000 1.0
C      1  0.5632350000000  0.4527180000000  0.5326860000000 1.0
C      1  0.4314890000000  0.5557650000000  0.4638020000000 1.0
C      1  0.5491430000000  0.4994600000000  0.5179460000000 1.0
C      1  0.4479190000000  0.4998300000000  0.4851590000000 1.0
C      1  0.4726370000000  0.5161300000000  0.5806240000000 1.0
C      1  0.5232360000000  0.4854470000000  0.4176600000000 1.0
C      1  0.5973530000000  0.4859150000000  0.4648110000000 1.0
C      1  0.3986560000000  0.5152010000000  0.5333620000000 1.0
C      1  0.4365520000000  0.4420550000000  0.4619340000000 1.0
C      1  0.5600620000000  0.5572860000000  0.5364060000000 1.0
C      1  0.5266910000000  0.5932370000000  0.5277760000000 1.0
C      1  0.4769420000000  0.4245110000000  0.4787350000000 1.0
C      1  0.5143100000000  0.5428230000000  0.5020550000000 1.0
C      1  0.4920230000000  0.4563780000000  0.4939770000000 1.0
C      1  0.5120800000000  0.5407340000000  0.5361460000000 1.0
C      1  0.4952000000000  0.4681470000000  0.4660910000000 1.0
C      1  0.4137900000000  0.4710310000000  0.5137350000000 1.0
C      1  0.5816820000000  0.5272670000000  0.4866590000000 1.0
C      1  0.4166570000000  0.5271230000000  0.5009990000000 1.0
C      1  0.5689490000000  0.4738090000000  0.4885090000000 1.0
C      1  0.4946380000000  0.4411750000000  0.5426000000000 1.0
C      1  0.5074760000000  0.5501410000000  0.4565550000000 1.0
C      1  0.4888120000000  0.4307010000000  0.5694640000000 1.0
C      1  0.5101300000000  0.5650890000000  0.4312430000000 1.0
C      1  0.5626090000000  0.5145700000000  0.4196060000000 1.0
C      1  0.4379070000000  0.4889210000000  0.5837120000000 1.0
C      1  0.4285910000000  0.5168580000000  0.5778440000000 1.0
C      1  0.5670140000000  0.4847340000000  0.4219020000000 1.0
C      1  0.4865590000000  0.4715050000000  0.5426670000000 1.0
C      1  0.5090880000000  0.5191410000000  0.4574780000000 1.0
C      1  0.5187660000000  0.5192130000000  0.5596630000000 1.0
C      1  0.4791990000000  0.4799740000000  0.4422350000000 1.0
C      1  0.5465410000000  0.4287030000000  0.5398530000000 1.0
C      1  0.4553190000000  0.5738490000000  0.4599020000000 1.0
C      1  0.4752000000000  0.5239290000000  0.5107180000000 1.0
C      1  0.5380580000000  0.4716090000000  0.4852290000000 1.0
C      1  0.4467450000000  0.4376170000000  0.5302700000000 1.0
C      1  0.5503100000000  0.5652160000000  0.4735110000000 1.0
C      1  0.5708680000000  0.4778600000000  0.5500980000000 1.0
C      1  0.4356180000000  0.5271430000000  0.4528080000000 1.0
C      1  0.5242980000000  0.4709870000000  0.4598910000000 1.0
C      1  0.4819470000000  0.5332420000000  0.5368540000000 1.0
C      1  0.4456340000000  0.4993140000000  0.5391940000000 1.0
C      1  0.5586160000000  0.5064960000000  0.4627780000000 1.0
C      1  0.4621140000000  0.5207700000000  0.4683180000000 1.0
C      1  0.5329640000000  0.4768340000000  0.5286960000000 1.0
C      1  0.4758650000000  0.5912420000000  0.5310430000000 1.0
C      1  0.5257790000000  0.4136770000000  0.4670240000000 1.0
C      1  0.5461290000000  0.4712230000000  0.4077330000000 1.0
C      1  0.4499680000000  0.5321300000000  0.5882780000000 1.0
C      1  0.4343860000000  0.4780110000000  0.5572460000000 1.0
C      1  0.5723300000000  0.5291800000000  0.4439690000000 1.0
C      1  0.5460750000000  0.4163130000000  0.4891800000000 1.0
C      1  0.4563290000000  0.5832880000000  0.5095980000000 1.0
C      1  0.6035170000000  0.4891800000000  0.4930120000000 1.0
C      1  0.3930120000000  0.5118020000000  0.5043240000000 1.0
C      1  0.4645580000000  0.5568590000000  0.5436940000000 1.0
C      1  0.5373150000000  0.4453090000000  0.4483540000000 1.0
C      1  0.4232970000000  0.4941070000000  0.4688920000000 1.0
C      1  0.5736280000000  0.5058310000000  0.5329680000000 1.0
C      1  0.4976380000000  0.5600020000000  0.5788100000000 1.0
C      1  0.4978590000000  0.4400560000000  0.4195800000000 1.0
C      1  0.4816130000000  0.4251540000000  0.5226030000000 1.0
C      1  0.5192970000000  0.5642150000000  0.4801400000000 1.0
C      1  0.5679090000000  0.5522130000000  0.4932640000000 1.0
C      1  0.4274910000000  0.4463450000000  0.5108870000000 1.0
C      1  0.4322870000000  0.5676670000000  0.5154990000000 1.0
C      1  0.5711100000000  0.4306570000000  0.4825560000000 1.0
C      1  0.4926450000000  0.5466910000000  0.3950160000000 1.0
C      1  0.5140090000000  0.4511710000000  0.6052480000000 1.0
C      1  0.5080000000000  0.5237040000000  0.4022320000000 1.0
C      1  0.4998170000000  0.4755280000000  0.6003440000000 1.0
C      1  0.4772980000000  0.5420630000000  0.4875550000000 1.0
C      1  0.5220790000000  0.4569530000000  0.5058090000000 1.0
C      1  0.5001810000000  0.4081460000000  0.4818860000000 1.0
C      1  0.5015480000000  0.5950050000000  0.5157880000000 1.0
C      1  0.4976480000000  0.4702460000000  0.4200140000000 1.0
C      1  0.4986790000000  0.5297320000000  0.5810220000000 1.0
C      1  0.5763290000000  0.5664450000000  0.5158100000000 1.0
C      1  0.4254470000000  0.4346090000000  0.4861760000000 1.0
C      1  0.4795860000000  0.4768800000000  0.5129500000000 1.0
C      1  0.5143460000000  0.5157810000000  0.4881090000000 1.0
C      1  0.5349380000000  0.4299840000000  0.5656450000000 1.0
C      1  0.4715290000000  0.5664860000000  0.4367190000000 1.0
C      1  0.4609520000000  0.4272780000000  0.4549870000000 1.0
C      1  0.5385910000000  0.5747260000000  0.5446720000000 1.0
C      1  0.4991510000000  0.5858770000000  0.4878220000000 1.0
C      1  0.5044950000000  0.4116330000000  0.5108910000000 1.0
C      1  0.4716450000000  0.4738400000000  0.5929050000000 1.0
C      1  0.5354150000000  0.5276220000000  0.4123450000000 1.0
C      1  0.5663550000000  0.5314510000000  0.5494970000000 1.0
C      1  0.4307950000000  0.4691510000000  0.4511840000000 1.0
C      1  0.5572570000000  0.5550800000000  0.4454240000000 1.0
C      1  0.4482020000000  0.4531460000000  0.5546770000000 1.0
C      1  0.4446690000000  0.5244010000000  0.4237200000000 1.0
C      1  0.5548960000000  0.4803620000000  0.5755310000000 1.0
C      1  0.5304490000000  0.4986560000000  0.4458220000000 1.0
C      1  0.4739870000000  0.5068390000000  0.5518010000000 1.0
C      1  0.5141030000000  0.4300730000000  0.5851780000000 1.0
C      1  0.4789460000000  0.5673230000000  0.4090810000000 1.0
C      1  0.5213890000000  0.4274380000000  0.4310180000000 1.0
C      1  0.4750170000000  0.5731470000000  0.5655710000000 1.0
C      1  0.4250500000000  0.5225870000000  0.5464700000000 1.0
C      1  0.5794190000000  0.4715890000000  0.4463920000000 1.0
C      1  0.5260230000000  0.4709300000000  0.5741970000000 1.0
C      1  0.4749360000000  0.5255080000000  0.4222390000000 1.0
C      1  0.4929540000000  0.5019010000000  0.5051640000000 1.0
END
