TITL C-3578200-9634-764 9.58839859730175e-07 125000 -121.152239348044 0 0 20 (C2) n - 1
REM
REM in /home/bkarasulu/work/CARBON/AIRSS/Generating-Clusters/EDIP-Nigel-Params/with-SteepDescent/Higher-Symm/SD-CG/HFTN-CG
REM
REM
REM
REM
REM
REM ./C.cell (12c818d87b63d06a65506943cc24bca4)
REM
REM compiler GCC version 9.2.1 20190827 (Red Hat 9.2.1-1)
REM options -cpp -mtune=generic -march=x86-64 -g -O0 -fpre-include=/usr/include/finclude/math-vector-fortran.h
REM seed 904420218 741183173 1617919097 -384833352 -1308045823 2062796854 -2098899203 -2099208537 1144844189 -1836337725 1423622747 1125434614 309924515 1067113980 2106835346 -532487338 1234990290 -959174698 1810134875 1236470231 1106324 1947828617 2003239121 -822909038 320305850 -635144474 1831673688 269106030 649266293 1133956112 -1754467822 1688850958 -1108402660
REM
CELL 1.54180   50.00000   50.00000   50.00000   90.00000   90.00000   90.00000
LATT -1
SFAC C  
C      1  0.4867440000000  0.4542960000000  0.5230690000000 1.0
C      1  0.4523190000000  0.4818170000000  0.5066610000000 1.0
C      1  0.4795700000000  0.5166120000000  0.5268670000000 1.0
C      1  0.5181000000000  0.5457080000000  0.5126150000000 1.0
C      1  0.5287160000000  0.5181500000000  0.5172710000000 1.0
C      1  0.5094690000000  0.4712440000000  0.5221630000000 1.0
C      1  0.4814290000000  0.5457120000000  0.4880890000000 1.0
C      1  0.4708190000000  0.5181540000000  0.4834160000000 1.0
C      1  0.4900770000000  0.4712560000000  0.4784960000000 1.0
C      1  0.5128050000000  0.4543130000000  0.4775800000000 1.0
C      1  0.5472240000000  0.4818310000000  0.4940050000000 1.0
C      1  0.5199660000000  0.5166330000000  0.4738200000000 1.0
C      1  0.4566180000000  0.5094350000000  0.5083810000000 1.0
C      1  0.5278540000000  0.4624190000000  0.5001240000000 1.0
C      1  0.4716940000000  0.4624120000000  0.5005300000000 1.0
C      1  0.4876840000000  0.5449710000000  0.5188970000000 1.0
C      1  0.5118460000000  0.5449850000000  0.4818070000000 1.0
C      1  0.5429190000000  0.5094500000000  0.4923010000000 1.0
C      1  0.4960530000000  0.5008590000000  0.4854520000000 1.0
C      1  0.5034860000000  0.5008510000000  0.5152250000000 1.0
END
