TITL C-3577083-591-289 6.05622825171727e-06 125000 -1011.82101166675 0 0 163 (C1) n - 1
REM
REM in /home/bkarasulu/work/CARBON/AIRSS/Generating-Clusters/EDIP-Nigel-Params/with-SteepDescent/Higher-Symm/SD-CG/HFTN-CG
REM
REM
REM
REM
REM
REM ./C.cell (12c818d87b63d06a65506943cc24bca4)
REM
REM compiler GCC version 9.2.1 20190827 (Red Hat 9.2.1-1)
REM options -cpp -mtune=generic -march=x86-64 -g -O0 -fpre-include=/usr/include/finclude/math-vector-fortran.h
REM seed -26953858 -1470176484 -1720737543 506863496 -1827267081 1433816181 479083165 -1418305543 1876809400 76643993 1422043100 -700132480 -277011872 256902113 143562161 1427864669 341044045 -1365612267 -1021527871 1941929785 1767926922 855259313 1844764046 -421582025 2115685692 -638613377 155526108 1248214922 -335317547 -1170405816 1787301263 -1651841171 1546956244
REM
CELL 1.54180   50.00000   50.00000   50.00000   90.00000   90.00000   90.00000
LATT -1
SFAC C  
C      1  0.3918850000000  0.5251630000000  0.4696760000000 1.0
C      1  0.3887970000000  0.4981180000000  0.4594970000000 1.0
C      1  0.3870890000000  0.4713140000000  0.4706570000000 1.0
C      1  0.3872620000000  0.4581660000000  0.4966930000000 1.0
C      1  0.3869710000000  0.4640970000000  0.5253200000000 1.0
C      1  0.3896260000000  0.4873170000000  0.5426810000000 1.0
C      1  0.3905690000000  0.5162860000000  0.5413000000000 1.0
C      1  0.3922420000000  0.5376650000000  0.5218210000000 1.0
C      1  0.3900560000000  0.5422540000000  0.4932290000000 1.0
C      1  0.4975730000000  0.4711890000000  0.4928730000000 1.0
C      1  0.5053210000000  0.4777620000000  0.5189710000000 1.0
C      1  0.4880330000000  0.4852270000000  0.5438490000000 1.0
C      1  0.4987540000000  0.5139250000000  0.5435500000000 1.0
C      1  0.4871830000000  0.5378910000000  0.5525860000000 1.0
C      1  0.5147550000000  0.5226770000000  0.4919570000000 1.0
C      1  0.5261060000000  0.5166390000000  0.4634150000000 1.0
C      1  0.5085770000000  0.4982930000000  0.4482540000000 1.0
C      1  0.5017050000000  0.4774080000000  0.4666380000000 1.0
C      1  0.4654620000000  0.5065100000000  0.4524420000000 1.0
C      1  0.4627900000000  0.4779700000000  0.4459700000000 1.0
C      1  0.4620040000000  0.4583790000000  0.4669630000000 1.0
C      1  0.4561630000000  0.4475960000000  0.4927380000000 1.0
C      1  0.4473890000000  0.4676840000000  0.5096980000000 1.0
C      1  0.4499870000000  0.4943020000000  0.5110680000000 1.0
C      1  0.4663480000000  0.5148450000000  0.5053580000000 1.0
C      1  0.4850000000000  0.5296120000000  0.4902090000000 1.0
C      1  0.4747340000000  0.5328490000000  0.4627850000000 1.0
C      1  0.4731310000000  0.5882600000000  0.5240220000000 1.0
C      1  0.4769010000000  0.5654890000000  0.4539830000000 1.0
C      1  0.4820340000000  0.5324570000000  0.4162310000000 1.0
C      1  0.4708270000000  0.4669440000000  0.4179020000000 1.0
C      1  0.4719230000000  0.4047340000000  0.4399590000000 1.0
C      1  0.4641630000000  0.4200840000000  0.5060190000000 1.0
C      1  0.4635090000000  0.4503870000000  0.5686210000000 1.0
C      1  0.4765890000000  0.5115450000000  0.6049290000000 1.0
C      1  0.4793790000000  0.5672790000000  0.5913720000000 1.0
C      1  0.4427740000000  0.3993100000000  0.5069180000000 1.0
C      1  0.4473320000000  0.4369380000000  0.5877470000000 1.0
C      1  0.4500300000000  0.5104710000000  0.6124650000000 1.0
C      1  0.4519500000000  0.5703750000000  0.5904370000000 1.0
C      1  0.4485390000000  0.6005240000000  0.5265740000000 1.0
C      1  0.4528260000000  0.5743870000000  0.4412860000000 1.0
C      1  0.4567020000000  0.5338720000000  0.4042990000000 1.0
C      1  0.4472650000000  0.4579050000000  0.4043660000000 1.0
C      1  0.4445580000000  0.4025000000000  0.4435840000000 1.0
C      1  0.5411230000000  0.5939930000000  0.4903070000000 1.0
C      1  0.5461640000000  0.5698850000000  0.4219330000000 1.0
C      1  0.5410520000000  0.4947700000000  0.3979340000000 1.0
C      1  0.5387610000000  0.4294850000000  0.4231480000000 1.0
C      1  0.5312030000000  0.3991730000000  0.4871300000000 1.0
C      1  0.5264970000000  0.4154980000000  0.5528530000000 1.0
C      1  0.5316200000000  0.4675520000000  0.5956240000000 1.0
C      1  0.5484560000000  0.5327330000000  0.6033780000000 1.0
C      1  0.5377560000000  0.5807610000000  0.5556350000000 1.0
C      1  0.5200320000000  0.4493580000000  0.4115140000000 1.0
C      1  0.5175820000000  0.4042850000000  0.4613660000000 1.0
C      1  0.5075030000000  0.4092240000000  0.5303050000000 1.0
C      1  0.5117760000000  0.4535170000000  0.5776030000000 1.0
C      1  0.5248410000000  0.5164020000000  0.6138730000000 1.0
C      1  0.5233220000000  0.5621090000000  0.5721580000000 1.0
C      1  0.5167760000000  0.5932110000000  0.5077920000000 1.0
C      1  0.5275550000000  0.5812480000000  0.4419870000000 1.0
C      1  0.5215770000000  0.5159450000000  0.3997320000000 1.0
C      1  0.5837070000000  0.5417900000000  0.4264680000000 1.0
C      1  0.5829470000000  0.4835630000000  0.4141140000000 1.0
C      1  0.5809060000000  0.4268260000000  0.4455560000000 1.0
C      1  0.5704860000000  0.4114700000000  0.5112760000000 1.0
C      1  0.5714670000000  0.4360220000000  0.5620050000000 1.0
C      1  0.5633240000000  0.4963240000000  0.5755490000000 1.0
C      1  0.5877590000000  0.5335710000000  0.5756240000000 1.0
C      1  0.5788730000000  0.5790020000000  0.5225880000000 1.0
C      1  0.5861160000000  0.5863030000000  0.4759830000000 1.0
C      1  0.4041650000000  0.5404980000000  0.4488550000000 1.0
C      1  0.4011670000000  0.4964850000000  0.4332910000000 1.0
C      1  0.3973600000000  0.4528280000000  0.4509400000000 1.0
C      1  0.3976210000000  0.4314820000000  0.4929230000000 1.0
C      1  0.3976830000000  0.4412170000000  0.5396080000000 1.0
C      1  0.4004360000000  0.4790800000000  0.5680930000000 1.0
C      1  0.4030880000000  0.5258550000000  0.5655010000000 1.0
C      1  0.4039220000000  0.5607200000000  0.5343650000000 1.0
C      1  0.4026680000000  0.5679200000000  0.4873030000000 1.0
C      1  0.4680000000000  0.4247730000000  0.5570880000000 1.0
C      1  0.4899780000000  0.4895260000000  0.5927040000000 1.0
C      1  0.4919340000000  0.5562950000000  0.6139140000000 1.0
C      1  0.4914830000000  0.5864820000000  0.5466640000000 1.0
C      1  0.4806620000000  0.5826080000000  0.4763860000000 1.0
C      1  0.5019930000000  0.5534420000000  0.4132420000000 1.0
C      1  0.4826590000000  0.4877850000000  0.4027870000000 1.0
C      1  0.4814540000000  0.4189560000000  0.4182750000000 1.0
C      1  0.4760620000000  0.3996090000000  0.4878270000000 1.0
C      1  0.4065340000000  0.4291550000000  0.4650800000000 1.0
C      1  0.4068280000000  0.4225110000000  0.5190830000000 1.0
C      1  0.4076250000000  0.4510660000000  0.5653710000000 1.0
C      1  0.4116950000000  0.5028220000000  0.5807940000000 1.0
C      1  0.4142390000000  0.5521560000000  0.5603060000000 1.0
C      1  0.4128870000000  0.5779910000000  0.5128600000000 1.0
C      1  0.4138480000000  0.5651160000000  0.4603050000000 1.0
C      1  0.4133040000000  0.5225890000000  0.4279660000000 1.0
C      1  0.4078310000000  0.4684720000000  0.4287480000000 1.0
C      1  0.5673220000000  0.5051410000000  0.4049700000000 1.0
C      1  0.5671740000000  0.4391510000000  0.4239630000000 1.0
C      1  0.5610450000000  0.4043880000000  0.4846510000000 1.0
C      1  0.5577650000000  0.4135240000000  0.5478400000000 1.0
C      1  0.5590190000000  0.4676560000000  0.5829450000000 1.0
C      1  0.5739400000000  0.5169440000000  0.5943680000000 1.0
C      1  0.5662600000000  0.5722880000000  0.5505300000000 1.0
C      1  0.5717860000000  0.5960400000000  0.4984230000000 1.0
C      1  0.5724250000000  0.5656730000000  0.4348640000000 1.0
C      1  0.4199410000000  0.4362830000000  0.5854320000000 1.0
C      1  0.4252340000000  0.5045770000000  0.6047300000000 1.0
C      1  0.4282300000000  0.5671700000000  0.5787470000000 1.0
C      1  0.4234950000000  0.6032070000000  0.5174500000000 1.0
C      1  0.4279610000000  0.5838730000000  0.4454790000000 1.0
C      1  0.4304390000000  0.5296320000000  0.4073840000000 1.0
C      1  0.4205720000000  0.4582960000000  0.4063940000000 1.0
C      1  0.4202950000000  0.4084320000000  0.4530520000000 1.0
C      1  0.4206250000000  0.3989360000000  0.5233790000000 1.0
C      1  0.5624900000000  0.4798860000000  0.4584540000000 1.0
C      1  0.5618660000000  0.4577220000000  0.4788300000000 1.0
C      1  0.5536020000000  0.4584310000000  0.5072130000000 1.0
C      1  0.5585700000000  0.4746790000000  0.5311910000000 1.0
C      1  0.5459610000000  0.5021250000000  0.5350200000000 1.0
C      1  0.5640730000000  0.5249910000000  0.5301850000000 1.0
C      1  0.5542990000000  0.5378370000000  0.5053890000000 1.0
C      1  0.5697680000000  0.5355680000000  0.4781730000000 1.0
C      1  0.5559320000000  0.5126060000000  0.4574490000000 1.0
C      1  0.5183760000000  0.5901850000000  0.5361530000000 1.0
C      1  0.5400070000000  0.5758760000000  0.4676300000000 1.0
C      1  0.5314960000000  0.5437810000000  0.4102500000000 1.0
C      1  0.5358560000000  0.4736400000000  0.4173090000000 1.0
C      1  0.5343480000000  0.4260690000000  0.4517130000000 1.0
C      1  0.5228430000000  0.4186410000000  0.5072710000000 1.0
C      1  0.5260160000000  0.4445630000000  0.5545940000000 1.0
C      1  0.5194950000000  0.4948950000000  0.5931000000000 1.0
C      1  0.5402910000000  0.5372090000000  0.5737320000000 1.0
C      1  0.6619440000000  0.5318810000000  0.5154780000000 1.0
C      1  0.6363760000000  0.5390270000000  0.5161140000000 1.0
C      1  0.6130260000000  0.5373090000000  0.5035420000000 1.0
C      1  0.5982390000000  0.5277840000000  0.4823940000000 1.0
C      1  0.6112630000000  0.5127210000000  0.4634280000000 1.0
C      1  0.6336560000000  0.5013430000000  0.4547460000000 1.0
C      1  0.6594720000000  0.4976470000000  0.4597540000000 1.0
C      1  0.6779230000000  0.5040660000000  0.4777980000000 1.0
C      1  0.6789280000000  0.5179870000000  0.5004540000000 1.0
C      1  0.5530560000000  0.4569430000000  0.5556640000000 1.0
C      1  0.5355630000000  0.5068670000000  0.5670540000000 1.0
C      1  0.5663520000000  0.5418670000000  0.5569090000000 1.0
C      1  0.5497200000000  0.5656780000000  0.5161130000000 1.0
C      1  0.5681170000000  0.5662760000000  0.4643600000000 1.0
C      1  0.5606900000000  0.5243750000000  0.4266980000000 1.0
C      1  0.5629770000000  0.4685090000000  0.4294730000000 1.0
C      1  0.5603900000000  0.4290640000000  0.4664920000000 1.0
C      1  0.5481200000000  0.4306470000000  0.5175210000000 1.0
C      1  0.4981180000000  0.5075530000000  0.4161700000000 1.0
C      1  0.4914700000000  0.4448780000000  0.4185600000000 1.0
C      1  0.4883560000000  0.4072800000000  0.4633880000000 1.0
C      1  0.4807140000000  0.4217630000000  0.5315670000000 1.0
C      1  0.4868560000000  0.4696530000000  0.5703550000000 1.0
C      1  0.4969230000000  0.5288490000000  0.6171200000000 1.0
C      1  0.4940560000000  0.5628200000000  0.5656930000000 1.0
C      1  0.4889270000000  0.5934520000000  0.5002910000000 1.0
C      1  0.5004910000000  0.5710760000000  0.4355830000000 1.0
C      1  0.5190160000000  0.5057300000000  0.5199590000000 1.0
END
