TITL C-3577087-600-681 -9.20416224454681e-06 125000 -717.094456215835 0 0 118 (C1) n - 1
REM
REM in /home/bkarasulu/work/CARBON/AIRSS/Generating-Clusters/EDIP-Nigel-Params/with-SteepDescent/Higher-Symm/SD-CG/HFTN-CG
REM
REM
REM
REM
REM
REM ./C.cell (12c818d87b63d06a65506943cc24bca4)
REM
REM compiler GCC version 9.2.1 20190827 (Red Hat 9.2.1-1)
REM options -cpp -mtune=generic -march=x86-64 -g -O0 -fpre-include=/usr/include/finclude/math-vector-fortran.h
REM seed -2009872469 714385707 -158626862 978761475 570116423 -1619665570 -538407229 1743516889 39765811 -1272468267 -2050882185 562120520 -1568408983 1487045316 967397992 356080684 -42994454 1853751509 -2114358162 -1633991619 -460749140 362606750 1290576509 1971868542 -1672383347 -687008487 -1929834290 513203768 -934810695 1823332253 -955499436 704055033 120884092
REM
CELL 1.54180   50.00000   50.00000   50.00000   90.00000   90.00000   90.00000
LATT -1
SFAC C  
C      1  0.5815950000000  0.5004740000000  0.5326580000000 1.0
C      1  0.5682290000000  0.5444490000000  0.5336360000000 1.0
C      1  0.5307050000000  0.5789080000000  0.5311870000000 1.0
C      1  0.4844250000000  0.5870380000000  0.5327250000000 1.0
C      1  0.4405660000000  0.5600410000000  0.5323190000000 1.0
C      1  0.4127240000000  0.5229990000000  0.5281490000000 1.0
C      1  0.4281810000000  0.4788730000000  0.5302190000000 1.0
C      1  0.4555410000000  0.4400210000000  0.5334960000000 1.0
C      1  0.4919470000000  0.4116330000000  0.5275170000000 1.0
C      1  0.5375520000000  0.4169720000000  0.5269810000000 1.0
C      1  0.5646460000000  0.4539920000000  0.5315540000000 1.0
C      1  0.4957100000000  0.4634370000000  0.5950000000000 1.0
C      1  0.5227290000000  0.4640010000000  0.5956710000000 1.0
C      1  0.5441970000000  0.4697010000000  0.5788570000000 1.0
C      1  0.5530200000000  0.4969210000000  0.5782300000000 1.0
C      1  0.5467220000000  0.5348710000000  0.5808550000000 1.0
C      1  0.5235000000000  0.5503640000000  0.5759620000000 1.0
C      1  0.4862340000000  0.5578130000000  0.5794860000000 1.0
C      1  0.4664590000000  0.5380540000000  0.5741390000000 1.0
C      1  0.4673060000000  0.5131340000000  0.5891610000000 1.0
C      1  0.4596170000000  0.4895400000000  0.5739010000000 1.0
C      1  0.4740780000000  0.4645800000000  0.5774390000000 1.0
C      1  0.4537630000000  0.4434870000000  0.4585700000000 1.0
C      1  0.4796050000000  0.4309990000000  0.4570940000000 1.0
C      1  0.5377830000000  0.4257870000000  0.4557410000000 1.0
C      1  0.5578400000000  0.4463360000000  0.4580620000000 1.0
C      1  0.5637300000000  0.4991220000000  0.4620780000000 1.0
C      1  0.5562650000000  0.5263780000000  0.4624890000000 1.0
C      1  0.5192570000000  0.5584230000000  0.4623080000000 1.0
C      1  0.4925670000000  0.5716340000000  0.4600610000000 1.0
C      1  0.4658710000000  0.5549210000000  0.4609720000000 1.0
C      1  0.4381180000000  0.5272310000000  0.4600900000000 1.0
C      1  0.4418930000000  0.4974960000000  0.4597300000000 1.0
C      1  0.5487170000000  0.4603490000000  0.4099360000000 1.0
C      1  0.5550960000000  0.4975160000000  0.4130090000000 1.0
C      1  0.5441990000000  0.5241820000000  0.4141820000000 1.0
C      1  0.5186390000000  0.5530290000000  0.4141170000000 1.0
C      1  0.4940570000000  0.5687320000000  0.4149310000000 1.0
C      1  0.4688600000000  0.5549300000000  0.4120960000000 1.0
C      1  0.4465500000000  0.5240730000000  0.4097880000000 1.0
C      1  0.4496260000000  0.4955990000000  0.4113130000000 1.0
C      1  0.4657250000000  0.4613070000000  0.4110070000000 1.0
C      1  0.4885070000000  0.4438520000000  0.4096070000000 1.0
C      1  0.5265060000000  0.4423980000000  0.4085670000000 1.0
C      1  0.5749310000000  0.5064420000000  0.5618360000000 1.0
C      1  0.5690560000000  0.5351590000000  0.5627940000000 1.0
C      1  0.5224060000000  0.5743950000000  0.5599410000000 1.0
C      1  0.4935660000000  0.5792390000000  0.5609520000000 1.0
C      1  0.4434620000000  0.5434160000000  0.5579230000000 1.0
C      1  0.4266540000000  0.5200630000000  0.5539430000000 1.0
C      1  0.4375630000000  0.4931940000000  0.5554950000000 1.0
C      1  0.4762850000000  0.4469910000000  0.5549150000000 1.0
C      1  0.4981500000000  0.4275260000000  0.5521170000000 1.0
C      1  0.5277160000000  0.4309990000000  0.5515880000000 1.0
C      1  0.5434610000000  0.4555420000000  0.5539750000000 1.0
C      1  0.5220410000000  0.4234900000000  0.4305100000000 1.0
C      1  0.5664660000000  0.4597480000000  0.4334820000000 1.0
C      1  0.5708950000000  0.4883250000000  0.4360540000000 1.0
C      1  0.5540020000000  0.5394800000000  0.4368150000000 1.0
C      1  0.5342570000000  0.5602920000000  0.4375610000000 1.0
C      1  0.4928560000000  0.5881420000000  0.4359030000000 1.0
C      1  0.4514090000000  0.5603610000000  0.4346430000000 1.0
C      1  0.4328270000000  0.5380910000000  0.4318320000000 1.0
C      1  0.4363630000000  0.4843610000000  0.4345380000000 1.0
C      1  0.4467980000000  0.4573210000000  0.4333280000000 1.0
C      1  0.4927390000000  0.4252240000000  0.4316730000000 1.0
C      1  0.5779410000000  0.4226210000000  0.4978020000000 1.0
C      1  0.5906250000000  0.4694210000000  0.4944480000000 1.0
C      1  0.5930720000000  0.5326060000000  0.4941820000000 1.0
C      1  0.5601260000000  0.5686130000000  0.4927490000000 1.0
C      1  0.5090860000000  0.6062350000000  0.4936820000000 1.0
C      1  0.4486640000000  0.5907650000000  0.4989560000000 1.0
C      1  0.4084930000000  0.5573450000000  0.4928590000000 1.0
C      1  0.4038250000000  0.4923140000000  0.4908150000000 1.0
C      1  0.4188360000000  0.4402820000000  0.5035050000000 1.0
C      1  0.4570230000000  0.4115350000000  0.4948150000000 1.0
C      1  0.5188350000000  0.3897940000000  0.4902280000000 1.0
C      1  0.5739210000000  0.4929930000000  0.4887850000000 1.0
C      1  0.5649100000000  0.5391580000000  0.4884280000000 1.0
C      1  0.5310440000000  0.5683890000000  0.4873520000000 1.0
C      1  0.4903210000000  0.5859110000000  0.4866030000000 1.0
C      1  0.4517410000000  0.5640290000000  0.4872860000000 1.0
C      1  0.4202450000000  0.5329170000000  0.4834940000000 1.0
C      1  0.4301960000000  0.4839900000000  0.4834300000000 1.0
C      1  0.4448050000000  0.4386760000000  0.4886830000000 1.0
C      1  0.4841260000000  0.4155660000000  0.4815320000000 1.0
C      1  0.5283710000000  0.4155020000000  0.4816890000000 1.0
C      1  0.5703640000000  0.4484290000000  0.4860030000000 1.0
C      1  0.5678370000000  0.4242110000000  0.5239830000000 1.0
C      1  0.5904210000000  0.4715010000000  0.5252740000000 1.0
C      1  0.5924180000000  0.5286050000000  0.5218760000000 1.0
C      1  0.5612250000000  0.5735720000000  0.5231890000000 1.0
C      1  0.5113660000000  0.6025660000000  0.5216180000000 1.0
C      1  0.4533740000000  0.5880370000000  0.5272710000000 1.0
C      1  0.4116380000000  0.5546990000000  0.5211140000000 1.0
C      1  0.4041490000000  0.4941000000000  0.5189740000000 1.0
C      1  0.4261660000000  0.4487510000000  0.5299780000000 1.0
C      1  0.4611110000000  0.4106710000000  0.5241990000000 1.0
C      1  0.5170000000000  0.3934010000000  0.5185320000000 1.0
C      1  0.5195590000000  0.5560740000000  0.5128600000000 1.0
C      1  0.4892680000000  0.5649950000000  0.5104070000000 1.0
C      1  0.4568710000000  0.5450130000000  0.5107340000000 1.0
C      1  0.4366400000000  0.5211830000000  0.5061550000000 1.0
C      1  0.4484160000000  0.4842780000000  0.5075890000000 1.0
C      1  0.4642330000000  0.4560160000000  0.5070340000000 1.0
C      1  0.4948690000000  0.4332570000000  0.5050730000000 1.0
C      1  0.5268610000000  0.4355360000000  0.5040590000000 1.0
C      1  0.5481530000000  0.4608030000000  0.5050730000000 1.0
C      1  0.5562120000000  0.4982760000000  0.5138620000000 1.0
C      1  0.5469070000000  0.5286870000000  0.5134450000000 1.0
C      1  0.4898850000000  0.5103440000000  0.6057370000000 1.0
C      1  0.5010430000000  0.4952890000000  0.4849850000000 1.0
C      1  0.5022600000000  0.4978010000000  0.4334320000000 1.0
C      1  0.5116190000000  0.5094380000000  0.5890560000000 1.0
C      1  0.5138070000000  0.5094680000000  0.5616080000000 1.0
C      1  0.5023310000000  0.4937790000000  0.4586760000000 1.0
C      1  0.5060870000000  0.5040940000000  0.5365530000000 1.0
C      1  0.5009860000000  0.4994620000000  0.5110540000000 1.0
END
