TITL C-3578208-4450-506 0.00085144986644309 125000 -342.419507910053 0 0 58 (C1) n - 1
REM
REM in /home/bkarasulu/work/CARBON/AIRSS/Generating-Clusters/EDIP-Nigel-Params/with-SteepDescent/Higher-Symm/SD-CG/HFTN-CG
REM
REM
REM
REM
REM
REM ./C.cell (12c818d87b63d06a65506943cc24bca4)
REM
REM compiler GCC version 9.2.1 20190827 (Red Hat 9.2.1-1)
REM options -cpp -mtune=generic -march=x86-64 -g -O0 -fpre-include=/usr/include/finclude/math-vector-fortran.h
REM seed 16557270 -545997988 -1584959312 -697650204 700198935 1488631541 -1271112013 1669714100 -1317862055 -954847003 -1543289325 1415875996 2026812029 -331561164 -1304745768 -1487562489 -102755486 -1678716507 -1090740825 2136157376 815622782 1462979915 1551883328 16992415 -811701069 -1295008306 609393122 751716187 -1232795353 194341498 -81703132 1651303488 -1558992168
REM
CELL 1.54180   50.00000   50.00000   50.00000   90.00000   90.00000   90.00000
LATT -1
SFAC C  
C      1  0.4668970000000  0.4754210000000  0.4430770000000 1.0
C      1  0.4410420000000  0.4741370000000  0.4827860000000 1.0
C      1  0.4498470000000  0.4721000000000  0.5333720000000 1.0
C      1  0.4758070000000  0.4828580000000  0.5624300000000 1.0
C      1  0.5144050000000  0.5147260000000  0.5680580000000 1.0
C      1  0.5500400000000  0.5262720000000  0.5752190000000 1.0
C      1  0.5850280000000  0.5304970000000  0.5403940000000 1.0
C      1  0.5913380000000  0.5289880000000  0.5024560000000 1.0
C      1  0.5806890000000  0.5218400000000  0.4560610000000 1.0
C      1  0.5557970000000  0.5076260000000  0.4304210000000 1.0
C      1  0.5128900000000  0.4863320000000  0.4270980000000 1.0
C      1  0.5106660000000  0.5890930000000  0.5339440000000 1.0
C      1  0.5201490000000  0.5800290000000  0.5085040000000 1.0
C      1  0.5175720000000  0.5953100000000  0.4850920000000 1.0
C      1  0.5115560000000  0.5760900000000  0.4653410000000 1.0
C      1  0.4882340000000  0.5780330000000  0.4498890000000 1.0
C      1  0.4733360000000  0.5553510000000  0.4568360000000 1.0
C      1  0.4492540000000  0.5559980000000  0.4713120000000 1.0
C      1  0.4496130000000  0.5321070000000  0.4862040000000 1.0
C      1  0.4515020000000  0.5340850000000  0.5148550000000 1.0
C      1  0.4711270000000  0.5592730000000  0.5358800000000 1.0
C      1  0.4859770000000  0.5815450000000  0.5450600000000 1.0
C      1  0.5278690000000  0.5079390000000  0.4350470000000 1.0
C      1  0.4894000000000  0.4741270000000  0.4290840000000 1.0
C      1  0.4552360000000  0.4886520000000  0.4641230000000 1.0
C      1  0.4386160000000  0.4690020000000  0.5088290000000 1.0
C      1  0.4605390000000  0.4952510000000  0.5433820000000 1.0
C      1  0.4967210000000  0.4947900000000  0.5750290000000 1.0
C      1  0.5249320000000  0.5343390000000  0.5850490000000 1.0
C      1  0.5599240000000  0.5379300000000  0.5512350000000 1.0
C      1  0.5990460000000  0.5462850000000  0.5225630000000 1.0
C      1  0.5746500000000  0.5353180000000  0.4802920000000 1.0
C      1  0.5720800000000  0.5299820000000  0.4310750000000 1.0
C      1  0.5292150000000  0.5527710000000  0.4619410000000 1.0
C      1  0.5152190000000  0.5283340000000  0.4515020000000 1.0
C      1  0.4855060000000  0.5289780000000  0.4546230000000 1.0
C      1  0.4696580000000  0.5122460000000  0.4752820000000 1.0
C      1  0.4857200000000  0.5030130000000  0.5003300000000 1.0
C      1  0.4724070000000  0.5156240000000  0.5251020000000 1.0
C      1  0.4885900000000  0.5368930000000  0.5395470000000 1.0
C      1  0.5131240000000  0.5538100000000  0.5483620000000 1.0
C      1  0.5386470000000  0.5462890000000  0.5340730000000 1.0
C      1  0.5421480000000  0.5615850000000  0.5096000000000 1.0
C      1  0.5486900000000  0.5479140000000  0.4842740000000 1.0
C      1  0.4766770000000  0.4042480000000  0.4570780000000 1.0
C      1  0.4839160000000  0.4230910000000  0.4742290000000 1.0
C      1  0.4877690000000  0.4347240000000  0.4987570000000 1.0
C      1  0.4804720000000  0.4212040000000  0.5214700000000 1.0
C      1  0.4709430000000  0.4011030000000  0.5358550000000 1.0
C      1  0.4603200000000  0.3770260000000  0.5387130000000 1.0
C      1  0.4512030000000  0.3546620000000  0.5278220000000 1.0
C      1  0.4466630000000  0.3413520000000  0.5053500000000 1.0
C      1  0.4485860000000  0.3424080000000  0.4789250000000 1.0
C      1  0.4562500000000  0.3574320000000  0.4584720000000 1.0
C      1  0.4667160000000  0.3805350000000  0.4508200000000 1.0
C      1  0.5176230000000  0.4785280000000  0.5007370000000 1.0
C      1  0.4977940000000  0.4602320000000  0.5005040000000 1.0
C      1  0.5143610000000  0.5055210000000  0.4997420000000 1.0
END
