TITL C-3577081-279-346 -9.88800223335135e-07 125000 -1089.06328117803 0 0 174 (C1) n - 1
REM
REM in /home/bkarasulu/work/CARBON/AIRSS/Generating-Clusters/EDIP-Nigel-Params/with-SteepDescent/Higher-Symm/SD-CG/HFTN-CG
REM
REM
REM
REM
REM
REM ./C.cell (12c818d87b63d06a65506943cc24bca4)
REM
REM compiler GCC version 9.2.1 20190827 (Red Hat 9.2.1-1)
REM options -cpp -mtune=generic -march=x86-64 -g -O0 -fpre-include=/usr/include/finclude/math-vector-fortran.h
REM seed -309350348 -1333383586 -643414136 -1125115404 -898524005 -402444511 1832516435 1617373517 -730085101 853981560 710943338 -397310954 -665313666 -342257352 -891829213 -646619678 214058429 229544624 -1956855478 1161888983 2145532464 -1476953228 1818307773 -677705754 -158697168 1858693517 -1197435594 -213461472 -846655680 -1698677833 251872208 325334828 394014609
REM
CELL 1.54180   50.00000   50.00000   50.00000   90.00000   90.00000   90.00000
LATT -1
SFAC C  
C      1  0.4774450000000  0.4940600000000  0.3812930000000 1.0
C      1  0.5236860000000  0.4936430000000  0.3823170000000 1.0
C      1  0.5005710000000  0.5086370000000  0.3844560000000 1.0
C      1  0.4845600000000  0.4868040000000  0.6189730000000 1.0
C      1  0.5060770000000  0.4971260000000  0.6042510000000 1.0
C      1  0.5039170000000  0.5207900000000  0.6193190000000 1.0
C      1  0.5162510000000  0.5924230000000  0.4403060000000 1.0
C      1  0.4103250000000  0.4622550000000  0.4430950000000 1.0
C      1  0.5750990000000  0.4399550000000  0.4413250000000 1.0
C      1  0.5134720000000  0.5959970000000  0.5578840000000 1.0
C      1  0.4137430000000  0.4655440000000  0.5597480000000 1.0
C      1  0.5751190000000  0.4425770000000  0.5590270000000 1.0
C      1  0.4416810000000  0.5036960000000  0.4682620000000 1.0
C      1  0.5270350000000  0.4530140000000  0.4659830000000 1.0
C      1  0.5296990000000  0.5449130000000  0.4671430000000 1.0
C      1  0.4472660000000  0.5018940000000  0.5338600000000 1.0
C      1  0.5254690000000  0.4502650000000  0.5320430000000 1.0
C      1  0.5291710000000  0.5446640000000  0.5346060000000 1.0
C      1  0.4411530000000  0.4564450000000  0.5544550000000 1.0
C      1  0.5664520000000  0.4703610000000  0.5555440000000 1.0
C      1  0.4928980000000  0.5752490000000  0.5553320000000 1.0
C      1  0.4393320000000  0.4586890000000  0.4464290000000 1.0
C      1  0.5704410000000  0.4687630000000  0.4452240000000 1.0
C      1  0.4957340000000  0.5718070000000  0.4446370000000 1.0
C      1  0.4073520000000  0.4439570000000  0.5170830000000 1.0
C      1  0.5949970000000  0.4510190000000  0.5150460000000 1.0
C      1  0.4972330000000  0.6086050000000  0.5126600000000 1.0
C      1  0.4078740000000  0.4412850000000  0.4881210000000 1.0
C      1  0.5953190000000  0.4477310000000  0.4858520000000 1.0
C      1  0.4995500000000  0.6083070000000  0.4835740000000 1.0
C      1  0.4419900000000  0.4951690000000  0.4138190000000 1.0
C      1  0.5332880000000  0.4562850000000  0.4158070000000 1.0
C      1  0.5252180000000  0.5451610000000  0.4138270000000 1.0
C      1  0.4488650000000  0.4942000000000  0.5843490000000 1.0
C      1  0.5289380000000  0.4561720000000  0.5853350000000 1.0
C      1  0.5229730000000  0.5506270000000  0.5857540000000 1.0
C      1  0.5016700000000  0.4420220000000  0.5878570000000 1.0
C      1  0.5486170000000  0.5330280000000  0.5893280000000 1.0
C      1  0.4526330000000  0.5258210000000  0.5868980000000 1.0
C      1  0.5040050000000  0.4458760000000  0.4141330000000 1.0
C      1  0.5511270000000  0.5280330000000  0.4134360000000 1.0
C      1  0.4471990000000  0.5247570000000  0.4111830000000 1.0
C      1  0.5947110000000  0.5078690000000  0.5666150000000 1.0
C      1  0.4466220000000  0.5799050000000  0.5636080000000 1.0
C      1  0.4595190000000  0.4132060000000  0.5597420000000 1.0
C      1  0.5994270000000  0.5060260000000  0.4399280000000 1.0
C      1  0.4484410000000  0.5740060000000  0.4451130000000 1.0
C      1  0.4584850000000  0.4137750000000  0.4351460000000 1.0
C      1  0.4740240000000  0.5380900000000  0.4184130000000 1.0
C      1  0.4772260000000  0.4602980000000  0.4190830000000 1.0
C      1  0.5574570000000  0.4982030000000  0.4131690000000 1.0
C      1  0.4753440000000  0.5473090000000  0.5887630000000 1.0
C      1  0.4740460000000  0.4525170000000  0.5871470000000 1.0
C      1  0.5503930000000  0.5018810000000  0.5854900000000 1.0
C      1  0.4312900000000  0.5550580000000  0.5197710000000 1.0
C      1  0.4875190000000  0.4169090000000  0.5147030000000 1.0
C      1  0.5813190000000  0.5336020000000  0.5114950000000 1.0
C      1  0.4278640000000  0.5619750000000  0.4884210000000 1.0
C      1  0.4878740000000  0.4159100000000  0.4774660000000 1.0
C      1  0.5819030000000  0.5319440000000  0.4798970000000 1.0
C      1  0.5700470000000  0.5487680000000  0.5766700000000 1.0
C      1  0.4258210000000  0.5373680000000  0.5786970000000 1.0
C      1  0.5061230000000  0.4158710000000  0.5750160000000 1.0
C      1  0.5727570000000  0.5445660000000  0.4251230000000 1.0
C      1  0.4227330000000  0.5351390000000  0.4244580000000 1.0
C      1  0.5056880000000  0.4161340000000  0.4198120000000 1.0
C      1  0.5316640000000  0.4102430000000  0.4348380000000 1.0
C      1  0.5627130000000  0.5685260000000  0.4382060000000 1.0
C      1  0.4064810000000  0.5143180000000  0.4384360000000 1.0
C      1  0.5315660000000  0.4151630000000  0.5607830000000 1.0
C      1  0.5593670000000  0.5710400000000  0.5620110000000 1.0
C      1  0.4097830000000  0.5174050000000  0.5644010000000 1.0
C      1  0.5534470000000  0.4294090000000  0.5738860000000 1.0
C      1  0.5355170000000  0.5839010000000  0.5736280000000 1.0
C      1  0.4180500000000  0.4906230000000  0.5758890000000 1.0
C      1  0.5517800000000  0.4309670000000  0.4238380000000 1.0
C      1  0.5378550000000  0.5786680000000  0.4257880000000 1.0
C      1  0.4072920000000  0.4871430000000  0.4271890000000 1.0
C      1  0.5247750000000  0.4971890000000  0.5220150000000 1.0
C      1  0.4859730000000  0.5263220000000  0.5239720000000 1.0
C      1  0.4841500000000  0.4756450000000  0.5212270000000 1.0
C      1  0.5270940000000  0.4992930000000  0.4743090000000 1.0
C      1  0.4847210000000  0.5259470000000  0.4731380000000 1.0
C      1  0.4825900000000  0.4769620000000  0.4715760000000 1.0
C      1  0.4490920000000  0.4868650000000  0.4428450000000 1.0
C      1  0.5403880000000  0.4695880000000  0.4429000000000 1.0
C      1  0.5114720000000  0.5467730000000  0.4424920000000 1.0
C      1  0.4574160000000  0.4820180000000  0.5565360000000 1.0
C      1  0.5362970000000  0.4670480000000  0.5563010000000 1.0
C      1  0.5080710000000  0.5494120000000  0.5577520000000 1.0
C      1  0.3970890000000  0.5313810000000  0.5402980000000 1.0
C      1  0.5266080000000  0.3971670000000  0.5374970000000 1.0
C      1  0.5776880000000  0.5752870000000  0.5386250000000 1.0
C      1  0.3949810000000  0.5275580000000  0.4631710000000 1.0
C      1  0.5247330000000  0.3935430000000  0.4613160000000 1.0
C      1  0.5805770000000  0.5727890000000  0.4620340000000 1.0
C      1  0.5490050000000  0.5209030000000  0.5503700000000 1.0
C      1  0.4473950000000  0.5318100000000  0.5464090000000 1.0
C      1  0.4983990000000  0.4383580000000  0.5444200000000 1.0
C      1  0.5547620000000  0.5292920000000  0.4562980000000 1.0
C      1  0.4379050000000  0.5342740000000  0.4611120000000 1.0
C      1  0.5075020000000  0.4320780000000  0.4554540000000 1.0
C      1  0.4716180000000  0.5505320000000  0.4841000000000 1.0
C      1  0.4654000000000  0.4551380000000  0.4820430000000 1.0
C      1  0.5541040000000  0.4959480000000  0.4853670000000 1.0
C      1  0.4755120000000  0.5509710000000  0.5123080000000 1.0
C      1  0.4660310000000  0.4555470000000  0.5105590000000 1.0
C      1  0.5523010000000  0.4962100000000  0.5132900000000 1.0
C      1  0.4599430000000  0.4282180000000  0.4699960000000 1.0
C      1  0.5818630000000  0.5006110000000  0.4735310000000 1.0
C      1  0.4539220000000  0.5730630000000  0.4752350000000 1.0
C      1  0.4613040000000  0.4302740000000  0.5249520000000 1.0
C      1  0.5744060000000  0.5090690000000  0.5274880000000 1.0
C      1  0.4582410000000  0.5693750000000  0.5284510000000 1.0
C      1  0.5196070000000  0.5991070000000  0.5290390000000 1.0
C      1  0.4050760000000  0.4695270000000  0.5318330000000 1.0
C      1  0.5764290000000  0.4346350000000  0.5306760000000 1.0
C      1  0.5227620000000  0.5973480000000  0.4690530000000 1.0
C      1  0.4036480000000  0.4653900000000  0.4719530000000 1.0
C      1  0.5750570000000  0.4325660000000  0.4704690000000 1.0
C      1  0.5121570000000  0.4723200000000  0.5112470000000 1.0
C      1  0.5142820000000  0.5247450000000  0.5151090000000 1.0
C      1  0.4707270000000  0.5020030000000  0.5143670000000 1.0
C      1  0.5116960000000  0.4742950000000  0.4809640000000 1.0
C      1  0.5137750000000  0.5249980000000  0.4839920000000 1.0
C      1  0.4689660000000  0.5021100000000  0.4831050000000 1.0
C      1  0.4837980000000  0.3998200000000  0.4330230000000 1.0
C      1  0.5988350000000  0.5346490000000  0.4363260000000 1.0
C      1  0.4214220000000  0.5623210000000  0.4388660000000 1.0
C      1  0.4848610000000  0.4001490000000  0.5605390000000 1.0
C      1  0.5895960000000  0.5348650000000  0.5602990000000 1.0
C      1  0.4230000000000  0.5638360000000  0.5655960000000 1.0
C      1  0.4526560000000  0.4373470000000  0.5734210000000 1.0
C      1  0.5756510000000  0.4894850000000  0.5755460000000 1.0
C      1  0.4718120000000  0.5744150000000  0.5757710000000 1.0
C      1  0.4548630000000  0.4414420000000  0.4282470000000 1.0
C      1  0.5824290000000  0.4874350000000  0.4261790000000 1.0
C      1  0.4716120000000  0.5678940000000  0.4277990000000 1.0
C      1  0.4886490000000  0.5250110000000  0.4429760000000 1.0
C      1  0.4796240000000  0.4815660000000  0.4418230000000 1.0
C      1  0.5340200000000  0.5017850000000  0.4443840000000 1.0
C      1  0.4829490000000  0.5287410000000  0.5550820000000 1.0
C      1  0.4901470000000  0.4722590000000  0.5514990000000 1.0
C      1  0.5229580000000  0.4940150000000  0.5521950000000 1.0
C      1  0.4623850000000  0.4781810000000  0.3980070000000 1.0
C      1  0.5420340000000  0.4787780000000  0.3965830000000 1.0
C      1  0.4992220000000  0.5338100000000  0.3995910000000 1.0
C      1  0.4637130000000  0.4751480000000  0.6033820000000 1.0
C      1  0.5306300000000  0.4835470000000  0.5988360000000 1.0
C      1  0.5007000000000  0.5453490000000  0.6052510000000 1.0
C      1  0.5489630000000  0.4331570000000  0.5185200000000 1.0
C      1  0.5336950000000  0.5746140000000  0.5183680000000 1.0
C      1  0.4205840000000  0.4928500000000  0.5193840000000 1.0
C      1  0.5472950000000  0.4358490000000  0.4824730000000 1.0
C      1  0.5346980000000  0.5721770000000  0.4821810000000 1.0
C      1  0.4171060000000  0.4902070000000  0.4834910000000 1.0
C      1  0.4622110000000  0.5968000000000  0.5162760000000 1.0
C      1  0.4359940000000  0.4197290000000  0.5129940000000 1.0
C      1  0.5963100000000  0.4886220000000  0.5203990000000 1.0
C      1  0.4634200000000  0.5984500000000  0.4873460000000 1.0
C      1  0.4362100000000  0.4172170000000  0.4842630000000 1.0
C      1  0.6005970000000  0.4848850000000  0.4913880000000 1.0
C      1  0.5629610000000  0.5836370000000  0.5145220000000 1.0
C      1  0.4054580000000  0.5191670000000  0.5149670000000 1.0
C      1  0.5413890000000  0.4041770000000  0.5131030000000 1.0
C      1  0.5648790000000  0.5724590000000  0.4868270000000 1.0
C      1  0.3954990000000  0.5113890000000  0.4876660000000 1.0
C      1  0.5310330000000  0.4095310000000  0.4855260000000 1.0
C      1  0.4969590000000  0.3951730000000  0.5334550000000 1.0
C      1  0.5926010000000  0.5494810000000  0.5338560000000 1.0
C      1  0.4084490000000  0.5593220000000  0.5399030000000 1.0
C      1  0.4942260000000  0.3904070000000  0.4600800000000 1.0
C      1  0.6007490000000  0.5498220000000  0.4622920000000 1.0
C      1  0.4060490000000  0.5561670000000  0.4660880000000 1.0
END
