TITL C-3577088-510-602 -2.66047232980717e-06 125000 -419.658623985996 0 0 67 (C1) n - 1
REM
REM in /home/bkarasulu/work/CARBON/AIRSS/Generating-Clusters/EDIP-Nigel-Params/with-SteepDescent/Higher-Symm/SD-CG/HFTN-CG
REM
REM
REM
REM
REM
REM ./C.cell (12c818d87b63d06a65506943cc24bca4)
REM
REM compiler GCC version 9.2.1 20190827 (Red Hat 9.2.1-1)
REM options -cpp -mtune=generic -march=x86-64 -g -O0 -fpre-include=/usr/include/finclude/math-vector-fortran.h
REM seed 663492705 -1766901912 810427337 -91361818 317500156 -971342886 -622707223 -549405995 -1996829477 1587592416 449842202 438713752 -1794515543 -864834386 1928855434 1129260794 72209309 96258524 -841737951 1529833542 -649720508 393062562 -955481997 1395098479 1821896503 37427980 227330299 -226952708 1134661421 -1584768521 -766095460 1699944071 -1859958820
REM
CELL 1.54180   50.00000   50.00000   50.00000   90.00000   90.00000   90.00000
LATT -1
SFAC C  
C      1  0.5399450000000  0.4447420000000  0.5252050000000 1.0
C      1  0.5446710000000  0.5572810000000  0.4757680000000 1.0
C      1  0.4278250000000  0.5288290000000  0.4943810000000 1.0
C      1  0.4302960000000  0.4707800000000  0.5077380000000 1.0
C      1  0.5394820000000  0.5058050000000  0.5143970000000 1.0
C      1  0.5401430000000  0.4938250000000  0.4856620000000 1.0
C      1  0.4793560000000  0.4304170000000  0.5064230000000 1.0
C      1  0.4776460000000  0.5675450000000  0.4875050000000 1.0
C      1  0.4292980000000  0.5079520000000  0.4739420000000 1.0
C      1  0.4300550000000  0.4916280000000  0.5278900000000 1.0
C      1  0.4970230000000  0.5504270000000  0.4708080000000 1.0
C      1  0.4909820000000  0.4497040000000  0.5266100000000 1.0
C      1  0.4429630000000  0.5146800000000  0.4487410000000 1.0
C      1  0.4442720000000  0.4864670000000  0.5530220000000 1.0
C      1  0.4592260000000  0.4908040000000  0.4409440000000 1.0
C      1  0.4597040000000  0.5111780000000  0.5595990000000 1.0
C      1  0.5110660000000  0.5025420000000  0.5260410000000 1.0
C      1  0.5123000000000  0.4981750000000  0.4739550000000 1.0
C      1  0.4841130000000  0.4331200000000  0.4779140000000 1.0
C      1  0.4823520000000  0.5665200000000  0.5180790000000 1.0
C      1  0.5121410000000  0.4900200000000  0.4438400000000 1.0
C      1  0.5120060000000  0.5120540000000  0.5559520000000 1.0
C      1  0.5366840000000  0.4424060000000  0.4962640000000 1.0
C      1  0.5390340000000  0.5583390000000  0.5041670000000 1.0
C      1  0.5522650000000  0.5306890000000  0.4648310000000 1.0
C      1  0.5522290000000  0.4697860000000  0.5359650000000 1.0
C      1  0.4610040000000  0.4620380000000  0.5552120000000 1.0
C      1  0.4599970000000  0.5388710000000  0.4497810000000 1.0
C      1  0.5498540000000  0.4641430000000  0.4821090000000 1.0
C      1  0.5502440000000  0.5356390000000  0.5182740000000 1.0
C      1  0.5174800000000  0.4595980000000  0.4476570000000 1.0
C      1  0.5172570000000  0.5422980000000  0.5516760000000 1.0
C      1  0.4974260000000  0.4769370000000  0.4869770000000 1.0
C      1  0.4988840000000  0.5247540000000  0.5120840000000 1.0
C      1  0.4513800000000  0.4682890000000  0.4596950000000 1.0
C      1  0.4502980000000  0.5330230000000  0.5405530000000 1.0
C      1  0.5150870000000  0.4378890000000  0.5409210000000 1.0
C      1  0.5211080000000  0.5668040000000  0.4604050000000 1.0
C      1  0.4967300000000  0.4774340000000  0.5153510000000 1.0
C      1  0.5018250000000  0.5241420000000  0.4840770000000 1.0
C      1  0.4608890000000  0.5584070000000  0.5345930000000 1.0
C      1  0.4628710000000  0.4428170000000  0.4624150000000 1.0
C      1  0.4863070000000  0.5013060000000  0.4316670000000 1.0
C      1  0.4869160000000  0.5015540000000  0.5692030000000 1.0
C      1  0.4534790000000  0.5578880000000  0.4728780000000 1.0
C      1  0.4553090000000  0.4390790000000  0.5358290000000 1.0
C      1  0.5394220000000  0.4727610000000  0.5622280000000 1.0
C      1  0.5395690000000  0.5288660000000  0.4385720000000 1.0
C      1  0.4343400000000  0.4449360000000  0.5174300000000 1.0
C      1  0.4290590000000  0.5559410000000  0.4869020000000 1.0
C      1  0.5150860000000  0.5467150000000  0.4361390000000 1.0
C      1  0.5138570000000  0.4568680000000  0.5640410000000 1.0
C      1  0.5074200000000  0.4516620000000  0.4756840000000 1.0
C      1  0.5077560000000  0.5501970000000  0.5232190000000 1.0
C      1  0.4337230000000  0.4797120000000  0.4801140000000 1.0
C      1  0.4321130000000  0.5200470000000  0.5217160000000 1.0
C      1  0.5477210000000  0.5398740000000  0.5471950000000 1.0
C      1  0.5476240000000  0.4611560000000  0.4530010000000 1.0
C      1  0.4874130000000  0.4719990000000  0.5651480000000 1.0
C      1  0.4859090000000  0.5313370000000  0.4345500000000 1.0
C      1  0.5592650000000  0.5146220000000  0.5562820000000 1.0
C      1  0.5590160000000  0.4867300000000  0.4445710000000 1.0
C      1  0.5733610000000  0.5094420000000  0.4719210000000 1.0
C      1  0.5730390000000  0.4917260000000  0.5289220000000 1.0
C      1  0.5372360000000  0.5009910000000  0.4316220000000 1.0
C      1  0.5369780000000  0.5010350000000  0.5685930000000 1.0
C      1  0.5796570000000  0.5007030000000  0.5004700000000 1.0
END
