TITL C-3578207-9274-772 6.55218331795916e-07 125000 -1197.53024165176 0 0 193 (C1) n - 1
REM
REM in /home/bkarasulu/work/CARBON/AIRSS/Generating-Clusters/EDIP-Nigel-Params/with-SteepDescent/Higher-Symm/SD-CG/HFTN-CG
REM
REM
REM
REM
REM
REM ./C.cell (12c818d87b63d06a65506943cc24bca4)
REM
REM compiler GCC version 9.2.1 20190827 (Red Hat 9.2.1-1)
REM options -cpp -mtune=generic -march=x86-64 -g -O0 -fpre-include=/usr/include/finclude/math-vector-fortran.h
REM seed -1204892718 496442855 127991403 156932553 -1827316814 -588826208 1515159318 1569013956 -1581525846 412731380 133062829 943659513 -2039370725 -438856423 -1605116767 199380220 1784466784 -475005256 -2025045993 -2132712703 1274716688 -138865060 -1453930866 58695217 906770246 -1581283078 -272019939 1610814112 1301178172 1805191844 2119389213 -1399469977 -1517736850
REM
CELL 1.54180   50.00000   50.00000   50.00000   90.00000   90.00000   90.00000
LATT -1
SFAC C  
C      1  0.4605010000000  0.4444010000000  0.6072330000000 1.0
C      1  0.4108950000000  0.5500190000000  0.5603260000000 1.0
C      1  0.3981530000000  0.4551240000000  0.5019070000000 1.0
C      1  0.4126400000000  0.5452850000000  0.4382200000000 1.0
C      1  0.4700940000000  0.4501120000000  0.3941960000000 1.0
C      1  0.5365380000000  0.5460470000000  0.4025900000000 1.0
C      1  0.5905530000000  0.4538030000000  0.4403090000000 1.0
C      1  0.6131400000000  0.5504140000000  0.5083610000000 1.0
C      1  0.5761400000000  0.4574590000000  0.5599030000000 1.0
C      1  0.5309320000000  0.5463710000000  0.5980370000000 1.0
C      1  0.5662400000000  0.4103830000000  0.4443280000000 1.0
C      1  0.5865370000000  0.5898680000000  0.4916030000000 1.0
C      1  0.5625610000000  0.4171870000000  0.5342770000000 1.0
C      1  0.5323830000000  0.5872560000000  0.5670540000000 1.0
C      1  0.4822000000000  0.4054170000000  0.5794780000000 1.0
C      1  0.4396840000000  0.5908830000000  0.5525430000000 1.0
C      1  0.4252080000000  0.4128950000000  0.5107840000000 1.0
C      1  0.4309570000000  0.5879800000000  0.4597560000000 1.0
C      1  0.4635160000000  0.4098450000000  0.4234160000000 1.0
C      1  0.5139930000000  0.5827110000000  0.4271190000000 1.0
C      1  0.4363060000000  0.4200390000000  0.4265390000000 1.0
C      1  0.4926250000000  0.5764540000000  0.4065400000000 1.0
C      1  0.5512920000000  0.4191800000000  0.4214450000000 1.0
C      1  0.5892450000000  0.5783210000000  0.4651890000000 1.0
C      1  0.5902860000000  0.4191280000000  0.5232180000000 1.0
C      1  0.5617330000000  0.5863410000000  0.5723690000000 1.0
C      1  0.5071390000000  0.4160100000000  0.5877800000000 1.0
C      1  0.4540740000000  0.5816560000000  0.5753220000000 1.0
C      1  0.4135990000000  0.4180080000000  0.5375910000000 1.0
C      1  0.4077360000000  0.5863450000000  0.4771870000000 1.0
C      1  0.5010990000000  0.4448400000000  0.5910980000000 1.0
C      1  0.4502650000000  0.5514660000000  0.5802240000000 1.0
C      1  0.4124580000000  0.4485540000000  0.5432850000000 1.0
C      1  0.3993050000000  0.5562850000000  0.4790190000000 1.0
C      1  0.4369420000000  0.4505660000000  0.4235110000000 1.0
C      1  0.4922940000000  0.5457690000000  0.4012460000000 1.0
C      1  0.5519600000000  0.4502860000000  0.4183330000000 1.0
C      1  0.5940470000000  0.5472870000000  0.4682270000000 1.0
C      1  0.5971300000000  0.4495200000000  0.5214510000000 1.0
C      1  0.5679530000000  0.5561850000000  0.5757700000000 1.0
C      1  0.5092840000000  0.4337040000000  0.4201660000000 1.0
C      1  0.5529160000000  0.5583690000000  0.4466770000000 1.0
C      1  0.5874410000000  0.4342210000000  0.4819000000000 1.0
C      1  0.5829450000000  0.5702740000000  0.5373580000000 1.0
C      1  0.5304420000000  0.4432690000000  0.5578510000000 1.0
C      1  0.4925940000000  0.5598450000000  0.5721370000000 1.0
C      1  0.4415440000000  0.4282200000000  0.5704000000000 1.0
C      1  0.4149440000000  0.5690930000000  0.5171130000000 1.0
C      1  0.4278830000000  0.4411850000000  0.4677810000000 1.0
C      1  0.4561670000000  0.5583610000000  0.4287570000000 1.0
C      1  0.4744720000000  0.6133860000000  0.4945330000000 1.0
C      1  0.4877910000000  0.3907680000000  0.4846310000000 1.0
C      1  0.4976890000000  0.6090970000000  0.4752310000000 1.0
C      1  0.5168290000000  0.3828220000000  0.4768460000000 1.0
C      1  0.5247640000000  0.6123380000000  0.4891600000000 1.0
C      1  0.5273300000000  0.3866570000000  0.5047640000000 1.0
C      1  0.5184380000000  0.6127580000000  0.5184330000000 1.0
C      1  0.5044960000000  0.3834680000000  0.5251810000000 1.0
C      1  0.4879660000000  0.6140980000000  0.5216670000000 1.0
C      1  0.4771110000000  0.3827520000000  0.5121390000000 1.0
C      1  0.3885820000000  0.5464920000000  0.4534540000000 1.0
C      1  0.4424000000000  0.4561900000000  0.3958130000000 1.0
C      1  0.5155830000000  0.5397830000000  0.3850080000000 1.0
C      1  0.5796670000000  0.4589070000000  0.4153030000000 1.0
C      1  0.6196090000000  0.5436360000000  0.4820450000000 1.0
C      1  0.6021770000000  0.4600890000000  0.5484360000000 1.0
C      1  0.5590070000000  0.5467070000000  0.6022450000000 1.0
C      1  0.4866790000000  0.4500830000000  0.6158470000000 1.0
C      1  0.4224060000000  0.5454430000000  0.5858190000000 1.0
C      1  0.3905750000000  0.4608890000000  0.5283460000000 1.0
C      1  0.4727300000000  0.4298240000000  0.4716080000000 1.0
C      1  0.4889700000000  0.5616630000000  0.4660150000000 1.0
C      1  0.5202230000000  0.4284880000000  0.4715250000000 1.0
C      1  0.5335540000000  0.5687350000000  0.4917080000000 1.0
C      1  0.5399330000000  0.4349350000000  0.4928810000000 1.0
C      1  0.5375560000000  0.5667100000000  0.5205750000000 1.0
C      1  0.4960710000000  0.4281020000000  0.5248970000000 1.0
C      1  0.4836610000000  0.5670980000000  0.5218490000000 1.0
C      1  0.4678380000000  0.4292280000000  0.5288080000000 1.0
C      1  0.4615880000000  0.5651710000000  0.5007300000000 1.0
C      1  0.5568150000000  0.5247760000000  0.4068410000000 1.0
C      1  0.6015780000000  0.4749760000000  0.4576590000000 1.0
C      1  0.6109710000000  0.5312120000000  0.5299860000000 1.0
C      1  0.5622300000000  0.4734200000000  0.5813040000000 1.0
C      1  0.5087210000000  0.5331810000000  0.6132640000000 1.0
C      1  0.4461830000000  0.4659490000000  0.5932550000000 1.0
C      1  0.4028320000000  0.5286360000000  0.5418490000000 1.0
C      1  0.3912790000000  0.4703840000000  0.4780480000000 1.0
C      1  0.4249460000000  0.5265930000000  0.4176740000000 1.0
C      1  0.4901430000000  0.4702020000000  0.3857190000000 1.0
C      1  0.4957380000000  0.5029990000000  0.4714880000000 1.0
C      1  0.5226750000000  0.5053160000000  0.4591800000000 1.0
C      1  0.5422630000000  0.4992200000000  0.4808870000000 1.0
C      1  0.5291670000000  0.5047470000000  0.5062680000000 1.0
C      1  0.5322280000000  0.4991950000000  0.5354180000000 1.0
C      1  0.5030290000000  0.4987540000000  0.5419740000000 1.0
C      1  0.4858040000000  0.4975500000000  0.5187300000000 1.0
C      1  0.4576360000000  0.5002740000000  0.5153180000000 1.0
C      1  0.4474490000000  0.5007880000000  0.4880060000000 1.0
C      1  0.4669320000000  0.5095420000000  0.4642420000000 1.0
C      1  0.4877780000000  0.4576510000000  0.5624470000000 1.0
C      1  0.4612970000000  0.5331020000000  0.5576590000000 1.0
C      1  0.4398710000000  0.4622260000000  0.5391700000000 1.0
C      1  0.4249600000000  0.5406800000000  0.4843640000000 1.0
C      1  0.4580550000000  0.4636930000000  0.4416640000000 1.0
C      1  0.4926490000000  0.5305970000000  0.4278110000000 1.0
C      1  0.5339900000000  0.4644100000000  0.4399490000000 1.0
C      1  0.5707930000000  0.5362980000000  0.4845610000000 1.0
C      1  0.5732720000000  0.4655120000000  0.5108390000000 1.0
C      1  0.5526950000000  0.5409430000000  0.5534250000000 1.0
C      1  0.5995090000000  0.5755320000000  0.5133250000000 1.0
C      1  0.5562320000000  0.4430560000000  0.5449270000000 1.0
C      1  0.5209860000000  0.5620040000000  0.5758470000000 1.0
C      1  0.4587480000000  0.4184260000000  0.5920070000000 1.0
C      1  0.4169600000000  0.5746610000000  0.5459010000000 1.0
C      1  0.4193840000000  0.4370040000000  0.4955230000000 1.0
C      1  0.4314290000000  0.5665760000000  0.4407780000000 1.0
C      1  0.4812510000000  0.4285360000000  0.4107590000000 1.0
C      1  0.5308240000000  0.5596640000000  0.4276990000000 1.0
C      1  0.5872040000000  0.4280990000000  0.4530770000000 1.0
C      1  0.5502380000000  0.4098540000000  0.5063990000000 1.0
C      1  0.5371990000000  0.5926730000000  0.5358040000000 1.0
C      1  0.5010470000000  0.4053860000000  0.5455470000000 1.0
C      1  0.4752350000000  0.5918870000000  0.5379860000000 1.0
C      1  0.4537250000000  0.4038020000000  0.5249600000000 1.0
C      1  0.4510310000000  0.5921880000000  0.4911900000000 1.0
C      1  0.4594770000000  0.4051800000000  0.4611710000000 1.0
C      1  0.4922040000000  0.5867950000000  0.4496570000000 1.0
C      1  0.5305440000000  0.4033930000000  0.4571000000000 1.0
C      1  0.5493700000000  0.5935800000000  0.4824470000000 1.0
C      1  0.5006570000000  0.5033540000000  0.6097400000000 1.0
C      1  0.4479300000000  0.4966140000000  0.5900560000000 1.0
C      1  0.4133020000000  0.5010080000000  0.5481220000000 1.0
C      1  0.3943450000000  0.5003310000000  0.4747260000000 1.0
C      1  0.4320650000000  0.5000070000000  0.4279460000000 1.0
C      1  0.4839950000000  0.4991610000000  0.3944020000000 1.0
C      1  0.5429430000000  0.4971690000000  0.4111090000000 1.0
C      1  0.5849510000000  0.4999730000000  0.4557960000000 1.0
C      1  0.6154090000000  0.5033380000000  0.5248480000000 1.0
C      1  0.5661410000000  0.5021990000000  0.5791250000000 1.0
C      1  0.4306790000000  0.4140520000000  0.4546470000000 1.0
C      1  0.4700740000000  0.5839810000000  0.4239400000000 1.0
C      1  0.5243170000000  0.4078140000000  0.4254500000000 1.0
C      1  0.5628260000000  0.5857630000000  0.4543220000000 1.0
C      1  0.5830210000000  0.4078570000000  0.4963450000000 1.0
C      1  0.5697280000000  0.5965130000000  0.5453560000000 1.0
C      1  0.5241750000000  0.4143160000000  0.5644040000000 1.0
C      1  0.4818070000000  0.5875180000000  0.5680420000000 1.0
C      1  0.4343360000000  0.4042980000000  0.5533170000000 1.0
C      1  0.4211380000000  0.5950450000000  0.5022250000000 1.0
C      1  0.6211830000000  0.4895510000000  0.5003520000000 1.0
C      1  0.5914260000000  0.5124220000000  0.5686160000000 1.0
C      1  0.5118980000000  0.4910930000000  0.5851880000000 1.0
C      1  0.4704350000000  0.5112190000000  0.6078330000000 1.0
C      1  0.4142640000000  0.4912330000000  0.5763940000000 1.0
C      1  0.3818180000000  0.5148220000000  0.4982290000000 1.0
C      1  0.4102180000000  0.4874130000000  0.4416500000000 1.0
C      1  0.4655940000000  0.5217680000000  0.3867830000000 1.0
C      1  0.5399430000000  0.4752770000000  0.3916150000000 1.0
C      1  0.5937150000000  0.5265310000000  0.4441530000000 1.0
C      1  0.5225880000000  0.4914910000000  0.4329880000000 1.0
C      1  0.5709050000000  0.5068050000000  0.4816520000000 1.0
C      1  0.5835100000000  0.4932120000000  0.5059070000000 1.0
C      1  0.5565320000000  0.5121080000000  0.5513830000000 1.0
C      1  0.4900540000000  0.4879930000000  0.5650240000000 1.0
C      1  0.4608970000000  0.5026420000000  0.5631310000000 1.0
C      1  0.4424290000000  0.4917740000000  0.5399440000000 1.0
C      1  0.4199470000000  0.5126690000000  0.4895410000000 1.0
C      1  0.4607330000000  0.4932900000000  0.4383680000000 1.0
C      1  0.4897480000000  0.5011300000000  0.4232270000000 1.0
C      1  0.5163370000000  0.4583160000000  0.3944840000000 1.0
C      1  0.5713880000000  0.5397000000000  0.4298160000000 1.0
C      1  0.6095690000000  0.4653930000000  0.4864200000000 1.0
C      1  0.5968120000000  0.5387260000000  0.5554430000000 1.0
C      1  0.5321560000000  0.4664980000000  0.5845030000000 1.0
C      1  0.4793770000000  0.5413210000000  0.6030700000000 1.0
C      1  0.4203500000000  0.4604730000000  0.5787670000000 1.0
C      1  0.3928960000000  0.5371550000000  0.5140810000000 1.0
C      1  0.4074900000000  0.4614620000000  0.4552230000000 1.0
C      1  0.4486270000000  0.5396120000000  0.4040750000000 1.0
C      1  0.5124010000000  0.4473680000000  0.4485070000000 1.0
C      1  0.5450700000000  0.5466870000000  0.4740310000000 1.0
C      1  0.5626960000000  0.4519090000000  0.4870050000000 1.0
C      1  0.5603090000000  0.5518660000000  0.5285060000000 1.0
C      1  0.5075960000000  0.4512020000000  0.5400330000000 1.0
C      1  0.4856530000000  0.5454180000000  0.5451970000000 1.0
C      1  0.4598450000000  0.4451930000000  0.5515850000000 1.0
C      1  0.4379050000000  0.5505650000000  0.5083960000000 1.0
C      1  0.4558600000000  0.4535070000000  0.4688840000000 1.0
C      1  0.4739210000000  0.5411780000000  0.4489450000000 1.0
C      1  0.5026540000000  0.5741030000000  0.4910760000000 1.0
C      1  0.4956790000000  0.4216990000000  0.4890980000000 1.0
C      1  0.5019950000000  0.5060850000000  0.4983880000000 1.0
END
