TITL C-3577076-40-300 -1.00152596647172e-06 125000 -413.399678085666 0 0 68 (Th) n - 1
REM
REM in /home/bkarasulu/work/CARBON/AIRSS/Generating-Clusters/EDIP-Nigel-Params/with-SteepDescent/Higher-Symm/SD-CG/HFTN-CG
REM
REM
REM
REM
REM
REM ./C.cell (12c818d87b63d06a65506943cc24bca4)
REM
REM compiler GCC version 9.2.1 20190827 (Red Hat 9.2.1-1)
REM options -cpp -mtune=generic -march=x86-64 -g -O0 -fpre-include=/usr/include/finclude/math-vector-fortran.h
REM seed -1766228046 -1075861517 111487562 -351479584 -432054559 59729863 1286998885 480984699 50759338 1883843388 1568128202 2105213010 74996690 1600822710 -1830181876 -1492869063 295610249 333414279 -1015909457 1473602050 711999499 192300962 -835071740 561808311 1092905364 1100284077 679785611 -135084500 12541320 1246014324 -829592676 -1368947039 -1367581442
REM
CELL 1.54180   50.00000   50.00000   50.00000   90.00000   90.00000   90.00000
LATT -1
SFAC C  
C      1  0.5140170000000  0.5241980000000  0.5590640000000 1.0
C      1  0.5241770000000  0.5591770000000  0.5139260000000 1.0
C      1  0.5591560000000  0.5140400000000  0.5240870000000 1.0
C      1  0.4857560000000  0.4756110000000  0.5590630000000 1.0
C      1  0.5140220000000  0.4756150000000  0.4405230000000 1.0
C      1  0.4857560000000  0.5241990000000  0.4405230000000 1.0
C      1  0.4755970000000  0.4406340000000  0.5139230000000 1.0
C      1  0.5241840000000  0.4406370000000  0.4856610000000 1.0
C      1  0.4755920000000  0.5591750000000  0.4856620000000 1.0
C      1  0.4406170000000  0.4857700000000  0.5240850000000 1.0
C      1  0.5591590000000  0.4857780000000  0.4755010000000 1.0
C      1  0.4406170000000  0.5140350000000  0.4754990000000 1.0
C      1  0.5140190000000  0.5242010000000  0.4405240000000 1.0
C      1  0.5241770000000  0.5591780000000  0.4856630000000 1.0
C      1  0.5591570000000  0.5140410000000  0.4755020000000 1.0
C      1  0.4857580000000  0.4756130000000  0.4405220000000 1.0
C      1  0.5140190000000  0.4756120000000  0.5590630000000 1.0
C      1  0.4857530000000  0.5241970000000  0.5590640000000 1.0
C      1  0.4755980000000  0.4406340000000  0.4856600000000 1.0
C      1  0.5241830000000  0.4406360000000  0.5139240000000 1.0
C      1  0.4755910000000  0.5591750000000  0.5139250000000 1.0
C      1  0.4406180000000  0.4857710000000  0.4754990000000 1.0
C      1  0.5591580000000  0.4857770000000  0.5240870000000 1.0
C      1  0.4406160000000  0.5140340000000  0.5240850000000 1.0
C      1  0.5606540000000  0.5246950000000  0.4491290000000 1.0
C      1  0.5246740000000  0.4492410000000  0.5605600000000 1.0
C      1  0.4492180000000  0.5606700000000  0.5245790000000 1.0
C      1  0.4391220000000  0.4751180000000  0.4491260000000 1.0
C      1  0.5606550000000  0.4751220000000  0.5504590000000 1.0
C      1  0.4391180000000  0.5246870000000  0.5504580000000 1.0
C      1  0.4750980000000  0.5505690000000  0.5605610000000 1.0
C      1  0.5246710000000  0.5505740000000  0.4390270000000 1.0
C      1  0.4751060000000  0.4492400000000  0.4390240000000 1.0
C      1  0.5505550000000  0.4391410000000  0.5245780000000 1.0
C      1  0.4492260000000  0.4391360000000  0.4750050000000 1.0
C      1  0.5505500000000  0.5606760000000  0.4750100000000 1.0
C      1  0.5606520000000  0.5246930000000  0.5504600000000 1.0
C      1  0.5246770000000  0.4492430000000  0.4390250000000 1.0
C      1  0.4492190000000  0.5606710000000  0.4750080000000 1.0
C      1  0.4391200000000  0.4751160000000  0.5504570000000 1.0
C      1  0.5606570000000  0.4751240000000  0.4491290000000 1.0
C      1  0.4391200000000  0.5246890000000  0.4491270000000 1.0
C      1  0.4751000000000  0.5505710000000  0.4390260000000 1.0
C      1  0.5246690000000  0.5505710000000  0.5605620000000 1.0
C      1  0.4751030000000  0.4492380000000  0.5605590000000 1.0
C      1  0.5505560000000  0.4391420000000  0.4750070000000 1.0
C      1  0.4492250000000  0.4391350000000  0.5245760000000 1.0
C      1  0.5505490000000  0.5606750000000  0.5245810000000 1.0
C      1  0.4443740000000  0.4687820000000  0.4997910000000 1.0
C      1  0.5310090000000  0.4999080000000  0.4442780000000 1.0
C      1  0.4998850000000  0.5554220000000  0.4686730000000 1.0
C      1  0.4998840000000  0.5554200000000  0.5309150000000 1.0
C      1  0.4998900000000  0.4443900000000  0.5309130000000 1.0
C      1  0.5554010000000  0.5310290000000  0.4997950000000 1.0
C      1  0.4443700000000  0.5310240000000  0.4997930000000 1.0
C      1  0.5554040000000  0.4687880000000  0.4997940000000 1.0
C      1  0.4687650000000  0.4999030000000  0.5553080000000 1.0
C      1  0.4998910000000  0.4443910000000  0.4686710000000 1.0
C      1  0.4687680000000  0.4999050000000  0.4442770000000 1.0
C      1  0.5310070000000  0.4999060000000  0.5553090000000 1.0
C      1  0.5519880000000  0.4478120000000  0.4476960000000 1.0
C      1  0.4477920000000  0.4478050000000  0.5518880000000 1.0
C      1  0.4477870000000  0.5519990000000  0.5518900000000 1.0
C      1  0.5519830000000  0.5520070000000  0.4476980000000 1.0
C      1  0.4477890000000  0.5520010000000  0.4476960000000 1.0
C      1  0.5519810000000  0.5520050000000  0.5518920000000 1.0
C      1  0.5519860000000  0.4478100000000  0.5518900000000 1.0
C      1  0.4477940000000  0.4478070000000  0.4476940000000 1.0
END
