TITL C-3577091-527-702 -3.10494973922565e-06 125000 -618.867124848262 0 0 101 (C1) n - 1
REM
REM in /home/bkarasulu/work/CARBON/AIRSS/Generating-Clusters/EDIP-Nigel-Params/with-SteepDescent/Higher-Symm/SD-CG/HFTN-CG
REM
REM
REM
REM
REM
REM ./C.cell (12c818d87b63d06a65506943cc24bca4)
REM
REM compiler GCC version 9.2.1 20190827 (Red Hat 9.2.1-1)
REM options -cpp -mtune=generic -march=x86-64 -g -O0 -fpre-include=/usr/include/finclude/math-vector-fortran.h
REM seed -1930466259 -1459342275 -1096846944 34612029 2019682824 1257722496 1057351808 -1732161915 558489786 2005102014 -1058711526 2051079729 1303353637 -1088129244 1161263390 -1019355467 1190854051 1164499067 -105566342 1143547605 -654313394 -705205864 1383855708 652610317 -567434199 690484200 -767522668 339449810 -652306577 1967157607 -519574354 992024399 1348519072
REM
CELL 1.54180   50.00000   50.00000   50.00000   90.00000   90.00000   90.00000
LATT -1
SFAC C  
C      1  0.4921850000000  0.5063960000000  0.4889000000000 1.0
C      1  0.5383810000000  0.4802050000000  0.4725170000000 1.0
C      1  0.5153860000000  0.5459820000000  0.5179710000000 1.0
C      1  0.4908770000000  0.4429590000000  0.4467800000000 1.0
C      1  0.5213850000000  0.4108870000000  0.5038710000000 1.0
C      1  0.5735360000000  0.4631980000000  0.5358780000000 1.0
C      1  0.5075840000000  0.5226670000000  0.5845950000000 1.0
C      1  0.4310230000000  0.5355130000000  0.5319780000000 1.0
C      1  0.5026610000000  0.5153180000000  0.4457940000000 1.0
C      1  0.5137260000000  0.4805290000000  0.4516780000000 1.0
C      1  0.4839810000000  0.5581270000000  0.5598060000000 1.0
C      1  0.5335400000000  0.4440000000000  0.5542750000000 1.0
C      1  0.5217360000000  0.5301850000000  0.5594040000000 1.0
C      1  0.4096980000000  0.4800960000000  0.5321980000000 1.0
C      1  0.4143740000000  0.4799190000000  0.4848380000000 1.0
C      1  0.4216850000000  0.5356760000000  0.4808630000000 1.0
C      1  0.5058280000000  0.5005090000000  0.5154070000000 1.0
C      1  0.5047810000000  0.4605460000000  0.4929910000000 1.0
C      1  0.5221870000000  0.5738940000000  0.5300730000000 1.0
C      1  0.4608580000000  0.4286340000000  0.5443610000000 1.0
C      1  0.5488530000000  0.5189230000000  0.5552100000000 1.0
C      1  0.5879370000000  0.4799350000000  0.4887780000000 1.0
C      1  0.4764430000000  0.4872450000000  0.5754010000000 1.0
C      1  0.4680820000000  0.5859170000000  0.4824370000000 1.0
C      1  0.5253170000000  0.4859560000000  0.4219810000000 1.0
C      1  0.4727020000000  0.5513180000000  0.4447340000000 1.0
C      1  0.4235110000000  0.4529700000000  0.4949790000000 1.0
C      1  0.5646360000000  0.4392380000000  0.4911530000000 1.0
C      1  0.5607060000000  0.4412960000000  0.5483530000000 1.0
C      1  0.4983450000000  0.5803410000000  0.4901880000000 1.0
C      1  0.5595580000000  0.4955440000000  0.4550400000000 1.0
C      1  0.4643640000000  0.5131260000000  0.5679960000000 1.0
C      1  0.4740830000000  0.4168300000000  0.5196200000000 1.0
C      1  0.5028460000000  0.4255440000000  0.5233650000000 1.0
C      1  0.5466130000000  0.4397830000000  0.4419250000000 1.0
C      1  0.4764610000000  0.4889230000000  0.4169780000000 1.0
C      1  0.4170990000000  0.4520590000000  0.5247670000000 1.0
C      1  0.5094110000000  0.4083040000000  0.4778540000000 1.0
C      1  0.4780970000000  0.4683980000000  0.5517490000000 1.0
C      1  0.4386330000000  0.4679820000000  0.4414970000000 1.0
C      1  0.5184720000000  0.4393370000000  0.4372090000000 1.0
C      1  0.5363080000000  0.5818450000000  0.4860470000000 1.0
C      1  0.5014060000000  0.5813660000000  0.5615750000000 1.0
C      1  0.5048230000000  0.4928630000000  0.5811910000000 1.0
C      1  0.5013310000000  0.4570080000000  0.5224190000000 1.0
C      1  0.4839070000000  0.4334380000000  0.5630310000000 1.0
C      1  0.5081560000000  0.5294670000000  0.4737570000000 1.0
C      1  0.4424640000000  0.5163270000000  0.4690370000000 1.0
C      1  0.5017890000000  0.5253740000000  0.5362210000000 1.0
C      1  0.4642860000000  0.4676370000000  0.4690720000000 1.0
C      1  0.4538330000000  0.4964030000000  0.5135050000000 1.0
C      1  0.4525330000000  0.4507900000000  0.4908540000000 1.0
C      1  0.5473340000000  0.5052690000000  0.4280470000000 1.0
C      1  0.4145740000000  0.5253170000000  0.5088990000000 1.0
C      1  0.5474100000000  0.5796830000000  0.5142600000000 1.0
C      1  0.4298750000000  0.5636240000000  0.4789970000000 1.0
C      1  0.4589320000000  0.5737830000000  0.4568640000000 1.0
C      1  0.5872400000000  0.5139920000000  0.5417840000000 1.0
C      1  0.4221250000000  0.4958330000000  0.5098060000000 1.0
C      1  0.5657640000000  0.4470940000000  0.4624220000000 1.0
C      1  0.4921510000000  0.4795900000000  0.4753980000000 1.0
C      1  0.4409260000000  0.4507350000000  0.5427320000000 1.0
C      1  0.5478720000000  0.4195050000000  0.5016010000000 1.0
C      1  0.4280940000000  0.4858080000000  0.5531040000000 1.0
C      1  0.5259520000000  0.4672570000000  0.5372950000000 1.0
C      1  0.5370490000000  0.4872780000000  0.5062820000000 1.0
C      1  0.5643090000000  0.5546860000000  0.5182140000000 1.0
C      1  0.4870500000000  0.5977790000000  0.5410350000000 1.0
C      1  0.5469790000000  0.5616400000000  0.4677500000000 1.0
C      1  0.5800140000000  0.4733430000000  0.4599410000000 1.0
C      1  0.4574230000000  0.5265090000000  0.4447760000000 1.0
C      1  0.5086670000000  0.5302850000000  0.4200690000000 1.0
C      1  0.5702270000000  0.5387840000000  0.5442930000000 1.0
C      1  0.5436720000000  0.5353300000000  0.5086010000000 1.0
C      1  0.4459130000000  0.5747350000000  0.5005330000000 1.0
C      1  0.5576530000000  0.5081650000000  0.5147020000000 1.0
C      1  0.4756740000000  0.5040730000000  0.4420980000000 1.0
C      1  0.5801820000000  0.5079240000000  0.4943420000000 1.0
C      1  0.4857560000000  0.4229380000000  0.4696740000000 1.0
C      1  0.4789840000000  0.4930540000000  0.5315520000000 1.0
C      1  0.5034780000000  0.5936810000000  0.5173490000000 1.0
C      1  0.4915140000000  0.5537630000000  0.4236140000000 1.0
C      1  0.5375600000000  0.5343990000000  0.4245680000000 1.0
C      1  0.4393620000000  0.5129470000000  0.5521450000000 1.0
C      1  0.5108020000000  0.4238970000000  0.5527640000000 1.0
C      1  0.4278510000000  0.4897660000000  0.4602830000000 1.0
C      1  0.5446450000000  0.5573040000000  0.4400180000000 1.0
C      1  0.5736040000000  0.4892840000000  0.5493940000000 1.0
C      1  0.4630180000000  0.5116480000000  0.4914250000000 1.0
C      1  0.5425820000000  0.5348060000000  0.4786590000000 1.0
C      1  0.4647720000000  0.4247260000000  0.4916850000000 1.0
C      1  0.4488020000000  0.5581770000000  0.5250940000000 1.0
C      1  0.4613710000000  0.5705550000000  0.5471220000000 1.0
C      1  0.4989030000000  0.5507580000000  0.4939730000000 1.0
C      1  0.5238850000000  0.4442030000000  0.4755810000000 1.0
C      1  0.5667130000000  0.5186840000000  0.4707370000000 1.0
C      1  0.4812430000000  0.5351030000000  0.5774790000000 1.0
C      1  0.5194200000000  0.4858680000000  0.5579000000000 1.0
C      1  0.5031080000000  0.4958450000000  0.4055000000000 1.0
C      1  0.4678670000000  0.4619800000000  0.4307670000000 1.0
C      1  0.5732850000000  0.4618690000000  0.5067720000000 1.0
END
