TITL C-3578201-9217-799 4.14585564869081e-07 125000 -922.352899466088 0 0 147 (C1) n - 1
REM
REM in /home/bkarasulu/work/CARBON/AIRSS/Generating-Clusters/EDIP-Nigel-Params/with-SteepDescent/Higher-Symm/SD-CG/HFTN-CG
REM
REM
REM
REM
REM
REM ./C.cell (12c818d87b63d06a65506943cc24bca4)
REM
REM compiler GCC version 9.2.1 20190827 (Red Hat 9.2.1-1)
REM options -cpp -mtune=generic -march=x86-64 -g -O0 -fpre-include=/usr/include/finclude/math-vector-fortran.h
REM seed 1512566544 895189948 495268466 -603091473 -1536014706 -1170625091 1422381585 -573170480 -1055674232 1345711770 2010876074 -2069856515 1651288409 658389179 1474903970 730389729 -1542722195 -743942851 1072505781 -588716739 725184041 747106540 1979537018 -1979336519 128737130 1789607084 -1725265588 -1936236682 -989015379 -1270119217 1786911084 502960565 949222375
REM
CELL 1.54180   50.00000   50.00000   50.00000   90.00000   90.00000   90.00000
LATT -1
SFAC C  
C      1  0.5315160000000  0.5014780000000  0.4695030000000 1.0
C      1  0.5399660000000  0.4837240000000  0.5207180000000 1.0
C      1  0.5368960000000  0.5379410000000  0.5088540000000 1.0
C      1  0.4537470000000  0.5573970000000  0.4307700000000 1.0
C      1  0.4476010000000  0.4112660000000  0.4801820000000 1.0
C      1  0.4579830000000  0.5238050000000  0.5883310000000 1.0
C      1  0.4734950000000  0.4558150000000  0.4934420000000 1.0
C      1  0.4736160000000  0.5161590000000  0.5369190000000 1.0
C      1  0.4713130000000  0.5227990000000  0.4656280000000 1.0
C      1  0.5052890000000  0.5835950000000  0.4531290000000 1.0
C      1  0.5083580000000  0.4155450000000  0.4518850000000 1.0
C      1  0.5027080000000  0.4859290000000  0.6106860000000 1.0
C      1  0.5386930000000  0.4182050000000  0.4932190000000 1.0
C      1  0.5469450000000  0.5287260000000  0.5691890000000 1.0
C      1  0.5485450000000  0.5497620000000  0.4390120000000 1.0
C      1  0.5405070000000  0.5478370000000  0.5880800000000 1.0
C      1  0.5401420000000  0.5560960000000  0.4134130000000 1.0
C      1  0.5374130000000  0.3907590000000  0.4987940000000 1.0
C      1  0.5131680000000  0.4283970000000  0.4810180000000 1.0
C      1  0.5249660000000  0.5164220000000  0.5527800000000 1.0
C      1  0.5313660000000  0.5566960000000  0.4619490000000 1.0
C      1  0.4276040000000  0.4696560000000  0.4196890000000 1.0
C      1  0.4290960000000  0.4541660000000  0.5586250000000 1.0
C      1  0.4255340000000  0.5708280000000  0.5101030000000 1.0
C      1  0.5134760000000  0.5540920000000  0.5227030000000 1.0
C      1  0.5117240000000  0.4968110000000  0.4451000000000 1.0
C      1  0.5088490000000  0.4449060000000  0.5301100000000 1.0
C      1  0.4223650000000  0.5097320000000  0.5453250000000 1.0
C      1  0.4208890000000  0.5276830000000  0.4670710000000 1.0
C      1  0.4289020000000  0.4672620000000  0.4869920000000 1.0
C      1  0.5194850000000  0.6045480000000  0.4395160000000 1.0
C      1  0.5323370000000  0.4217000000000  0.4375640000000 1.0
C      1  0.5289980000000  0.4895440000000  0.6050700000000 1.0
C      1  0.4936860000000  0.5636370000000  0.5026500000000 1.0
C      1  0.4988750000000  0.4682720000000  0.4498040000000 1.0
C      1  0.4988260000000  0.4664310000000  0.5491660000000 1.0
C      1  0.5619860000000  0.4677430000000  0.5423790000000 1.0
C      1  0.5643990000000  0.5535370000000  0.5107840000000 1.0
C      1  0.5588470000000  0.4913050000000  0.4541740000000 1.0
C      1  0.5863260000000  0.5139580000000  0.5382520000000 1.0
C      1  0.5811520000000  0.5251630000000  0.4723280000000 1.0
C      1  0.5722050000000  0.4662700000000  0.4961780000000 1.0
C      1  0.5022770000000  0.5851910000000  0.5584330000000 1.0
C      1  0.5028320000000  0.5065520000000  0.3970710000000 1.0
C      1  0.4973750000000  0.4004330000000  0.5427270000000 1.0
C      1  0.5131470000000  0.3817050000000  0.4908320000000 1.0
C      1  0.5223500000000  0.5533110000000  0.6068510000000 1.0
C      1  0.5166520000000  0.5625300000000  0.4025700000000 1.0
C      1  0.4470110000000  0.4970550000000  0.5852000000000 1.0
C      1  0.4410470000000  0.5711190000000  0.4533080000000 1.0
C      1  0.4378370000000  0.4272850000000  0.4576500000000 1.0
C      1  0.4185690000000  0.4500890000000  0.4647230000000 1.0
C      1  0.4214370000000  0.4960400000000  0.5712510000000 1.0
C      1  0.4171950000000  0.5571560000000  0.4644620000000 1.0
C      1  0.4394600000000  0.5436670000000  0.5115230000000 1.0
C      1  0.4451640000000  0.4825200000000  0.4513810000000 1.0
C      1  0.4448430000000  0.4669450000000  0.5342690000000 1.0
C      1  0.6006170000000  0.5184390000000  0.5127560000000 1.0
C      1  0.5972320000000  0.5007270000000  0.4779300000000 1.0
C      1  0.5953910000000  0.4796030000000  0.5116500000000 1.0
C      1  0.4447990000000  0.5293630000000  0.5415750000000 1.0
C      1  0.4442060000000  0.5152090000000  0.4523230000000 1.0
C      1  0.4456290000000  0.4518330000000  0.5064980000000 1.0
C      1  0.4997620000000  0.5354600000000  0.5464640000000 1.0
C      1  0.4923930000000  0.5195870000000  0.4436870000000 1.0
C      1  0.4936780000000  0.4337970000000  0.5051710000000 1.0
C      1  0.4969150000000  0.5508380000000  0.5963230000000 1.0
C      1  0.4907250000000  0.5539100000000  0.4062410000000 1.0
C      1  0.4860900000000  0.3854630000000  0.4964090000000 1.0
C      1  0.5376900000000  0.6046520000000  0.4602540000000 1.0
C      1  0.5411170000000  0.4454610000000  0.4503650000000 1.0
C      1  0.5338280000000  0.4754960000000  0.5809860000000 1.0
C      1  0.4688370000000  0.5462580000000  0.4949650000000 1.0
C      1  0.4715160000000  0.4674770000000  0.4636800000000 1.0
C      1  0.4756880000000  0.4826540000000  0.5349160000000 1.0
C      1  0.5580310000000  0.4628860000000  0.5720950000000 1.0
C      1  0.5618630000000  0.5796690000000  0.4973280000000 1.0
C      1  0.5526420000000  0.4680080000000  0.4373810000000 1.0
C      1  0.5387940000000  0.6185610000000  0.5092340000000 1.0
C      1  0.5433950000000  0.4525020000000  0.3955860000000 1.0
C      1  0.5357990000000  0.4278540000000  0.5942980000000 1.0
C      1  0.4927190000000  0.4497830000000  0.5753600000000 1.0
C      1  0.4924720000000  0.5928650000000  0.5016170000000 1.0
C      1  0.4975360000000  0.4537440000000  0.4213390000000 1.0
C      1  0.4215700000000  0.5220820000000  0.4951990000000 1.0
C      1  0.4195710000000  0.4928550000000  0.4999740000000 1.0
C      1  0.4244660000000  0.4874420000000  0.5274090000000 1.0
C      1  0.5656940000000  0.4395160000000  0.5311530000000 1.0
C      1  0.5732950000000  0.5636320000000  0.5463390000000 1.0
C      1  0.5748880000000  0.5112930000000  0.4255940000000 1.0
C      1  0.4655630000000  0.3892830000000  0.4777160000000 1.0
C      1  0.4785820000000  0.5320760000000  0.6054980000000 1.0
C      1  0.4693910000000  0.5709220000000  0.4116270000000 1.0
C      1  0.4761480000000  0.5966180000000  0.5482060000000 1.0
C      1  0.4796830000000  0.4887370000000  0.3903520000000 1.0
C      1  0.4732300000000  0.4058620000000  0.5598800000000 1.0
C      1  0.4633670000000  0.5656520000000  0.5668110000000 1.0
C      1  0.4593690000000  0.5174550000000  0.4062270000000 1.0
C      1  0.4548590000000  0.4080130000000  0.5260670000000 1.0
C      1  0.4088580000000  0.4705970000000  0.5694670000000 1.0
C      1  0.4073310000000  0.5688540000000  0.4886260000000 1.0
C      1  0.4111760000000  0.4662880000000  0.4421140000000 1.0
C      1  0.4512020000000  0.4542420000000  0.4178090000000 1.0
C      1  0.4469930000000  0.4464050000000  0.5802710000000 1.0
C      1  0.4460780000000  0.5901890000000  0.5014540000000 1.0
C      1  0.4844570000000  0.4207820000000  0.4353680000000 1.0
C      1  0.4856150000000  0.4667660000000  0.5994960000000 1.0
C      1  0.4845700000000  0.5946080000000  0.4720270000000 1.0
C      1  0.5205130000000  0.4555010000000  0.4696860000000 1.0
C      1  0.5228300000000  0.4843530000000  0.5553810000000 1.0
C      1  0.5433110000000  0.5809880000000  0.4751030000000 1.0
C      1  0.5243870000000  0.4930800000000  0.4134280000000 1.0
C      1  0.5186270000000  0.4220970000000  0.5483070000000 1.0
C      1  0.5225810000000  0.5814850000000  0.5362230000000 1.0
C      1  0.4581730000000  0.4342800000000  0.4377460000000 1.0
C      1  0.4566710000000  0.4710780000000  0.5957770000000 1.0
C      1  0.4570630000000  0.5836610000000  0.4744880000000 1.0
C      1  0.5383400000000  0.5134560000000  0.5261590000000 1.0
C      1  0.5304680000000  0.5314960000000  0.4800450000000 1.0
C      1  0.5215750000000  0.4792610000000  0.4942360000000 1.0
C      1  0.5571520000000  0.4989270000000  0.4061090000000 1.0
C      1  0.5510870000000  0.4206230000000  0.5488830000000 1.0
C      1  0.5536560000000  0.5851960000000  0.5419500000000 1.0
C      1  0.4788570000000  0.5226720000000  0.5090780000000 1.0
C      1  0.4777680000000  0.5031270000000  0.4891780000000 1.0
C      1  0.4882130000000  0.4796710000000  0.5043910000000 1.0
C      1  0.4438810000000  0.5301030000000  0.4261430000000 1.0
C      1  0.4400750000000  0.4221040000000  0.5062890000000 1.0
C      1  0.4475450000000  0.5426400000000  0.5683520000000 1.0
C      1  0.5131580000000  0.4283470000000  0.5773910000000 1.0
C      1  0.5161070000000  0.6035110000000  0.5170460000000 1.0
C      1  0.5188660000000  0.4652610000000  0.4031920000000 1.0
C      1  0.5684150000000  0.5352640000000  0.5504370000000 1.0
C      1  0.5708330000000  0.5318420000000  0.4449370000000 1.0
C      1  0.5604940000000  0.4384720000000  0.5022900000000 1.0
C      1  0.5602220000000  0.6012510000000  0.5171870000000 1.0
C      1  0.5620960000000  0.4690180000000  0.4094600000000 1.0
C      1  0.5570600000000  0.4331650000000  0.5760990000000 1.0
C      1  0.4692940000000  0.5968080000000  0.5194070000000 1.0
C      1  0.4747840000000  0.4652620000000  0.4066760000000 1.0
C      1  0.4698650000000  0.4333800000000  0.5685580000000 1.0
C      1  0.5864460000000  0.5390690000000  0.4969530000000 1.0
C      1  0.5792990000000  0.4788900000000  0.4710750000000 1.0
C      1  0.5865740000000  0.4845700000000  0.5390240000000 1.0
C      1  0.4828640000000  0.4064710000000  0.5165470000000 1.0
C      1  0.4918020000000  0.5584690000000  0.5681300000000 1.0
C      1  0.4867340000000  0.5256880000000  0.4141860000000 1.0
END
