TITL C-3577091-527-495 -2.32402390297683e-07 125000 -211.966933711767 0 0 40 (C2) n - 1
REM
REM in /home/bkarasulu/work/CARBON/AIRSS/Generating-Clusters/EDIP-Nigel-Params/with-SteepDescent/Higher-Symm/SD-CG/HFTN-CG
REM
REM
REM
REM
REM
REM ./C.cell (12c818d87b63d06a65506943cc24bca4)
REM
REM compiler GCC version 9.2.1 20190827 (Red Hat 9.2.1-1)
REM options -cpp -mtune=generic -march=x86-64 -g -O0 -fpre-include=/usr/include/finclude/math-vector-fortran.h
REM seed 1067561242 455380423 -175719524 10630668 -327436593 -933905230 -1035842074 -197294018 -448502580 232763193 -1843737909 2078413503 -2022078269 301489792 -1458197412 -115208250 -1717188993 -1969640179 1373047231 904745045 331016012 1535749046 9021784 2045195677 125899084 -1251496480 548285144 -529749350 1185491946 -491573418 1330059349 -210731158 1590523501
REM
CELL 1.54180   50.00000   50.00000   50.00000   90.00000   90.00000   90.00000
LATT -1
SFAC C  
C      1  0.4923890000000  0.4865760000000  0.4733690000000 1.0
C      1  0.4775680000000  0.4804240000000  0.5003040000000 1.0
C      1  0.5007980000000  0.4837440000000  0.5206840000000 1.0
C      1  0.5224480000000  0.4808030000000  0.4984280000000 1.0
C      1  0.4990200000000  0.5154830000000  0.5212610000000 1.0
C      1  0.4775640000000  0.5192460000000  0.4989420000000 1.0
C      1  0.5078400000000  0.5143950000000  0.4739490000000 1.0
C      1  0.5224250000000  0.5195480000000  0.5012190000000 1.0
C      1  0.4644130000000  0.5030060000000  0.4446450000000 1.0
C      1  0.4440810000000  0.5007890000000  0.5375440000000 1.0
C      1  0.5362210000000  0.5014900000000  0.5565070000000 1.0
C      1  0.5543590000000  0.5016260000000  0.4648610000000 1.0
C      1  0.4632910000000  0.4964350000000  0.5560970000000 1.0
C      1  0.4459470000000  0.4996790000000  0.4643560000000 1.0
C      1  0.5360660000000  0.4990300000000  0.4448830000000 1.0
C      1  0.5555920000000  0.4978200000000  0.5379720000000 1.0
C      1  0.5003190000000  0.5318760000000  0.5473350000000 1.0
C      1  0.5497920000000  0.5335040000000  0.5011120000000 1.0
C      1  0.5007340000000  0.5338370000000  0.4510890000000 1.0
C      1  0.4525700000000  0.5341300000000  0.5041690000000 1.0
C      1  0.4996950000000  0.4679880000000  0.4498710000000 1.0
C      1  0.5473980000000  0.4657320000000  0.5033200000000 1.0
C      1  0.4992760000000  0.4664020000000  0.5461240000000 1.0
C      1  0.4502060000000  0.4664860000000  0.4994450000000 1.0
C      1  0.4893170000000  0.5120290000000  0.4340110000000 1.0
C      1  0.4361780000000  0.5109470000000  0.5122340000000 1.0
C      1  0.5102510000000  0.5097050000000  0.5640320000000 1.0
C      1  0.5641230000000  0.5097990000000  0.4902970000000 1.0
C      1  0.4891960000000  0.4879440000000  0.5635390000000 1.0
C      1  0.4359650000000  0.4905750000000  0.4893870000000 1.0
C      1  0.5112560000000  0.4904090000000  0.4337080000000 1.0
C      1  0.5637150000000  0.4885990000000  0.5123750000000 1.0
C      1  0.5593440000000  0.5427410000000  0.5242150000000 1.0
C      1  0.5197710000000  0.5487490000000  0.4399520000000 1.0
C      1  0.4424090000000  0.5486490000000  0.4842970000000 1.0
C      1  0.4783560000000  0.5439050000000  0.5563920000000 1.0
C      1  0.5577330000000  0.4519540000000  0.4830150000000 1.0
C      1  0.5211620000000  0.4540440000000  0.5549210000000 1.0
C      1  0.4404550000000  0.4564060000000  0.5221090000000 1.0
C      1  0.4807580000000  0.4534990000000  0.4380270000000 1.0
END
