TITL C-3578209-2550-30 -2.01777745307917e-06 125000 -933.826692726855 0 0 150 (C1) n - 1
REM
REM in /home/bkarasulu/work/CARBON/AIRSS/Generating-Clusters/EDIP-Nigel-Params/with-SteepDescent/Higher-Symm/SD-CG/HFTN-CG
REM
REM
REM
REM
REM
REM ./C.cell (12c818d87b63d06a65506943cc24bca4)
REM
REM compiler GCC version 9.2.1 20190827 (Red Hat 9.2.1-1)
REM options -cpp -mtune=generic -march=x86-64 -g -O0 -fpre-include=/usr/include/finclude/math-vector-fortran.h
REM seed 1785603950 1571967402 1728477573 607331763 -1081118813 1112905301 245251129 -977936475 2009413430 769938366 -1621313581 1786807196 1504914909 -1422919001 1154081458 -1951665455 -1517807802 923613162 1122657227 2073605701 1911299520 -318504275 402491021 76293267 -564156615 2069944966 -560905785 153118580 -1252227427 1382452289 1266198553 -595965925 453678151
REM
CELL 1.54180   50.00000   50.00000   50.00000   90.00000   90.00000   90.00000
LATT -1
SFAC C  
C      1  0.5287550000000  0.5631070000000  0.5784850000000 1.0
C      1  0.5297390000000  0.4450740000000  0.5847320000000 1.0
C      1  0.5299730000000  0.4033610000000  0.4741560000000 1.0
C      1  0.5283520000000  0.4942650000000  0.4023270000000 1.0
C      1  0.5312170000000  0.5950380000000  0.4633830000000 1.0
C      1  0.5622370000000  0.5226830000000  0.5757580000000 1.0
C      1  0.5650430000000  0.4341490000000  0.5455200000000 1.0
C      1  0.5630660000000  0.4386540000000  0.4529120000000 1.0
C      1  0.5626740000000  0.5266740000000  0.4249360000000 1.0
C      1  0.5647000000000  0.5802300000000  0.5015060000000 1.0
C      1  0.5150240000000  0.5872290000000  0.4399060000000 1.0
C      1  0.5149840000000  0.5718600000000  0.5541820000000 1.0
C      1  0.5155300000000  0.4705120000000  0.5800110000000 1.0
C      1  0.5168890000000  0.4144850000000  0.4982690000000 1.0
C      1  0.5144940000000  0.4768250000000  0.4217860000000 1.0
C      1  0.4834850000000  0.4529190000000  0.4206200000000 1.0
C      1  0.4823440000000  0.5598740000000  0.4295970000000 1.0
C      1  0.4835260000000  0.5896320000000  0.5396200000000 1.0
C      1  0.4834760000000  0.4889930000000  0.5930880000000 1.0
C      1  0.4850900000000  0.4093400000000  0.5201190000000 1.0
C      1  0.5872580000000  0.5465020000000  0.4589420000000 1.0
C      1  0.5864420000000  0.5521550000000  0.5318920000000 1.0
C      1  0.5872930000000  0.4860670000000  0.5605900000000 1.0
C      1  0.5884750000000  0.4391520000000  0.5051440000000 1.0
C      1  0.5883700000000  0.4766760000000  0.4427560000000 1.0
C      1  0.5567590000000  0.4991650000000  0.4090690000000 1.0
C      1  0.5567370000000  0.5832230000000  0.4700360000000 1.0
C      1  0.5565710000000  0.5540290000000  0.5732860000000 1.0
C      1  0.5578950000000  0.4467760000000  0.5752300000000 1.0
C      1  0.5580450000000  0.4135230000000  0.4722690000000 1.0
C      1  0.4951690000000  0.4761240000000  0.5472110000000 1.0
C      1  0.5018440000000  0.4499540000000  0.4985620000000 1.0
C      1  0.4927810000000  0.4900050000000  0.4514040000000 1.0
C      1  0.4931020000000  0.5397600000000  0.4752180000000 1.0
C      1  0.4964580000000  0.5443150000000  0.5335020000000 1.0
C      1  0.5414620000000  0.5219220000000  0.4473760000000 1.0
C      1  0.5413980000000  0.5578580000000  0.5030470000000 1.0
C      1  0.5408420000000  0.5150040000000  0.5547800000000 1.0
C      1  0.5430780000000  0.4522850000000  0.5328300000000 1.0
C      1  0.5417880000000  0.4566680000000  0.4657380000000 1.0
C      1  0.5850050000000  0.4611690000000  0.4876490000000 1.0
C      1  0.5812580000000  0.4996840000000  0.4577480000000 1.0
C      1  0.5821560000000  0.5396890000000  0.4861500000000 1.0
C      1  0.5823240000000  0.5243430000000  0.5335360000000 1.0
C      1  0.5830710000000  0.4759120000000  0.5345660000000 1.0
C      1  0.5190640000000  0.5803950000000  0.5085200000000 1.0
C      1  0.5153800000000  0.5156730000000  0.5743190000000 1.0
C      1  0.5187220000000  0.4325430000000  0.5397650000000 1.0
C      1  0.5157090000000  0.4433470000000  0.4511680000000 1.0
C      1  0.5175740000000  0.5332930000000  0.4302170000000 1.0
C      1  0.4541780000000  0.4391160000000  0.4945830000000 1.0
C      1  0.4414630000000  0.4851850000000  0.4357010000000 1.0
C      1  0.4466710000000  0.5528580000000  0.4663850000000 1.0
C      1  0.4650120000000  0.5392920000000  0.5371060000000 1.0
C      1  0.4410400000000  0.4717570000000  0.5605500000000 1.0
C      1  0.4205940000000  0.4746160000000  0.5094320000000 1.0
C      1  0.4185450000000  0.4823640000000  0.4791890000000 1.0
C      1  0.4215700000000  0.5128910000000  0.4780180000000 1.0
C      1  0.4263390000000  0.5234770000000  0.5066670000000 1.0
C      1  0.4215160000000  0.5004860000000  0.5261290000000 1.0
C      1  0.5860260000000  0.5150250000000  0.5601640000000 1.0
C      1  0.5878940000000  0.4478710000000  0.5328800000000 1.0
C      1  0.5874580000000  0.4534210000000  0.4602810000000 1.0
C      1  0.5860330000000  0.5230560000000  0.4421770000000 1.0
C      1  0.5869000000000  0.5612090000000  0.5043250000000 1.0
C      1  0.3788300000000  0.4600150000000  0.4913860000000 1.0
C      1  0.3761360000000  0.5019100000000  0.4677880000000 1.0
C      1  0.3880960000000  0.5448200000000  0.4869520000000 1.0
C      1  0.3851700000000  0.5304270000000  0.5311150000000 1.0
C      1  0.3787510000000  0.4812330000000  0.5330590000000 1.0
C      1  0.4724030000000  0.5730130000000  0.5652160000000 1.0
C      1  0.4747740000000  0.4587430000000  0.5922800000000 1.0
C      1  0.4757080000000  0.4006760000000  0.4898600000000 1.0
C      1  0.4748590000000  0.4774800000000  0.4025020000000 1.0
C      1  0.4846990000000  0.5939090000000  0.4475210000000 1.0
C      1  0.4379730000000  0.5839780000000  0.5331680000000 1.0
C      1  0.4388090000000  0.4898470000000  0.6060790000000 1.0
C      1  0.4399040000000  0.4007610000000  0.5231580000000 1.0
C      1  0.4392580000000  0.4440030000000  0.4089490000000 1.0
C      1  0.4401190000000  0.5675520000000  0.4195620000000 1.0
C      1  0.5284090000000  0.4072460000000  0.5257410000000 1.0
C      1  0.5265470000000  0.4488470000000  0.4231340000000 1.0
C      1  0.5260550000000  0.5629950000000  0.4230540000000 1.0
C      1  0.5275320000000  0.5919740000000  0.5349200000000 1.0
C      1  0.5263260000000  0.4953020000000  0.5944150000000 1.0
C      1  0.5170460000000  0.4888930000000  0.5272170000000 1.0
C      1  0.5189110000000  0.4738910000000  0.4997450000000 1.0
C      1  0.5163060000000  0.4951550000000  0.4743740000000 1.0
C      1  0.5164840000000  0.5246890000000  0.4866030000000 1.0
C      1  0.5161230000000  0.5229770000000  0.5187020000000 1.0
C      1  0.4412110000000  0.5247650000000  0.4586280000000 1.0
C      1  0.4543890000000  0.5341010000000  0.5098770000000 1.0
C      1  0.4378920000000  0.4992490000000  0.5514570000000 1.0
C      1  0.4436310000000  0.4560980000000  0.5160960000000 1.0
C      1  0.4349790000000  0.4677410000000  0.4583360000000 1.0
C      1  0.4614020000000  0.4241790000000  0.5593500000000 1.0
C      1  0.4600210000000  0.4178460000000  0.4446110000000 1.0
C      1  0.4601250000000  0.5240470000000  0.4089700000000 1.0
C      1  0.4656950000000  0.5884020000000  0.4941020000000 1.0
C      1  0.4595810000000  0.5319710000000  0.5922870000000 1.0
C      1  0.4618670000000  0.5524810000000  0.4095140000000 1.0
C      1  0.4598710000000  0.5970500000000  0.5219090000000 1.0
C      1  0.4617430000000  0.5059120000000  0.6047350000000 1.0
C      1  0.4626330000000  0.4044160000000  0.5389340000000 1.0
C      1  0.4622940000000  0.4319450000000  0.4195170000000 1.0
C      1  0.5695790000000  0.5676160000000  0.4485640000000 1.0
C      1  0.5676520000000  0.5674410000000  0.5483720000000 1.0
C      1  0.5687890000000  0.4748370000000  0.5805590000000 1.0
C      1  0.5687500000000  0.4178790000000  0.5005010000000 1.0
C      1  0.5700490000000  0.4732750000000  0.4194770000000 1.0
C      1  0.5464680000000  0.4839570000000  0.5435510000000 1.0
C      1  0.5485960000000  0.4571210000000  0.4989990000000 1.0
C      1  0.5439700000000  0.4897570000000  0.4581510000000 1.0
C      1  0.5460470000000  0.5405890000000  0.4743210000000 1.0
C      1  0.5457240000000  0.5351950000000  0.5277110000000 1.0
C      1  0.5094810000000  0.5424530000000  0.5871200000000 1.0
C      1  0.5115590000000  0.4281620000000  0.5689080000000 1.0
C      1  0.5107320000000  0.4139110000000  0.4543740000000 1.0
C      1  0.5106710000000  0.5172680000000  0.4048580000000 1.0
C      1  0.5138320000000  0.6000900000000  0.4861220000000 1.0
C      1  0.4670500000000  0.5503930000000  0.4879350000000 1.0
C      1  0.4615770000000  0.5166610000000  0.5572140000000 1.0
C      1  0.4606490000000  0.4586570000000  0.5417920000000 1.0
C      1  0.4576840000000  0.4494100000000  0.4656180000000 1.0
C      1  0.4617120000000  0.5068540000000  0.4432310000000 1.0
C      1  0.3941030000000  0.5043480000000  0.5352000000000 1.0
C      1  0.3927460000000  0.4645370000000  0.5153120000000 1.0
C      1  0.3898340000000  0.4781860000000  0.4731970000000 1.0
C      1  0.3945390000000  0.5225420000000  0.4713430000000 1.0
C      1  0.4019110000000  0.5409120000000  0.5110910000000 1.0
C      1  0.4876290000000  0.5010260000000  0.5643330000000 1.0
C      1  0.4933640000000  0.4402760000000  0.5246250000000 1.0
C      1  0.4865560000000  0.4596730000000  0.4517550000000 1.0
C      1  0.4923290000000  0.5368740000000  0.4461920000000 1.0
C      1  0.4932260000000  0.5691710000000  0.5164190000000 1.0
C      1  0.4457710000000  0.4718560000000  0.4091880000000 1.0
C      1  0.4508950000000  0.5745910000000  0.4458520000000 1.0
C      1  0.4492660000000  0.5637920000000  0.5493410000000 1.0
C      1  0.4456490000000  0.4672920000000  0.5898230000000 1.0
C      1  0.4479660000000  0.4096330000000  0.4973120000000 1.0
C      1  0.5568310000000  0.5902170000000  0.5322690000000 1.0
C      1  0.5556970000000  0.4981540000000  0.5949130000000 1.0
C      1  0.5577990000000  0.4089620000000  0.5270810000000 1.0
C      1  0.5560830000000  0.4463730000000  0.4234430000000 1.0
C      1  0.5559640000000  0.5585290000000  0.4231190000000 1.0
C      1  0.4857690000000  0.6012010000000  0.4766230000000 1.0
C      1  0.4809620000000  0.5487830000000  0.5810920000000 1.0
C      1  0.4832110000000  0.4372710000000  0.5730330000000 1.0
C      1  0.4822970000000  0.4125330000000  0.4632870000000 1.0
C      1  0.4826080000000  0.5064650000000  0.4049340000000 1.0
END
