TITL C-3578198-8939-90 1.56158343525235e-06 125000 -370.114504881043 0 0 61 (C1) n - 1
REM
REM in /home/bkarasulu/work/CARBON/AIRSS/Generating-Clusters/EDIP-Nigel-Params/with-SteepDescent/Higher-Symm/SD-CG/HFTN-CG
REM
REM
REM
REM
REM
REM ./C.cell (12c818d87b63d06a65506943cc24bca4)
REM
REM compiler GCC version 9.2.1 20190827 (Red Hat 9.2.1-1)
REM options -cpp -mtune=generic -march=x86-64 -g -O0 -fpre-include=/usr/include/finclude/math-vector-fortran.h
REM seed -1612450665 1726309888 -587464596 -460824665 153547213 655595834 1889241510 -1374037782 592364831 811062409 922801688 2007392573 -416229447 -383501976 1381415809 -1057513769 823664657 -499885145 -86326789 -294426321 -1256039769 -872628260 23582684 -1854840285 -1535017167 -234023219 1179452928 -1833225210 -616653707 494668304 -958561286 1529324392 923815387
REM
CELL 1.54180   50.00000   50.00000   50.00000   90.00000   90.00000   90.00000
LATT -1
SFAC C  
C      1  0.5489650000000  0.4390020000000  0.4905080000000 1.0
C      1  0.5247480000000  0.5692910000000  0.4782090000000 1.0
C      1  0.4267240000000  0.4888660000000  0.4806960000000 1.0
C      1  0.5488930000000  0.4401510000000  0.5199120000000 1.0
C      1  0.5235850000000  0.5698280000000  0.5167330000000 1.0
C      1  0.4310200000000  0.4867840000000  0.5191810000000 1.0
C      1  0.5509700000000  0.5567600000000  0.4845510000000 1.0
C      1  0.5221550000000  0.4285670000000  0.4851820000000 1.0
C      1  0.4281880000000  0.5184960000000  0.4841610000000 1.0
C      1  0.5502470000000  0.5562880000000  0.5152690000000 1.0
C      1  0.5218140000000  0.4285920000000  0.5240120000000 1.0
C      1  0.4288270000000  0.5162540000000  0.5151330000000 1.0
C      1  0.5227190000000  0.4973270000000  0.4259310000000 1.0
C      1  0.4932030000000  0.5375670000000  0.4199910000000 1.0
C      1  0.4745000000000  0.4942730000000  0.4439720000000 1.0
C      1  0.5247210000000  0.4855560000000  0.5715650000000 1.0
C      1  0.4972240000000  0.5269660000000  0.5685190000000 1.0
C      1  0.4748110000000  0.4809720000000  0.5737680000000 1.0
C      1  0.5197710000000  0.5259290000000  0.4248090000000 1.0
C      1  0.5014620000000  0.4828590000000  0.4404680000000 1.0
C      1  0.4687260000000  0.5198050000000  0.4259800000000 1.0
C      1  0.5211870000000  0.5123280000000  0.5614620000000 1.0
C      1  0.5014800000000  0.4685890000000  0.5760020000000 1.0
C      1  0.4732080000000  0.5110590000000  0.5726040000000 1.0
C      1  0.5524360000000  0.4818250000000  0.5575090000000 1.0
C      1  0.4863840000000  0.5499860000000  0.5526290000000 1.0
C      1  0.4564300000000  0.4529090000000  0.5540810000000 1.0
C      1  0.5471880000000  0.4950380000000  0.4418490000000 1.0
C      1  0.4842180000000  0.5580650000000  0.4421290000000 1.0
C      1  0.4611490000000  0.4640360000000  0.4556630000000 1.0
C      1  0.5485250000000  0.5203720000000  0.5546780000000 1.0
C      1  0.4833000000000  0.4422310000000  0.5550040000000 1.0
C      1  0.4580310000000  0.5386350000000  0.5515570000000 1.0
C      1  0.5527570000000  0.5238930000000  0.4448780000000 1.0
C      1  0.4789410000000  0.4414110000000  0.4579380000000 1.0
C      1  0.4564640000000  0.5421340000000  0.4442840000000 1.0
C      1  0.4533340000000  0.5297340000000  0.5242000000000 1.0
C      1  0.4988470000000  0.4442340000000  0.5305670000000 1.0
C      1  0.5513130000000  0.5276760000000  0.5263640000000 1.0
C      1  0.4541780000000  0.5312550000000  0.4722010000000 1.0
C      1  0.5074870000000  0.4410500000000  0.4633360000000 1.0
C      1  0.5526420000000  0.5288870000000  0.4737630000000 1.0
C      1  0.4523540000000  0.4749330000000  0.5359760000000 1.0
C      1  0.4991380000000  0.5560590000000  0.5235170000000 1.0
C      1  0.5532690000000  0.4691270000000  0.5279300000000 1.0
C      1  0.4514760000000  0.4747020000000  0.4815690000000 1.0
C      1  0.5030610000000  0.5529820000000  0.4665460000000 1.0
C      1  0.5555980000000  0.4643850000000  0.4802130000000 1.0
C      1  0.4783010000000  0.4884840000000  0.5356510000000 1.0
C      1  0.5273130000000  0.4854100000000  0.5278170000000 1.0
C      1  0.5013690000000  0.5261620000000  0.5249510000000 1.0
C      1  0.4735050000000  0.4931880000000  0.4907900000000 1.0
C      1  0.5381550000000  0.4841630000000  0.4689780000000 1.0
C      1  0.5040900000000  0.5246080000000  0.4727710000000 1.0
C      1  0.4755800000000  0.5114470000000  0.5173440000000 1.0
C      1  0.5280800000000  0.5131320000000  0.5148120000000 1.0
C      1  0.5009080000000  0.4719790000000  0.5215060000000 1.0
C      1  0.4772670000000  0.5115730000000  0.4692230000000 1.0
C      1  0.5298790000000  0.5123560000000  0.4840850000000 1.0
C      1  0.5115750000000  0.4706160000000  0.4660400000000 1.0
C      1  0.4966380000000  0.4762490000000  0.4920380000000 1.0
END
