TITL C-3578207-9274-478 -3.90845721084413e-07 125000 -383.214401517212 0 0 62 (C2) n - 1
REM
REM in /home/bkarasulu/work/CARBON/AIRSS/Generating-Clusters/EDIP-Nigel-Params/with-SteepDescent/Higher-Symm/SD-CG/HFTN-CG
REM
REM
REM
REM
REM
REM ./C.cell (12c818d87b63d06a65506943cc24bca4)
REM
REM compiler GCC version 9.2.1 20190827 (Red Hat 9.2.1-1)
REM options -cpp -mtune=generic -march=x86-64 -g -O0 -fpre-include=/usr/include/finclude/math-vector-fortran.h
REM seed 933475199 -1886068949 1853694064 1381746471 -738362935 912875109 1475506290 -1898419184 66325611 842725876 148644388 1974719605 -972759598 1155476980 -1084594018 817380208 3942499 440661333 -366180936 -2023773730 -1701636433 -458482450 -326201790 888577048 -302086358 -2118819548 1789799191 -1614959395 186487520 1532091348 1346874870 1924420260 -1269836805
REM
CELL 1.54180   50.00000   50.00000   50.00000   90.00000   90.00000   90.00000
LATT -1
SFAC C  
C      1  0.4966230000000  0.5140850000000  0.5672180000000 1.0
C      1  0.5033780000000  0.4859150000000  0.5672180000000 1.0
C      1  0.5251830000000  0.4590370000000  0.5336990000000 1.0
C      1  0.4748170000000  0.5409630000000  0.5337000000000 1.0
C      1  0.5216510000000  0.4808310000000  0.5013380000000 1.0
C      1  0.4783490000000  0.5191690000000  0.5013380000000 1.0
C      1  0.4900850000000  0.4417470000000  0.5112350000000 1.0
C      1  0.5099160000000  0.5582530000000  0.5112350000000 1.0
C      1  0.5160680000000  0.5087310000000  0.5206680000000 1.0
C      1  0.4839320000000  0.4912690000000  0.5206680000000 1.0
C      1  0.4695200000000  0.5075540000000  0.4733650000000 1.0
C      1  0.5304800000000  0.4924460000000  0.4733640000000 1.0
C      1  0.4812710000000  0.5716820000000  0.5018190000000 1.0
C      1  0.5187290000000  0.4283180000000  0.5018180000000 1.0
C      1  0.4547710000000  0.4708260000000  0.5523320000000 1.0
C      1  0.5452300000000  0.5291740000000  0.5523320000000 1.0
C      1  0.5136940000000  0.5053120000000  0.4343010000000 1.0
C      1  0.4863050000000  0.4946880000000  0.4343010000000 1.0
C      1  0.5586810000000  0.4984150000000  0.5170410000000 1.0
C      1  0.4413190000000  0.5015850000000  0.5170420000000 1.0
C      1  0.4646350000000  0.5136180000000  0.4354760000000 1.0
C      1  0.5353640000000  0.4863820000000  0.4354760000000 1.0
C      1  0.4345310000000  0.5260390000000  0.5013530000000 1.0
C      1  0.5654690000000  0.4739610000000  0.5013530000000 1.0
C      1  0.5655390000000  0.5256040000000  0.5077160000000 1.0
C      1  0.4344610000000  0.4743960000000  0.5077160000000 1.0
C      1  0.4823450000000  0.4683240000000  0.4475740000000 1.0
C      1  0.5176540000000  0.5316760000000  0.4475740000000 1.0
C      1  0.5561160000000  0.4760410000000  0.4735340000000 1.0
C      1  0.4438840000000  0.5239590000000  0.4735340000000 1.0
C      1  0.5317930000000  0.4578480000000  0.4373230000000 1.0
C      1  0.4682060000000  0.5421520000000  0.4373230000000 1.0
C      1  0.4517790000000  0.5509650000000  0.4609290000000 1.0
C      1  0.5482200000000  0.4490350000000  0.4609280000000 1.0
C      1  0.5517760000000  0.5000410000000  0.5459630000000 1.0
C      1  0.4482250000000  0.4999580000000  0.5459630000000 1.0
C      1  0.4448700000000  0.4631480000000  0.4820170000000 1.0
C      1  0.5551290000000  0.5368520000000  0.4820160000000 1.0
C      1  0.5317530000000  0.4791540000000  0.5556750000000 1.0
C      1  0.4682470000000  0.5208460000000  0.5556760000000 1.0
C      1  0.5571620000000  0.5456490000000  0.5286010000000 1.0
C      1  0.4428380000000  0.4543510000000  0.5286010000000 1.0
C      1  0.5050600000000  0.4501720000000  0.4465870000000 1.0
C      1  0.4949400000000  0.5498280000000  0.4465870000000 1.0
C      1  0.4710350000000  0.4764010000000  0.4747920000000 1.0
C      1  0.5289640000000  0.5235990000000  0.4747910000000 1.0
C      1  0.4842570000000  0.4736570000000  0.5472180000000 1.0
C      1  0.5157440000000  0.5263420000000  0.5472180000000 1.0
C      1  0.4484780000000  0.4351930000000  0.4859670000000 1.0
C      1  0.5515220000000  0.5648080000000  0.4859660000000 1.0
C      1  0.5400440000000  0.5656460000000  0.5119960000000 1.0
C      1  0.4599570000000  0.4343530000000  0.5119970000000 1.0
C      1  0.4738510000000  0.5659730000000  0.4743450000000 1.0
C      1  0.5261480000000  0.4340270000000  0.4743440000000 1.0
C      1  0.5024620000000  0.5511500000000  0.5388270000000 1.0
C      1  0.4975380000000  0.4488500000000  0.5388260000000 1.0
C      1  0.4912440000000  0.4701620000000  0.4985690000000 1.0
C      1  0.5087560000000  0.5298380000000  0.4985690000000 1.0
C      1  0.5639110000000  0.4475110000000  0.5110820000000 1.0
C      1  0.4360890000000  0.5524890000000  0.5110830000000 1.0
C      1  0.5404140000000  0.4367930000000  0.5214400000000 1.0
C      1  0.4595860000000  0.5632070000000  0.5214400000000 1.0
END
