TITL C-3578209-2550-501 3.68791831523661e-07 125000 -242.763551219887 0 0 42 (C1) n - 1
REM
REM in /home/bkarasulu/work/CARBON/AIRSS/Generating-Clusters/EDIP-Nigel-Params/with-SteepDescent/Higher-Symm/SD-CG/HFTN-CG
REM
REM
REM
REM
REM
REM ./C.cell (12c818d87b63d06a65506943cc24bca4)
REM
REM compiler GCC version 9.2.1 20190827 (Red Hat 9.2.1-1)
REM options -cpp -mtune=generic -march=x86-64 -g -O0 -fpre-include=/usr/include/finclude/math-vector-fortran.h
REM seed -1605628835 2057878206 2123930950 1643939459 -1179941080 -86905086 496334688 -706255131 -1787372778 -1803465641 -1707817352 -1925799320 1567022006 1753957618 894062924 503757712 -1751137433 627092194 1672322125 1971675895 641762121 -1153918476 -868757309 -1112827683 -1559617923 274925274 2060670055 467330231 -1766408878 -356900522 692357095 -1742183965 381712691
REM
CELL 1.54180   50.00000   50.00000   50.00000   90.00000   90.00000   90.00000
LATT -1
SFAC C  
C      1  0.5218710000000  0.5417640000000  0.4744610000000 1.0
C      1  0.4935820000000  0.5378120000000  0.4678440000000 1.0
C      1  0.4706490000000  0.5382730000000  0.4857040000000 1.0
C      1  0.4706250000000  0.5395840000000  0.5147010000000 1.0
C      1  0.4940840000000  0.5403420000000  0.5325090000000 1.0
C      1  0.5229130000000  0.5455050000000  0.5272780000000 1.0
C      1  0.5342440000000  0.5384510000000  0.5009340000000 1.0
C      1  0.5226610000000  0.4537070000000  0.4740160000000 1.0
C      1  0.4945080000000  0.4501170000000  0.4677900000000 1.0
C      1  0.4711870000000  0.4504890000000  0.4851330000000 1.0
C      1  0.4698700000000  0.4517200000000  0.5139750000000 1.0
C      1  0.4932000000000  0.4507200000000  0.5319660000000 1.0
C      1  0.5210800000000  0.4589050000000  0.5248020000000 1.0
C      1  0.5361350000000  0.4511290000000  0.5002580000000 1.0
C      1  0.4464270000000  0.4776000000000  0.4747060000000 1.0
C      1  0.4451660000000  0.4783720000000  0.5259050000000 1.0
C      1  0.4885760000000  0.4697840000000  0.5531790000000 1.0
C      1  0.5367150000000  0.4740260000000  0.5455400000000 1.0
C      1  0.5605380000000  0.4682990000000  0.5009700000000 1.0
C      1  0.5387600000000  0.4815030000000  0.4534960000000 1.0
C      1  0.4878620000000  0.4770860000000  0.4415160000000 1.0
C      1  0.4467130000000  0.5290430000000  0.4742720000000 1.0
C      1  0.4460960000000  0.5313980000000  0.5263280000000 1.0
C      1  0.4875290000000  0.5359420000000  0.5596290000000 1.0
C      1  0.5389850000000  0.5337740000000  0.5482830000000 1.0
C      1  0.5604080000000  0.5274800000000  0.5011140000000 1.0
C      1  0.5386240000000  0.5325200000000  0.4537830000000 1.0
C      1  0.4881320000000  0.5288090000000  0.4417520000000 1.0
C      1  0.4843520000000  0.5037520000000  0.4298880000000 1.0
C      1  0.4355730000000  0.5040280000000  0.4688260000000 1.0
C      1  0.4342090000000  0.5059370000000  0.5305970000000 1.0
C      1  0.4823140000000  0.5089960000000  0.5613930000000 1.0
C      1  0.5372930000000  0.5044120000000  0.5516490000000 1.0
C      1  0.5622980000000  0.4988200000000  0.5022900000000 1.0
C      1  0.5464400000000  0.5077140000000  0.4437320000000 1.0
C      1  0.4928240000000  0.4936030000000  0.4664860000000 1.0
C      1  0.4692530000000  0.4941470000000  0.4858890000000 1.0
C      1  0.4682130000000  0.4954540000000  0.5168800000000 1.0
C      1  0.4893740000000  0.4944410000000  0.5385310000000 1.0
C      1  0.5169180000000  0.5024350000000  0.5281420000000 1.0
C      1  0.5318800000000  0.4942510000000  0.5011050000000 1.0
C      1  0.5219180000000  0.4978560000000  0.4727480000000 1.0
END
