TITL C-3578203-1966-326 -8.54685099394522e-07 125000 -1054.24961856988 0 0 169 (C1) n - 1
REM
REM in /home/bkarasulu/work/CARBON/AIRSS/Generating-Clusters/EDIP-Nigel-Params/with-SteepDescent/Higher-Symm/SD-CG/HFTN-CG
REM
REM
REM
REM
REM
REM ./C.cell (12c818d87b63d06a65506943cc24bca4)
REM
REM compiler GCC version 9.2.1 20190827 (Red Hat 9.2.1-1)
REM options -cpp -mtune=generic -march=x86-64 -g -O0 -fpre-include=/usr/include/finclude/math-vector-fortran.h
REM seed -1265192069 1030005126 1106762388 -1077745113 1830346309 -561153031 -2033712746 -1201405493 1879097945 670021551 533085916 623933383 1913340105 451694679 -1056794705 -617562930 1604577397 597849463 980925432 -2126735911 -1390221355 -791281944 502928194 -717408467 950084645 -2104078090 -1405494100 -1423713069 -1631919331 1216568276 2011817964 2096034335 134236720
REM
CELL 1.54180   50.00000   50.00000   50.00000   90.00000   90.00000   90.00000
LATT -1
SFAC C  
C      1  0.4522030000000  0.4924450000000  0.5882040000000 1.0
C      1  0.4858530000000  0.5962700000000  0.4430550000000 1.0
C      1  0.5887920000000  0.4458950000000  0.4909190000000 1.0
C      1  0.4516970000000  0.5084940000000  0.4141720000000 1.0
C      1  0.5514380000000  0.4912560000000  0.4101390000000 1.0
C      1  0.5520270000000  0.5115630000000  0.5893300000000 1.0
C      1  0.4853530000000  0.4113230000000  0.5428430000000 1.0
C      1  0.5032180000000  0.5842320000000  0.5423870000000 1.0
C      1  0.5148690000000  0.4075900000000  0.4422900000000 1.0
C      1  0.5927960000000  0.5497220000000  0.5080560000000 1.0
C      1  0.4070340000000  0.4578690000000  0.5100930000000 1.0
C      1  0.4095100000000  0.5580150000000  0.4873380000000 1.0
C      1  0.4585460000000  0.5866010000000  0.4928630000000 1.0
C      1  0.4868380000000  0.4457290000000  0.5889460000000 1.0
C      1  0.5897590000000  0.4899230000000  0.4557280000000 1.0
C      1  0.4360480000000  0.4080200000000  0.5135540000000 1.0
C      1  0.5402060000000  0.4118870000000  0.4912530000000 1.0
C      1  0.5511650000000  0.5921270000000  0.5081190000000 1.0
C      1  0.4863090000000  0.5516840000000  0.4057720000000 1.0
C      1  0.5070650000000  0.5427860000000  0.5840560000000 1.0
C      1  0.5115060000000  0.4550010000000  0.4076050000000 1.0
C      1  0.5925180000000  0.5098680000000  0.5468290000000 1.0
C      1  0.4178010000000  0.5046380000000  0.4604600000000 1.0
C      1  0.4029900000000  0.4888710000000  0.5568350000000 1.0
C      1  0.5269780000000  0.4331100000000  0.4510430000000 1.0
C      1  0.4193310000000  0.4489100000000  0.5353060000000 1.0
C      1  0.4503470000000  0.5310330000000  0.4316260000000 1.0
C      1  0.5295380000000  0.5711400000000  0.5478840000000 1.0
C      1  0.4613010000000  0.4256230000000  0.5517110000000 1.0
C      1  0.4677460000000  0.5743350000000  0.4457120000000 1.0
C      1  0.4322440000000  0.5524350000000  0.4713220000000 1.0
C      1  0.5687370000000  0.4485680000000  0.4708930000000 1.0
C      1  0.5723190000000  0.5512790000000  0.5285700000000 1.0
C      1  0.4444560000000  0.4668780000000  0.5753440000000 1.0
C      1  0.5515830000000  0.5303150000000  0.5675140000000 1.0
C      1  0.5494870000000  0.4731810000000  0.4323370000000 1.0
C      1  0.5326160000000  0.4510470000000  0.4276190000000 1.0
C      1  0.4307790000000  0.5307950000000  0.4525660000000 1.0
C      1  0.4396700000000  0.4284970000000  0.5331140000000 1.0
C      1  0.5301440000000  0.5493740000000  0.5673340000000 1.0
C      1  0.4650610000000  0.5545530000000  0.4251710000000 1.0
C      1  0.4640020000000  0.4458760000000  0.5719720000000 1.0
C      1  0.4231190000000  0.4685930000000  0.5556310000000 1.0
C      1  0.5712630000000  0.4687520000000  0.4508170000000 1.0
C      1  0.5726360000000  0.5307630000000  0.5482650000000 1.0
C      1  0.4489850000000  0.5753920000000  0.4670620000000 1.0
C      1  0.5518100000000  0.5719850000000  0.5288350000000 1.0
C      1  0.5495590000000  0.4272320000000  0.4681080000000 1.0
C      1  0.4949200000000  0.5376340000000  0.4774930000000 1.0
C      1  0.5442620000000  0.4835440000000  0.5085020000000 1.0
C      1  0.4751280000000  0.4953250000000  0.5449040000000 1.0
C      1  0.5049620000000  0.4548020000000  0.5256360000000 1.0
C      1  0.4984600000000  0.5292580000000  0.5234190000000 1.0
C      1  0.5093770000000  0.4526100000000  0.4803530000000 1.0
C      1  0.5588320000000  0.5255230000000  0.4924590000000 1.0
C      1  0.4590560000000  0.4646750000000  0.5022810000000 1.0
C      1  0.4602930000000  0.5084480000000  0.5005390000000 1.0
C      1  0.4818290000000  0.4906110000000  0.4603310000000 1.0
C      1  0.5294900000000  0.5024680000000  0.4568640000000 1.0
C      1  0.5186940000000  0.4947860000000  0.5550510000000 1.0
C      1  0.4977840000000  0.4775830000000  0.5428940000000 1.0
C      1  0.5443850000000  0.5024960000000  0.4846570000000 1.0
C      1  0.4774790000000  0.5316210000000  0.5021010000000 1.0
C      1  0.5002240000000  0.5146110000000  0.4590220000000 1.0
C      1  0.4907940000000  0.5209900000000  0.5499990000000 1.0
C      1  0.5060930000000  0.4710720000000  0.4564410000000 1.0
C      1  0.5408610000000  0.5038420000000  0.5332790000000 1.0
C      1  0.4716750000000  0.4871270000000  0.4874590000000 1.0
C      1  0.4516420000000  0.4946500000000  0.5260900000000 1.0
C      1  0.4822580000000  0.4462120000000  0.5067920000000 1.0
C      1  0.5219510000000  0.4651360000000  0.5043120000000 1.0
C      1  0.5204050000000  0.5472800000000  0.4894870000000 1.0
C      1  0.5389570000000  0.5656760000000  0.4761060000000 1.0
C      1  0.5602280000000  0.4805170000000  0.5490610000000 1.0
C      1  0.4720710000000  0.5443960000000  0.5578860000000 1.0
C      1  0.5504900000000  0.4316150000000  0.5291390000000 1.0
C      1  0.4557470000000  0.5516480000000  0.5090980000000 1.0
C      1  0.4504380000000  0.4230130000000  0.4745010000000 1.0
C      1  0.5705920000000  0.5392440000000  0.4464290000000 1.0
C      1  0.4350460000000  0.4699890000000  0.4557660000000 1.0
C      1  0.4329520000000  0.5174720000000  0.5429920000000 1.0
C      1  0.4836550000000  0.4513650000000  0.4412980000000 1.0
C      1  0.5245790000000  0.5487990000000  0.4271110000000 1.0
C      1  0.5276650000000  0.4449130000000  0.5720010000000 1.0
C      1  0.5375650000000  0.4741880000000  0.5709930000000 1.0
C      1  0.5643760000000  0.5477810000000  0.4744510000000 1.0
C      1  0.4651290000000  0.5631720000000  0.5344040000000 1.0
C      1  0.5438490000000  0.5254400000000  0.4363760000000 1.0
C      1  0.4470750000000  0.5318030000000  0.5689270000000 1.0
C      1  0.4600330000000  0.4707600000000  0.4348050000000 1.0
C      1  0.5678940000000  0.4587890000000  0.5275010000000 1.0
C      1  0.4395230000000  0.4518250000000  0.4811500000000 1.0
C      1  0.4272900000000  0.5413230000000  0.5240420000000 1.0
C      1  0.4749430000000  0.4230240000000  0.4546500000000 1.0
C      1  0.5227680000000  0.4348100000000  0.5425090000000 1.0
C      1  0.5235050000000  0.5756030000000  0.4519510000000 1.0
C      1  0.5919510000000  0.5705150000000  0.4882070000000 1.0
C      1  0.5732350000000  0.4923140000000  0.5896900000000 1.0
C      1  0.4849620000000  0.5856510000000  0.5668730000000 1.0
C      1  0.5852340000000  0.4214350000000  0.5048330000000 1.0
C      1  0.4135500000000  0.5823190000000  0.5016840000000 1.0
C      1  0.4054650000000  0.4379600000000  0.4897960000000 1.0
C      1  0.5716540000000  0.5104540000000  0.4138220000000 1.0
C      1  0.4270180000000  0.4945660000000  0.4181420000000 1.0
C      1  0.4291840000000  0.5084550000000  0.5941300000000 1.0
C      1  0.5015860000000  0.4096730000000  0.4176370000000 1.0
C      1  0.4995910000000  0.5963780000000  0.4186620000000 1.0
C      1  0.5054900000000  0.4080260000000  0.5633430000000 1.0
C      1  0.5930340000000  0.4899220000000  0.5682910000000 1.0
C      1  0.5695720000000  0.5898360000000  0.4837300000000 1.0
C      1  0.4875010000000  0.5639960000000  0.5866090000000 1.0
C      1  0.5912760000000  0.5093990000000  0.4351570000000 1.0
C      1  0.4095890000000  0.5107880000000  0.5731700000000 1.0
C      1  0.4052540000000  0.4951810000000  0.4356240000000 1.0
C      1  0.5632590000000  0.4035830000000  0.5061760000000 1.0
C      1  0.4134230000000  0.4123830000000  0.4974690000000 1.0
C      1  0.4369110000000  0.5952270000000  0.5120860000000 1.0
C      1  0.4918600000000  0.4341220000000  0.4083670000000 1.0
C      1  0.5021670000000  0.4215930000000  0.5886190000000 1.0
C      1  0.5003810000000  0.5754710000000  0.4012810000000 1.0
C      1  0.4327910000000  0.4093290000000  0.4525930000000 1.0
C      1  0.4192620000000  0.4533100000000  0.4348000000000 1.0
C      1  0.4501020000000  0.4262370000000  0.4118840000000 1.0
C      1  0.4426680000000  0.5826210000000  0.5395420000000 1.0
C      1  0.5713850000000  0.4175580000000  0.5472190000000 1.0
C      1  0.5692560000000  0.5955940000000  0.4527050000000 1.0
C      1  0.4079320000000  0.5580240000000  0.5673270000000 1.0
C      1  0.5970240000000  0.4516760000000  0.5702200000000 1.0
C      1  0.5825910000000  0.5607550000000  0.4286300000000 1.0
C      1  0.4438500000000  0.5790250000000  0.5872060000000 1.0
C      1  0.5532880000000  0.4346650000000  0.5840480000000 1.0
C      1  0.5426850000000  0.5714780000000  0.4130600000000 1.0
C      1  0.4419140000000  0.4531610000000  0.4152660000000 1.0
C      1  0.4133440000000  0.4267900000000  0.4424100000000 1.0
C      1  0.4563580000000  0.4087510000000  0.4332120000000 1.0
C      1  0.4310080000000  0.5542720000000  0.5826780000000 1.0
C      1  0.5685810000000  0.5636680000000  0.4046070000000 1.0
C      1  0.5740080000000  0.4549160000000  0.5873110000000 1.0
C      1  0.4181110000000  0.5643240000000  0.5417590000000 1.0
C      1  0.5917700000000  0.5849060000000  0.4395960000000 1.0
C      1  0.5911820000000  0.4404100000000  0.5443480000000 1.0
C      1  0.4556820000000  0.5931360000000  0.5657230000000 1.0
C      1  0.5436550000000  0.5921570000000  0.4367390000000 1.0
C      1  0.5634130000000  0.4109820000000  0.5733450000000 1.0
C      1  0.6052940000000  0.5030840000000  0.5217820000000 1.0
C      1  0.5024450000000  0.5135500000000  0.5915300000000 1.0
C      1  0.5289150000000  0.6085590000000  0.5094240000000 1.0
C      1  0.6037190000000  0.4922460000000  0.4812970000000 1.0
C      1  0.4020740000000  0.5068880000000  0.4875490000000 1.0
C      1  0.3892500000000  0.4940370000000  0.5332010000000 1.0
C      1  0.5040160000000  0.4825300000000  0.3987250000000 1.0
C      1  0.5002670000000  0.5255390000000  0.4074290000000 1.0
C      1  0.4897790000000  0.4686560000000  0.6048180000000 1.0
C      1  0.5098770000000  0.4040980000000  0.4919300000000 1.0
C      1  0.4866610000000  0.5977300000000  0.4930990000000 1.0
C      1  0.4607940000000  0.3997610000000  0.5007220000000 1.0
C      1  0.6060820000000  0.5242370000000  0.5021700000000 1.0
C      1  0.5029400000000  0.6019690000000  0.5176270000000 1.0
C      1  0.5269930000000  0.5000210000000  0.5972280000000 1.0
C      1  0.5996600000000  0.4710950000000  0.5011870000000 1.0
C      1  0.3956760000000  0.4851480000000  0.5074770000000 1.0
C      1  0.4002950000000  0.5334680000000  0.5005120000000 1.0
C      1  0.4969690000000  0.4034310000000  0.4646870000000 1.0
C      1  0.4872620000000  0.4028260000000  0.5136050000000 1.0
C      1  0.5001640000000  0.6011040000000  0.4674460000000 1.0
C      1  0.5273080000000  0.4995410000000  0.3969920000000 1.0
C      1  0.4797460000000  0.4949030000000  0.6006920000000 1.0
C      1  0.4806260000000  0.5005390000000  0.4092240000000 1.0
C      1  0.5276780000000  0.5299880000000  0.5151450000000 1.0
END
