TITL C-3577085-527-226 -1.11101430539411e-06 125000 -1139.93773689675 0 0 183 (C1) n - 1
REM
REM in /home/bkarasulu/work/CARBON/AIRSS/Generating-Clusters/EDIP-Nigel-Params/with-SteepDescent/Higher-Symm/SD-CG/HFTN-CG
REM
REM
REM
REM
REM
REM ./C.cell (12c818d87b63d06a65506943cc24bca4)
REM
REM compiler GCC version 9.2.1 20190827 (Red Hat 9.2.1-1)
REM options -cpp -mtune=generic -march=x86-64 -g -O0 -fpre-include=/usr/include/finclude/math-vector-fortran.h
REM seed -422145940 -1051448074 -1467306680 -776547657 -280749493 -455558962 -410682134 -2057390470 -208944622 -821924810 -412677306 892098486 -680950063 -1973807472 -563359028 1425435722 -362735176 -228025919 -2138602178 35859825 -1965239485 1292897611 -1286304153 -1039393553 -1129341722 -148544471 -2044873357 -556667631 1852061503 -1365444237 314938843 -986079723 -2095132757
REM
CELL 1.54180   50.00000   50.00000   50.00000   90.00000   90.00000   90.00000
LATT -1
SFAC C  
C      1  0.4774580000000  0.4381260000000  0.3925400000000 1.0
C      1  0.4757930000000  0.4407160000000  0.5187540000000 1.0
C      1  0.4932370000000  0.4987470000000  0.5248940000000 1.0
C      1  0.5253690000000  0.5647050000000  0.6034870000000 1.0
C      1  0.4733540000000  0.5653620000000  0.5126280000000 1.0
C      1  0.3925650000000  0.4822710000000  0.4769910000000 1.0
C      1  0.4464190000000  0.4786950000000  0.5096280000000 1.0
C      1  0.4268710000000  0.5772370000000  0.4748780000000 1.0
C      1  0.5248930000000  0.4466680000000  0.5638660000000 1.0
C      1  0.5993690000000  0.4779500000000  0.4904550000000 1.0
C      1  0.4846030000000  0.5843700000000  0.4288280000000 1.0
C      1  0.4245120000000  0.5273080000000  0.5882980000000 1.0
C      1  0.5599110000000  0.4756340000000  0.5546310000000 1.0
C      1  0.5744640000000  0.5557420000000  0.4560460000000 1.0
C      1  0.5326080000000  0.3782210000000  0.4873110000000 1.0
C      1  0.5758910000000  0.5250080000000  0.5152570000000 1.0
C      1  0.5136800000000  0.3922570000000  0.5332520000000 1.0
C      1  0.5463140000000  0.5392050000000  0.4140260000000 1.0
C      1  0.4215980000000  0.5170350000000  0.5613320000000 1.0
C      1  0.4346960000000  0.5396910000000  0.5054790000000 1.0
C      1  0.5438540000000  0.4669760000000  0.5798720000000 1.0
C      1  0.4024970000000  0.5322820000000  0.4727490000000 1.0
C      1  0.4362050000000  0.5101130000000  0.4941410000000 1.0
C      1  0.5212520000000  0.4359540000000  0.4183340000000 1.0
C      1  0.4644940000000  0.4912920000000  0.4566390000000 1.0
C      1  0.5104520000000  0.5037290000000  0.4774090000000 1.0
C      1  0.4569410000000  0.4511020000000  0.4978730000000 1.0
C      1  0.5479970000000  0.4314330000000  0.4358870000000 1.0
C      1  0.4890040000000  0.5434650000000  0.4087600000000 1.0
C      1  0.4124560000000  0.5544750000000  0.4899880000000 1.0
C      1  0.5573750000000  0.4242890000000  0.5453150000000 1.0
C      1  0.5516590000000  0.5032560000000  0.3828340000000 1.0
C      1  0.4731840000000  0.5334330000000  0.4323560000000 1.0
C      1  0.5398180000000  0.5134130000000  0.5426320000000 1.0
C      1  0.4735060000000  0.5016110000000  0.4292840000000 1.0
C      1  0.6177390000000  0.5075500000000  0.5221830000000 1.0
C      1  0.5204570000000  0.5981560000000  0.4630390000000 1.0
C      1  0.5409070000000  0.4849830000000  0.5346040000000 1.0
C      1  0.4932220000000  0.6080880000000  0.5215950000000 1.0
C      1  0.5058250000000  0.5209060000000  0.3977670000000 1.0
C      1  0.4501910000000  0.5353620000000  0.5977950000000 1.0
C      1  0.4624630000000  0.4627880000000  0.3947630000000 1.0
C      1  0.5225920000000  0.5731810000000  0.5066860000000 1.0
C      1  0.4561980000000  0.5561060000000  0.4902160000000 1.0
C      1  0.4177610000000  0.5718860000000  0.5651330000000 1.0
C      1  0.5244520000000  0.5459630000000  0.4587730000000 1.0
C      1  0.5705490000000  0.5003400000000  0.4068330000000 1.0
C      1  0.5550060000000  0.5734710000000  0.4416610000000 1.0
C      1  0.5182550000000  0.5584200000000  0.5529690000000 1.0
C      1  0.6017820000000  0.5576190000000  0.4994500000000 1.0
C      1  0.4823050000000  0.5934720000000  0.5638550000000 1.0
C      1  0.4736710000000  0.4916090000000  0.5036190000000 1.0
C      1  0.4516640000000  0.4768100000000  0.5390430000000 1.0
C      1  0.5705090000000  0.5176410000000  0.5894230000000 1.0
C      1  0.4520380000000  0.5045780000000  0.4060360000000 1.0
C      1  0.4567430000000  0.4152120000000  0.4636140000000 1.0
C      1  0.4064380000000  0.5317850000000  0.5388110000000 1.0
C      1  0.5550650000000  0.4252570000000  0.5741660000000 1.0
C      1  0.3936420000000  0.5106270000000  0.5212270000000 1.0
C      1  0.4636480000000  0.5527940000000  0.5786480000000 1.0
C      1  0.5002760000000  0.4891720000000  0.5708630000000 1.0
C      1  0.4940730000000  0.4988010000000  0.3805150000000 1.0
C      1  0.4112020000000  0.4888080000000  0.5608190000000 1.0
C      1  0.4371140000000  0.4627290000000  0.4092020000000 1.0
C      1  0.3922180000000  0.4830090000000  0.4486890000000 1.0
C      1  0.4753000000000  0.4591580000000  0.5422290000000 1.0
C      1  0.5956650000000  0.4652380000000  0.5435340000000 1.0
C      1  0.5667200000000  0.4492150000000  0.5895690000000 1.0
C      1  0.4524630000000  0.5186980000000  0.5519110000000 1.0
C      1  0.5912750000000  0.4654570000000  0.5815570000000 1.0
C      1  0.4727580000000  0.4197460000000  0.4147450000000 1.0
C      1  0.6071140000000  0.4814720000000  0.5191210000000 1.0
C      1  0.4971130000000  0.5239050000000  0.6132850000000 1.0
C      1  0.5646290000000  0.5549390000000  0.5104290000000 1.0
C      1  0.5598380000000  0.5064080000000  0.4641130000000 1.0
C      1  0.5244950000000  0.5035440000000  0.4276080000000 1.0
C      1  0.5419780000000  0.5619380000000  0.4851250000000 1.0
C      1  0.5928820000000  0.4571240000000  0.4699760000000 1.0
C      1  0.5009950000000  0.4845420000000  0.4216220000000 1.0
C      1  0.5795980000000  0.4409620000000  0.5356160000000 1.0
C      1  0.5000290000000  0.4430100000000  0.5814640000000 1.0
C      1  0.5019230000000  0.4150010000000  0.4122140000000 1.0
C      1  0.5841190000000  0.4317700000000  0.4814410000000 1.0
C      1  0.5509650000000  0.4810690000000  0.5072820000000 1.0
C      1  0.5094300000000  0.4753660000000  0.3863750000000 1.0
C      1  0.5077980000000  0.3770290000000  0.5072020000000 1.0
C      1  0.5477880000000  0.4842650000000  0.4221260000000 1.0
C      1  0.5869290000000  0.4954460000000  0.5742390000000 1.0
C      1  0.4976500000000  0.4572330000000  0.4813780000000 1.0
C      1  0.4074450000000  0.4604650000000  0.5194470000000 1.0
C      1  0.4405040000000  0.4276680000000  0.4874290000000 1.0
C      1  0.5263570000000  0.4490540000000  0.5255370000000 1.0
C      1  0.5218870000000  0.5132450000000  0.5688070000000 1.0
C      1  0.4177920000000  0.4352750000000  0.5324540000000 1.0
C      1  0.5522200000000  0.4063670000000  0.4521380000000 1.0
C      1  0.5000560000000  0.4754930000000  0.5430420000000 1.0
C      1  0.5699120000000  0.5171660000000  0.5456200000000 1.0
C      1  0.5043680000000  0.5380570000000  0.5693120000000 1.0
C      1  0.4016800000000  0.5614730000000  0.5428810000000 1.0
C      1  0.4819850000000  0.3879600000000  0.4958470000000 1.0
C      1  0.4432540000000  0.5980380000000  0.4902190000000 1.0
C      1  0.5909320000000  0.4594650000000  0.4411250000000 1.0
C      1  0.4334750000000  0.4692870000000  0.5619410000000 1.0
C      1  0.4877170000000  0.4035800000000  0.5393800000000 1.0
C      1  0.4009620000000  0.4583020000000  0.4914840000000 1.0
C      1  0.4426560000000  0.5428930000000  0.4387150000000 1.0
C      1  0.4872100000000  0.4846030000000  0.4779530000000 1.0
C      1  0.5845390000000  0.4371330000000  0.5087570000000 1.0
C      1  0.5020550000000  0.4414340000000  0.5063140000000 1.0
C      1  0.4658800000000  0.4903260000000  0.3840380000000 1.0
C      1  0.5022010000000  0.4694810000000  0.5940820000000 1.0
C      1  0.4394320000000  0.4513060000000  0.4363940000000 1.0
C      1  0.5315650000000  0.5275090000000  0.5181100000000 1.0
C      1  0.5732340000000  0.4427710000000  0.4271270000000 1.0
C      1  0.5555470000000  0.5643110000000  0.5630310000000 1.0
C      1  0.4953100000000  0.5848030000000  0.5019830000000 1.0
C      1  0.5278730000000  0.5023460000000  0.6163860000000 1.0
C      1  0.5318200000000  0.5583810000000  0.4313700000000 1.0
C      1  0.4708810000000  0.4979430000000  0.5784070000000 1.0
C      1  0.4141860000000  0.4370400000000  0.4788490000000 1.0
C      1  0.5034290000000  0.5478180000000  0.5976820000000 1.0
C      1  0.5162390000000  0.5508840000000  0.5246390000000 1.0
C      1  0.5436270000000  0.4539100000000  0.4669070000000 1.0
C      1  0.4556670000000  0.5155340000000  0.4709430000000 1.0
C      1  0.5189150000000  0.6064770000000  0.5386670000000 1.0
C      1  0.5604730000000  0.4150930000000  0.4784870000000 1.0
C      1  0.4458900000000  0.5690840000000  0.5565350000000 1.0
C      1  0.4181860000000  0.4941710000000  0.4414190000000 1.0
C      1  0.4588600000000  0.4074890000000  0.5419160000000 1.0
C      1  0.4517260000000  0.4237280000000  0.5660070000000 1.0
C      1  0.4263670000000  0.4396460000000  0.5601150000000 1.0
C      1  0.5722830000000  0.5270310000000  0.4197340000000 1.0
C      1  0.5140420000000  0.4463290000000  0.4608160000000 1.0
C      1  0.5396750000000  0.4074720000000  0.5269750000000 1.0
C      1  0.5152500000000  0.5070450000000  0.5059650000000 1.0
C      1  0.5040220000000  0.5671100000000  0.4176760000000 1.0
C      1  0.5689710000000  0.5009900000000  0.4944100000000 1.0
C      1  0.4420470000000  0.5699410000000  0.4503510000000 1.0
C      1  0.5728650000000  0.5389600000000  0.5671860000000 1.0
C      1  0.4559710000000  0.4717110000000  0.5827800000000 1.0
C      1  0.4684250000000  0.6010610000000  0.5376190000000 1.0
C      1  0.4961430000000  0.5852080000000  0.4714960000000 1.0
C      1  0.5376540000000  0.4776530000000  0.3851960000000 1.0
C      1  0.5280930000000  0.3910170000000  0.4594430000000 1.0
C      1  0.4891160000000  0.5433440000000  0.5225090000000 1.0
C      1  0.5245070000000  0.4741800000000  0.6114470000000 1.0
C      1  0.3980910000000  0.4843730000000  0.5346920000000 1.0
C      1  0.6043280000000  0.5300760000000  0.5110580000000 1.0
C      1  0.4425910000000  0.5948580000000  0.5206610000000 1.0
C      1  0.5482040000000  0.5961640000000  0.4587650000000 1.0
C      1  0.5877500000000  0.5711860000000  0.4772830000000 1.0
C      1  0.4796590000000  0.3983360000000  0.4688350000000 1.0
C      1  0.4938060000000  0.5539680000000  0.4587040000000 1.0
C      1  0.5660660000000  0.5910190000000  0.4815050000000 1.0
C      1  0.4618260000000  0.5905530000000  0.4445270000000 1.0
C      1  0.4693430000000  0.5802090000000  0.5853310000000 1.0
C      1  0.5787350000000  0.5270260000000  0.4487840000000 1.0
C      1  0.5380300000000  0.5810300000000  0.5843350000000 1.0
C      1  0.5071620000000  0.4121760000000  0.4650520000000 1.0
C      1  0.4834930000000  0.5222850000000  0.5429790000000 1.0
C      1  0.4384540000000  0.4172580000000  0.5195120000000 1.0
C      1  0.5340780000000  0.5267800000000  0.3912680000000 1.0
C      1  0.4261450000000  0.4905090000000  0.4122130000000 1.0
C      1  0.4474930000000  0.5459650000000  0.5357270000000 1.0
C      1  0.5598700000000  0.5747720000000  0.5345750000000 1.0
C      1  0.4720070000000  0.4466700000000  0.5699580000000 1.0
C      1  0.5502840000000  0.3982190000000  0.5004160000000 1.0
C      1  0.4742170000000  0.5380200000000  0.4760460000000 1.0
C      1  0.4646490000000  0.6051070000000  0.4701930000000 1.0
C      1  0.5125870000000  0.5887950000000  0.5618290000000 1.0
C      1  0.5291120000000  0.5150950000000  0.4573750000000 1.0
C      1  0.4192630000000  0.5247640000000  0.4485090000000 1.0
C      1  0.4388140000000  0.4754960000000  0.4546660000000 1.0
C      1  0.4156280000000  0.5852790000000  0.5289420000000 1.0
C      1  0.4606770000000  0.4313290000000  0.4397260000000 1.0
C      1  0.5059320000000  0.4564890000000  0.4336900000000 1.0
C      1  0.4701030000000  0.5135500000000  0.6046680000000 1.0
C      1  0.3973770000000  0.5082000000000  0.4907600000000 1.0
C      1  0.5414020000000  0.5097080000000  0.5914540000000 1.0
C      1  0.5590380000000  0.4777480000000  0.4505030000000 1.0
C      1  0.5500680000000  0.4527370000000  0.4993020000000 1.0
C      1  0.5389930000000  0.5924420000000  0.5222480000000 1.0
C      1  0.5095870000000  0.4143200000000  0.4959960000000 1.0
END
