TITL C-3578204-4308-233 1.23734344590127e-06 125000 -717.216373087351 0 0 112 (C1) n - 1
REM
REM in /home/bkarasulu/work/CARBON/AIRSS/Generating-Clusters/EDIP-Nigel-Params/with-SteepDescent/Higher-Symm/SD-CG/HFTN-CG
REM
REM
REM
REM
REM
REM ./C.cell (12c818d87b63d06a65506943cc24bca4)
REM
REM compiler GCC version 9.2.1 20190827 (Red Hat 9.2.1-1)
REM options -cpp -mtune=generic -march=x86-64 -g -O0 -fpre-include=/usr/include/finclude/math-vector-fortran.h
REM seed -73311790 -396056371 888124967 -992953405 -461017822 -1080682508 2002776387 -247461102 2043198877 -5743932 -447085443 1181770034 -1191798755 1279858030 -2117980441 -1759879949 -2067880603 255615963 -1428784560 1794590947 -971860412 -673766705 1069801401 1900556258 -1933957638 -302622921 401996075 1785968892 1432853721 404786994 -756891543 -2127377558 -1295522465
REM
CELL 1.54180   50.00000   50.00000   50.00000   90.00000   90.00000   90.00000
LATT -1
SFAC C  
C      1  0.4829610000000  0.4994070000000  0.5441980000000 1.0
C      1  0.4859930000000  0.5413210000000  0.5179990000000 1.0
C      1  0.4688330000000  0.5214010000000  0.5011920000000 1.0
C      1  0.4830850000000  0.5178740000000  0.4760510000000 1.0
C      1  0.4811480000000  0.4907760000000  0.4668680000000 1.0
C      1  0.4836490000000  0.4676520000000  0.4972090000000 1.0
C      1  0.4697660000000  0.4923090000000  0.5153230000000 1.0
C      1  0.4688340000000  0.5122120000000  0.4188140000000 1.0
C      1  0.4701390000000  0.4478410000000  0.4373920000000 1.0
C      1  0.4688500000000  0.4274570000000  0.5049380000000 1.0
C      1  0.4711470000000  0.4560120000000  0.5669060000000 1.0
C      1  0.4713680000000  0.5220560000000  0.5800100000000 1.0
C      1  0.4691900000000  0.5650190000000  0.5281000000000 1.0
C      1  0.4687060000000  0.5670540000000  0.4596290000000 1.0
C      1  0.5629900000000  0.5252010000000  0.5489100000000 1.0
C      1  0.5660900000000  0.5567960000000  0.5105570000000 1.0
C      1  0.5646860000000  0.5422700000000  0.4632150000000 1.0
C      1  0.5668440000000  0.4966000000000  0.4427350000000 1.0
C      1  0.5677490000000  0.4521330000000  0.4657810000000 1.0
C      1  0.5657340000000  0.4440340000000  0.5146460000000 1.0
C      1  0.5655220000000  0.4765430000000  0.5519140000000 1.0
C      1  0.4871580000000  0.5819670000000  0.5458070000000 1.0
C      1  0.4880100000000  0.5887930000000  0.4625820000000 1.0
C      1  0.4900580000000  0.5270330000000  0.4057870000000 1.0
C      1  0.4906460000000  0.4430310000000  0.4172720000000 1.0
C      1  0.4876550000000  0.4072700000000  0.4944080000000 1.0
C      1  0.4897750000000  0.4345060000000  0.5725460000000 1.0
C      1  0.4927310000000  0.5154520000000  0.5986870000000 1.0
C      1  0.5113390000000  0.4277870000000  0.5301910000000 1.0
C      1  0.5143000000000  0.4761450000000  0.5791480000000 1.0
C      1  0.5098020000000  0.5451010000000  0.5643040000000 1.0
C      1  0.5121770000000  0.5815760000000  0.5025780000000 1.0
C      1  0.5114040000000  0.5526320000000  0.4415280000000 1.0
C      1  0.5133990000000  0.4843710000000  0.4185650000000 1.0
C      1  0.5130670000000  0.4302220000000  0.4609480000000 1.0
C      1  0.4875380000000  0.4191010000000  0.5472340000000 1.0
C      1  0.4925910000000  0.4849950000000  0.5987060000000 1.0
C      1  0.4877890000000  0.5650570000000  0.5704000000000 1.0
C      1  0.4866760000000  0.5940980000000  0.4919980000000 1.0
C      1  0.4888430000000  0.5527640000000  0.4205690000000 1.0
C      1  0.4903720000000  0.4703210000000  0.4046450000000 1.0
C      1  0.4886640000000  0.4130740000000  0.4652190000000 1.0
C      1  0.4518770000000  0.4696550000000  0.4331490000000 1.0
C      1  0.4529000000000  0.4391650000000  0.4835930000000 1.0
C      1  0.4506740000000  0.4499500000000  0.5474520000000 1.0
C      1  0.4536550000000  0.5002910000000  0.5771020000000 1.0
C      1  0.4476630000000  0.5516470000000  0.5458460000000 1.0
C      1  0.4502000000000  0.5649400000000  0.4811330000000 1.0
C      1  0.4485850000000  0.5284280000000  0.4324230000000 1.0
C      1  0.5312270000000  0.5338680000000  0.4266490000000 1.0
C      1  0.5339180000000  0.4615310000000  0.4235100000000 1.0
C      1  0.5322790000000  0.4181670000000  0.4818700000000 1.0
C      1  0.5323230000000  0.4337900000000  0.5520450000000 1.0
C      1  0.5331690000000  0.5003570000000  0.5827490000000 1.0
C      1  0.5294140000000  0.5633190000000  0.5494630000000 1.0
C      1  0.5327340000000  0.5834150000000  0.4795080000000 1.0
C      1  0.4439510000000  0.4996780000000  0.5495010000000 1.0
C      1  0.4358950000000  0.5255880000000  0.5366770000000 1.0
C      1  0.4438020000000  0.5363300000000  0.4870080000000 1.0
C      1  0.4380080000000  0.5152670000000  0.4582850000000 1.0
C      1  0.4511290000000  0.4852260000000  0.4591280000000 1.0
C      1  0.4419940000000  0.4667550000000  0.4822640000000 1.0
C      1  0.4399520000000  0.4737620000000  0.5326130000000 1.0
C      1  0.3987830000000  0.4975420000000  0.5235290000000 1.0
C      1  0.4109390000000  0.5229700000000  0.5211750000000 1.0
C      1  0.4142910000000  0.5330000000000  0.4934900000000 1.0
C      1  0.4087410000000  0.5153090000000  0.4695510000000 1.0
C      1  0.4003060000000  0.4899530000000  0.4773520000000 1.0
C      1  0.4143650000000  0.4698930000000  0.4910560000000 1.0
C      1  0.4126620000000  0.4734220000000  0.5198870000000 1.0
C      1  0.4656180000000  0.4297180000000  0.4589760000000 1.0
C      1  0.4625980000000  0.4268430000000  0.5332430000000 1.0
C      1  0.4668080000000  0.4760590000000  0.5872170000000 1.0
C      1  0.4633950000000  0.5488290000000  0.5716410000000 1.0
C      1  0.4618380000000  0.5808670000000  0.5032090000000 1.0
C      1  0.4628080000000  0.5548620000000  0.4340780000000 1.0
C      1  0.4646420000000  0.4844820000000  0.4113550000000 1.0
C      1  0.5573270000000  0.4325130000000  0.4871920000000 1.0
C      1  0.5563340000000  0.4480960000000  0.5434160000000 1.0
C      1  0.5577230000000  0.5016870000000  0.5676370000000 1.0
C      1  0.5547750000000  0.5529840000000  0.5396860000000 1.0
C      1  0.5560890000000  0.5653140000000  0.4822780000000 1.0
C      1  0.5559060000000  0.5255080000000  0.4392600000000 1.0
C      1  0.5572950000000  0.4671830000000  0.4405920000000 1.0
C      1  0.5850880000000  0.5336470000000  0.5062400000000 1.0
C      1  0.5842280000000  0.5253610000000  0.4780700000000 1.0
C      1  0.5844140000000  0.4979440000000  0.4669730000000 1.0
C      1  0.5860890000000  0.4714800000000  0.4798820000000 1.0
C      1  0.5852870000000  0.4659480000000  0.5088560000000 1.0
C      1  0.5843510000000  0.4858170000000  0.5305130000000 1.0
C      1  0.5810960000000  0.5146880000000  0.5280460000000 1.0
C      1  0.5051120000000  0.4784450000000  0.5490840000000 1.0
C      1  0.5001980000000  0.5259870000000  0.5407450000000 1.0
C      1  0.5079300000000  0.5515260000000  0.4999610000000 1.0
C      1  0.5056660000000  0.5365910000000  0.4699540000000 1.0
C      1  0.5074650000000  0.4879120000000  0.4488910000000 1.0
C      1  0.5088370000000  0.4580820000000  0.4739450000000 1.0
C      1  0.5069070000000  0.4564770000000  0.5181000000000 1.0
C      1  0.5172910000000  0.5145030000000  0.4086420000000 1.0
C      1  0.5178830000000  0.4367250000000  0.4297470000000 1.0
C      1  0.5156200000000  0.4090230000000  0.5055840000000 1.0
C      1  0.5180680000000  0.4443440000000  0.5766100000000 1.0
C      1  0.5186330000000  0.5260660000000  0.5883890000000 1.0
C      1  0.5147110000000  0.5842770000000  0.5339710000000 1.0
C      1  0.5163060000000  0.5814930000000  0.4538960000000 1.0
C      1  0.5350120000000  0.4678160000000  0.5102700000000 1.0
C      1  0.5323480000000  0.4877880000000  0.5346810000000 1.0
C      1  0.5287590000000  0.5183040000000  0.5306940000000 1.0
C      1  0.5341480000000  0.5350690000000  0.5056030000000 1.0
C      1  0.5329750000000  0.5232440000000  0.4764510000000 1.0
C      1  0.5336430000000  0.4957940000000  0.4633410000000 1.0
C      1  0.5360680000000  0.4702250000000  0.4795600000000 1.0
END
