TITL C-3577089-586-201 -1.92934854010999e-06 125000 -1073.03753487227 0 0 170 (C1) n - 1
REM
REM in /home/bkarasulu/work/CARBON/AIRSS/Generating-Clusters/EDIP-Nigel-Params/with-SteepDescent/Higher-Symm/SD-CG/HFTN-CG
REM
REM
REM
REM
REM
REM ./C.cell (12c818d87b63d06a65506943cc24bca4)
REM
REM compiler GCC version 9.2.1 20190827 (Red Hat 9.2.1-1)
REM options -cpp -mtune=generic -march=x86-64 -g -O0 -fpre-include=/usr/include/finclude/math-vector-fortran.h
REM seed -1395489632 -2093043283 1670340408 -787536395 -608096818 -1333490113 701522820 -1371686128 -2144963894 43616246 1005980338 -1844536247 -178068896 -1870687075 1846593834 1122802073 -208592443 -1733390762 -223600886 -1676533583 -515770646 221162858 680213814 -648326905 -576101642 155416527 783250245 611551944 663231931 -2061857774 1898735710 62156784 745368296
REM
CELL 1.54180   50.00000   50.00000   50.00000   90.00000   90.00000   90.00000
LATT -1
SFAC C  
C      1  0.4330330000000  0.5504700000000  0.4335590000000 1.0
C      1  0.6137050000000  0.4909310000000  0.5039730000000 1.0
C      1  0.4587860000000  0.4632560000000  0.5046540000000 1.0
C      1  0.4943660000000  0.4224230000000  0.5284580000000 1.0
C      1  0.5461860000000  0.5888590000000  0.4764780000000 1.0
C      1  0.5361240000000  0.5935050000000  0.5033170000000 1.0
C      1  0.4482380000000  0.4939160000000  0.4019850000000 1.0
C      1  0.4462620000000  0.4578460000000  0.4294870000000 1.0
C      1  0.4488280000000  0.5452460000000  0.5784060000000 1.0
C      1  0.4083210000000  0.4386320000000  0.4614660000000 1.0
C      1  0.4590270000000  0.5492030000000  0.4181780000000 1.0
C      1  0.4516230000000  0.4914690000000  0.4980990000000 1.0
C      1  0.5817130000000  0.4465090000000  0.4363280000000 1.0
C      1  0.5834130000000  0.5324920000000  0.4489920000000 1.0
C      1  0.4010790000000  0.5661410000000  0.4706810000000 1.0
C      1  0.5649630000000  0.5629470000000  0.5685580000000 1.0
C      1  0.5012130000000  0.4370920000000  0.4685340000000 1.0
C      1  0.4927120000000  0.5182590000000  0.4734530000000 1.0
C      1  0.5241440000000  0.4928960000000  0.4513720000000 1.0
C      1  0.4744440000000  0.4338520000000  0.4837070000000 1.0
C      1  0.5811770000000  0.5591420000000  0.4566500000000 1.0
C      1  0.4727220000000  0.5936040000000  0.5425810000000 1.0
C      1  0.4035900000000  0.4854340000000  0.4754510000000 1.0
C      1  0.5034320000000  0.4532200000000  0.5251240000000 1.0
C      1  0.4188780000000  0.4707900000000  0.4302480000000 1.0
C      1  0.4623660000000  0.4713420000000  0.5809810000000 1.0
C      1  0.5276820000000  0.5914260000000  0.4541350000000 1.0
C      1  0.6036790000000  0.5382090000000  0.5363250000000 1.0
C      1  0.4785250000000  0.6011580000000  0.4645650000000 1.0
C      1  0.5947670000000  0.4672740000000  0.5533390000000 1.0
C      1  0.5954590000000  0.5449130000000  0.5087600000000 1.0
C      1  0.5525240000000  0.4532920000000  0.5252470000000 1.0
C      1  0.4700950000000  0.5245690000000  0.4319450000000 1.0
C      1  0.5766640000000  0.4534080000000  0.5707070000000 1.0
C      1  0.4359300000000  0.4559170000000  0.5785890000000 1.0
C      1  0.5952740000000  0.4421450000000  0.4628720000000 1.0
C      1  0.6078330000000  0.4976580000000  0.4753570000000 1.0
C      1  0.4995370000000  0.3931610000000  0.4890350000000 1.0
C      1  0.5797050000000  0.5716520000000  0.5051630000000 1.0
C      1  0.4844290000000  0.5381270000000  0.6075010000000 1.0
C      1  0.4981260000000  0.4361650000000  0.5730090000000 1.0
C      1  0.5077850000000  0.5638270000000  0.4134770000000 1.0
C      1  0.5572020000000  0.5288600000000  0.6049580000000 1.0
C      1  0.4851630000000  0.6016790000000  0.5160210000000 1.0
C      1  0.4551730000000  0.4281820000000  0.4321870000000 1.0
C      1  0.4600560000000  0.4984130000000  0.5962510000000 1.0
C      1  0.4109210000000  0.5215050000000  0.5450570000000 1.0
C      1  0.5466250000000  0.4803320000000  0.4049540000000 1.0
C      1  0.4247450000000  0.5034510000000  0.5652870000000 1.0
C      1  0.4242780000000  0.5202030000000  0.4422290000000 1.0
C      1  0.4798730000000  0.4218300000000  0.5535190000000 1.0
C      1  0.5281090000000  0.4337320000000  0.5707600000000 1.0
C      1  0.5075440000000  0.4735990000000  0.5520440000000 1.0
C      1  0.5237670000000  0.4515140000000  0.4821160000000 1.0
C      1  0.5103610000000  0.4078080000000  0.4633860000000 1.0
C      1  0.5487710000000  0.5532470000000  0.5921550000000 1.0
C      1  0.5706650000000  0.4669400000000  0.5056590000000 1.0
C      1  0.5051980000000  0.6074280000000  0.4593330000000 1.0
C      1  0.5344940000000  0.5366950000000  0.5230260000000 1.0
C      1  0.3964770000000  0.5391560000000  0.5069300000000 1.0
C      1  0.4276890000000  0.5803000000000  0.5163460000000 1.0
C      1  0.5976150000000  0.4708050000000  0.5181190000000 1.0
C      1  0.4440730000000  0.5823730000000  0.5416910000000 1.0
C      1  0.4950070000000  0.5652260000000  0.4845810000000 1.0
C      1  0.5217420000000  0.5507550000000  0.5774530000000 1.0
C      1  0.5533370000000  0.4910000000000  0.4950330000000 1.0
C      1  0.4892770000000  0.4688180000000  0.5035810000000 1.0
C      1  0.4336180000000  0.5354860000000  0.5322690000000 1.0
C      1  0.4121550000000  0.4817050000000  0.5285620000000 1.0
C      1  0.5059220000000  0.4917280000000  0.4762520000000 1.0
C      1  0.4005700000000  0.4711420000000  0.5026750000000 1.0
C      1  0.4716370000000  0.5536970000000  0.5004150000000 1.0
C      1  0.5506650000000  0.5265580000000  0.5476010000000 1.0
C      1  0.5293530000000  0.5692380000000  0.4341160000000 1.0
C      1  0.6082960000000  0.4762970000000  0.4558600000000 1.0
C      1  0.5532970000000  0.4862030000000  0.4635950000000 1.0
C      1  0.5174560000000  0.4044910000000  0.5318810000000 1.0
C      1  0.4914400000000  0.4532250000000  0.4443220000000 1.0
C      1  0.4246340000000  0.5508140000000  0.5080930000000 1.0
C      1  0.4731710000000  0.5743580000000  0.4536830000000 1.0
C      1  0.5733490000000  0.4442420000000  0.4836000000000 1.0
C      1  0.5351890000000  0.4567500000000  0.4196380000000 1.0
C      1  0.4840940000000  0.5142730000000  0.5928070000000 1.0
C      1  0.4360020000000  0.5964740000000  0.4929850000000 1.0
C      1  0.5663870000000  0.4944650000000  0.4226360000000 1.0
C      1  0.5861410000000  0.4759860000000  0.4358700000000 1.0
C      1  0.5431340000000  0.4732410000000  0.5478290000000 1.0
C      1  0.4827170000000  0.4566330000000  0.3986180000000 1.0
C      1  0.6084550000000  0.5094110000000  0.5364620000000 1.0
C      1  0.4307970000000  0.4289830000000  0.5019020000000 1.0
C      1  0.4519840000000  0.5179730000000  0.4562780000000 1.0
C      1  0.5101050000000  0.4741290000000  0.5952730000000 1.0
C      1  0.4461540000000  0.4651600000000  0.5333800000000 1.0
C      1  0.4943410000000  0.5282230000000  0.4462640000000 1.0
C      1  0.4916380000000  0.5840370000000  0.5651090000000 1.0
C      1  0.4974870000000  0.4829380000000  0.4072420000000 1.0
C      1  0.4835970000000  0.4348850000000  0.4211120000000 1.0
C      1  0.4561770000000  0.5125910000000  0.5202180000000 1.0
C      1  0.5754930000000  0.5235880000000  0.4988030000000 1.0
C      1  0.5114090000000  0.5338740000000  0.4058240000000 1.0
C      1  0.4050290000000  0.5147970000000  0.4655250000000 1.0
C      1  0.5379490000000  0.4791190000000  0.5952130000000 1.0
C      1  0.5634060000000  0.4070130000000  0.5476850000000 1.0
C      1  0.4739620000000  0.5028310000000  0.4121160000000 1.0
C      1  0.5150590000000  0.5132950000000  0.5211670000000 1.0
C      1  0.5819640000000  0.5118400000000  0.4707160000000 1.0
C      1  0.4473090000000  0.5442210000000  0.4844920000000 1.0
C      1  0.3935710000000  0.5146560000000  0.5229990000000 1.0
C      1  0.5553350000000  0.5807080000000  0.5215790000000 1.0
C      1  0.5106490000000  0.5390510000000  0.4856980000000 1.0
C      1  0.5082500000000  0.5828620000000  0.5073380000000 1.0
C      1  0.5671400000000  0.5239780000000  0.4266990000000 1.0
C      1  0.4346630000000  0.4424190000000  0.5509270000000 1.0
C      1  0.5406510000000  0.5419250000000  0.4433640000000 1.0
C      1  0.4545540000000  0.4221190000000  0.4620790000000 1.0
C      1  0.4058320000000  0.4411630000000  0.5121260000000 1.0
C      1  0.4659360000000  0.4693990000000  0.4511250000000 1.0
C      1  0.5479970000000  0.4585460000000  0.5738160000000 1.0
C      1  0.5695170000000  0.4180420000000  0.4993890000000 1.0
C      1  0.5459190000000  0.4033400000000  0.4894840000000 1.0
C      1  0.4242280000000  0.5831140000000  0.4682990000000 1.0
C      1  0.3936180000000  0.5394810000000  0.4782890000000 1.0
C      1  0.5484420000000  0.5795680000000  0.5503520000000 1.0
C      1  0.3972300000000  0.4673850000000  0.5511600000000 1.0
C      1  0.4511820000000  0.4182060000000  0.5461120000000 1.0
C      1  0.5082770000000  0.5056610000000  0.5500300000000 1.0
C      1  0.4978000000000  0.5579890000000  0.5937560000000 1.0
C      1  0.5727640000000  0.5766530000000  0.4765870000000 1.0
C      1  0.4057800000000  0.4401320000000  0.5421010000000 1.0
C      1  0.4402110000000  0.5180220000000  0.5859190000000 1.0
C      1  0.5430720000000  0.5086410000000  0.5905950000000 1.0
C      1  0.5249500000000  0.5211440000000  0.3845890000000 1.0
C      1  0.4446750000000  0.5634300000000  0.4592830000000 1.0
C      1  0.4628630000000  0.4936670000000  0.4703890000000 1.0
C      1  0.5609260000000  0.4986240000000  0.5439430000000 1.0
C      1  0.5492610000000  0.4546960000000  0.4669290000000 1.0
C      1  0.5835570000000  0.5441720000000  0.5567560000000 1.0
C      1  0.4235750000000  0.4986130000000  0.4202160000000 1.0
C      1  0.4282190000000  0.4237250000000  0.4739720000000 1.0
C      1  0.4883810000000  0.4580780000000  0.5886100000000 1.0
C      1  0.5227820000000  0.4936110000000  0.3917880000000 1.0
C      1  0.5193330000000  0.5718510000000  0.5551200000000 1.0
C      1  0.4781190000000  0.4116840000000  0.5045670000000 1.0
C      1  0.5531550000000  0.5435180000000  0.4985450000000 1.0
C      1  0.5886820000000  0.4958130000000  0.5529990000000 1.0
C      1  0.4377970000000  0.5558580000000  0.5538980000000 1.0
C      1  0.4832300000000  0.5180970000000  0.5627010000000 1.0
C      1  0.4852230000000  0.5455480000000  0.5263050000000 1.0
C      1  0.5276390000000  0.4479610000000  0.5106290000000 1.0
C      1  0.5241170000000  0.3914250000000  0.5059730000000 1.0
C      1  0.5123130000000  0.4716610000000  0.4321830000000 1.0
C      1  0.4539570000000  0.4646270000000  0.4008530000000 1.0
C      1  0.5289640000000  0.5212370000000  0.5675410000000 1.0
C      1  0.4790090000000  0.5709400000000  0.4237130000000 1.0
C      1  0.5221600000000  0.4906970000000  0.5029180000000 1.0
C      1  0.5515200000000  0.4412660000000  0.4393320000000 1.0
C      1  0.5124550000000  0.5593240000000  0.5280880000000 1.0
C      1  0.5691160000000  0.4266230000000  0.5280330000000 1.0
C      1  0.4687350000000  0.4764200000000  0.5516140000000 1.0
C      1  0.4493140000000  0.4112660000000  0.5171090000000 1.0
C      1  0.5374590000000  0.5388970000000  0.4737760000000 1.0
C      1  0.5404120000000  0.4132390000000  0.4413440000000 1.0
C      1  0.4041410000000  0.4653070000000  0.4545450000000 1.0
C      1  0.5196280000000  0.5224640000000  0.4333220000000 1.0
C      1  0.5363020000000  0.4114200000000  0.5533660000000 1.0
C      1  0.5470390000000  0.3954820000000  0.4620850000000 1.0
C      1  0.4661340000000  0.6042830000000  0.4918650000000 1.0
C      1  0.4137290000000  0.4762440000000  0.5740990000000 1.0
C      1  0.4601260000000  0.5040410000000  0.5491200000000 1.0
C      1  0.4803200000000  0.5478530000000  0.5565520000000 1.0
END
