TITL C-3577089-586-515 -1.92089912874604e-07 125000 -391.59415912365 0 0 64 (C1) n - 1
REM
REM in /home/bkarasulu/work/CARBON/AIRSS/Generating-Clusters/EDIP-Nigel-Params/with-SteepDescent/Higher-Symm/SD-CG/HFTN-CG
REM
REM
REM
REM
REM
REM ./C.cell (12c818d87b63d06a65506943cc24bca4)
REM
REM compiler GCC version 9.2.1 20190827 (Red Hat 9.2.1-1)
REM options -cpp -mtune=generic -march=x86-64 -g -O0 -fpre-include=/usr/include/finclude/math-vector-fortran.h
REM seed -1774118061 1432603891 2114251214 -2025747428 -550604575 1644244562 1983707445 -760595528 426444439 -1264786889 -1934883598 56482980 615482539 11238507 996760914 -1468098173 -1528218715 -1089638482 -1313628265 259526471 -1815420788 1119149288 1746391668 539902082 -1429754341 -1780722754 -1099861180 -2003043950 1453253042 1332792893 -1913055845 -992382566 610244182
REM
CELL 1.54180   50.00000   50.00000   50.00000   90.00000   90.00000   90.00000
LATT -1
SFAC C  
C      1  0.4947000000000  0.5725750000000  0.4683020000000 1.0
C      1  0.5737760000000  0.4702590000000  0.4925330000000 1.0
C      1  0.4695920000000  0.4915280000000  0.5729300000000 1.0
C      1  0.4946710000000  0.4309570000000  0.5302650000000 1.0
C      1  0.5052000000000  0.5711060000000  0.5312140000000 1.0
C      1  0.5106760000000  0.4299250000000  0.4713020000000 1.0
C      1  0.5704970000000  0.5298630000000  0.5073420000000 1.0
C      1  0.4329500000000  0.4720570000000  0.5076260000000 1.0
C      1  0.4311030000000  0.5313520000000  0.4931280000000 1.0
C      1  0.4722750000000  0.5083250000000  0.4325620000000 1.0
C      1  0.5311300000000  0.4930640000000  0.4323560000000 1.0
C      1  0.5289620000000  0.5073330000000  0.5698450000000 1.0
C      1  0.5326990000000  0.4307180000000  0.4934320000000 1.0
C      1  0.4316330000000  0.4932610000000  0.5299830000000 1.0
C      1  0.4939870000000  0.5301530000000  0.4322100000000 1.0
C      1  0.5310590000000  0.5707720000000  0.5053790000000 1.0
C      1  0.4734250000000  0.4318630000000  0.5078160000000 1.0
C      1  0.4686090000000  0.5727800000000  0.4941720000000 1.0
C      1  0.4305770000000  0.5093570000000  0.4709520000000 1.0
C      1  0.5734770000000  0.4925530000000  0.4701340000000 1.0
C      1  0.5710800000000  0.5079960000000  0.5297040000000 1.0
C      1  0.4923910000000  0.4692370000000  0.5728300000000 1.0
C      1  0.5067230000000  0.5289230000000  0.5693610000000 1.0
C      1  0.5093990000000  0.4713230000000  0.4327700000000 1.0
C      1  0.4788860000000  0.5187670000000  0.5626280000000 1.0
C      1  0.5204000000000  0.5626260000000  0.4790450000000 1.0
C      1  0.5642150000000  0.4797720000000  0.5200640000000 1.0
C      1  0.4819230000000  0.4809160000000  0.4417110000000 1.0
C      1  0.5217390000000  0.5207950000000  0.4407660000000 1.0
C      1  0.5196070000000  0.4791910000000  0.5629080000000 1.0
C      1  0.5229400000000  0.4391390000000  0.5213670000000 1.0
C      1  0.4788110000000  0.5632530000000  0.5202890000000 1.0
C      1  0.4836720000000  0.4400590000000  0.4806170000000 1.0
C      1  0.5632380000000  0.5197040000000  0.4795450000000 1.0
C      1  0.4409780000000  0.4824180000000  0.4803810000000 1.0
C      1  0.4394320000000  0.5216050000000  0.5211160000000 1.0
C      1  0.5371600000000  0.4878280000000  0.5096970000000 1.0
C      1  0.4868440000000  0.5077980000000  0.5358220000000 1.0
C      1  0.5092780000000  0.5363360000000  0.4881430000000 1.0
C      1  0.5366300000000  0.5087440000000  0.4881560000000 1.0
C      1  0.4673570000000  0.4935210000000  0.4894620000000 1.0
C      1  0.4672230000000  0.5135280000000  0.5121940000000 1.0
C      1  0.4912260000000  0.4903800000000  0.4687940000000 1.0
C      1  0.5129060000000  0.5122540000000  0.4683680000000 1.0
C      1  0.5088400000000  0.4869470000000  0.5359720000000 1.0
C      1  0.5143740000000  0.4667280000000  0.5123710000000 1.0
C      1  0.4879470000000  0.5366520000000  0.5098110000000 1.0
C      1  0.4943740000000  0.4665930000000  0.4896560000000 1.0
C      1  0.5562760000000  0.4809180000000  0.4466720000000 1.0
C      1  0.4815220000000  0.4459840000000  0.5548910000000 1.0
C      1  0.4473680000000  0.5551910000000  0.4814630000000 1.0
C      1  0.5525220000000  0.5190120000000  0.5525710000000 1.0
C      1  0.4464520000000  0.4802420000000  0.5549870000000 1.0
C      1  0.4473530000000  0.5208120000000  0.4471220000000 1.0
C      1  0.4821820000000  0.5548450000000  0.4470360000000 1.0
C      1  0.5218770000000  0.4464580000000  0.4472950000000 1.0
C      1  0.5173880000000  0.5522390000000  0.5517780000000 1.0
C      1  0.4495320000000  0.4483190000000  0.5187450000000 1.0
C      1  0.5522260000000  0.5528010000000  0.5179530000000 1.0
C      1  0.5567410000000  0.4466320000000  0.4811420000000 1.0
C      1  0.5505520000000  0.4523510000000  0.4526670000000 1.0
C      1  0.4537090000000  0.5492310000000  0.4531600000000 1.0
C      1  0.4533600000000  0.4522430000000  0.5477650000000 1.0
C      1  0.5456950000000  0.5469580000000  0.5459940000000 1.0
END
