TITL C-3578194-7807-95 -3.9174779535868e-06 125000 -412.649159770746 0 0 67 (C1) n - 1
REM
REM in /home/bkarasulu/work/CARBON/AIRSS/Generating-Clusters/EDIP-Nigel-Params/with-SteepDescent/Higher-Symm/SD-CG/HFTN-CG
REM
REM
REM
REM
REM
REM ./C.cell (12c818d87b63d06a65506943cc24bca4)
REM
REM compiler GCC version 9.2.1 20190827 (Red Hat 9.2.1-1)
REM options -cpp -mtune=generic -march=x86-64 -g -O0 -fpre-include=/usr/include/finclude/math-vector-fortran.h
REM seed 1501704013 -1217754485 224909878 1079948564 -272319844 384415343 -288198386 882509999 1607656397 -1903440470 871545838 -1806862345 -547391519 958226389 -2119166108 -1481042467 780332407 -1479981433 -534264960 -620179666 -1561362318 1595094175 1475744237 2122240708 -1496177147 960592673 -674360074 1016739829 679764862 1104201944 -1801076929 399414367 825008031
REM
CELL 1.54180   50.00000   50.00000   50.00000   90.00000   90.00000   90.00000
LATT -1
SFAC C  
C      1  0.4844000000000  0.5512080000000  0.4455780000000 1.0
C      1  0.4833060000000  0.4526180000000  0.5545240000000 1.0
C      1  0.5210060000000  0.5356170000000  0.5498890000000 1.0
C      1  0.5207250000000  0.4660350000000  0.4535050000000 1.0
C      1  0.4306920000000  0.5257170000000  0.4820730000000 1.0
C      1  0.4281460000000  0.4732270000000  0.5160140000000 1.0
C      1  0.4650690000000  0.5555330000000  0.4660370000000 1.0
C      1  0.4647500000000  0.4472730000000  0.5335980000000 1.0
C      1  0.4518000000000  0.5488650000000  0.5223780000000 1.0
C      1  0.4493280000000  0.4482700000000  0.4755600000000 1.0
C      1  0.5430570000000  0.5139670000000  0.4408080000000 1.0
C      1  0.5407970000000  0.4876700000000  0.5597970000000 1.0
C      1  0.4866860000000  0.5242880000000  0.5104230000000 1.0
C      1  0.4917360000000  0.4776270000000  0.4912790000000 1.0
C      1  0.4296090000000  0.4596620000000  0.4918000000000 1.0
C      1  0.4312060000000  0.5372180000000  0.5074330000000 1.0
C      1  0.4731000000000  0.5005910000000  0.4292690000000 1.0
C      1  0.4742330000000  0.4951330000000  0.5696920000000 1.0
C      1  0.5488250000000  0.4518810000000  0.5261380000000 1.0
C      1  0.5488730000000  0.5481320000000  0.4766320000000 1.0
C      1  0.4545800000000  0.4889790000000  0.5241140000000 1.0
C      1  0.4577410000000  0.5123730000000  0.4739270000000 1.0
C      1  0.5718570000000  0.5280760000000  0.4765190000000 1.0
C      1  0.5716620000000  0.4721460000000  0.5263590000000 1.0
C      1  0.5235090000000  0.4906020000000  0.4347630000000 1.0
C      1  0.5233400000000  0.5118000000000  0.5690180000000 1.0
C      1  0.4671840000000  0.5725400000000  0.5138760000000 1.0
C      1  0.4664150000000  0.4260240000000  0.4860120000000 1.0
C      1  0.4938680000000  0.5739430000000  0.5283900000000 1.0
C      1  0.4939130000000  0.4256410000000  0.4721250000000 1.0
C      1  0.4716910000000  0.4249640000000  0.5154740000000 1.0
C      1  0.4720330000000  0.5770300000000  0.4850750000000 1.0
C      1  0.4978150000000  0.5045110000000  0.5804520000000 1.0
C      1  0.4992230000000  0.4983800000000  0.4209150000000 1.0
C      1  0.4586800000000  0.4921060000000  0.4517430000000 1.0
C      1  0.4596570000000  0.5064980000000  0.5484990000000 1.0
C      1  0.4378940000000  0.4560240000000  0.5367480000000 1.0
C      1  0.4388180000000  0.5451600000000  0.4628580000000 1.0
C      1  0.5018170000000  0.4563810000000  0.5110020000000 1.0
C      1  0.5007480000000  0.5441960000000  0.4901890000000 1.0
C      1  0.5785180000000  0.5154630000000  0.5032240000000 1.0
C      1  0.5778690000000  0.4848250000000  0.4996760000000 1.0
C      1  0.5406320000000  0.4608830000000  0.4741610000000 1.0
C      1  0.5411500000000  0.5400300000000  0.5284600000000 1.0
C      1  0.5148330000000  0.5121200000000  0.5132580000000 1.0
C      1  0.5165990000000  0.4953000000000  0.4864690000000 1.0
C      1  0.4952100000000  0.4512340000000  0.4559370000000 1.0
C      1  0.4951950000000  0.5493640000000  0.5458730000000 1.0
C      1  0.5159780000000  0.4197010000000  0.4927570000000 1.0
C      1  0.5163650000000  0.5803460000000  0.5084580000000 1.0
C      1  0.4995620000000  0.5848150000000  0.4854370000000 1.0
C      1  0.4994770000000  0.4177480000000  0.5166830000000 1.0
C      1  0.5575000000000  0.5165200000000  0.5234230000000 1.0
C      1  0.5542920000000  0.4862770000000  0.4801710000000 1.0
C      1  0.5043610000000  0.4664560000000  0.5393360000000 1.0
C      1  0.5044590000000  0.5360850000000  0.4609050000000 1.0
C      1  0.4690060000000  0.4658190000000  0.4621390000000 1.0
C      1  0.4678850000000  0.5350000000000  0.5428680000000 1.0
C      1  0.5327200000000  0.5398870000000  0.4527590000000 1.0
C      1  0.5315310000000  0.4609840000000  0.5490750000000 1.0
C      1  0.5631000000000  0.4957150000000  0.5429660000000 1.0
C      1  0.5642110000000  0.5048430000000  0.4586130000000 1.0
C      1  0.5312710000000  0.4466310000000  0.4994820000000 1.0
C      1  0.5305040000000  0.5529600000000  0.5022840000000 1.0
C      1  0.5017490000000  0.4967810000000  0.5405080000000 1.0
C      1  0.4990730000000  0.5071540000000  0.4600410000000 1.0
C      1  0.4711130000000  0.5000830000000  0.4997310000000 1.0
END
