TITL C-3578209-2550-59 -2.83919048214424e-06 125000 -1017.93073930214 0 0 162 (C1) n - 1
REM
REM in /home/bkarasulu/work/CARBON/AIRSS/Generating-Clusters/EDIP-Nigel-Params/with-SteepDescent/Higher-Symm/SD-CG/HFTN-CG
REM
REM
REM
REM
REM
REM ./C.cell (12c818d87b63d06a65506943cc24bca4)
REM
REM compiler GCC version 9.2.1 20190827 (Red Hat 9.2.1-1)
REM options -cpp -mtune=generic -march=x86-64 -g -O0 -fpre-include=/usr/include/finclude/math-vector-fortran.h
REM seed -1975148013 1190581868 1712435895 1854326071 -376708374 -2141547472 285679697 -1349949641 841823926 182579912 238755174 338072179 -855041043 27051233 1035635509 -1563785782 1246634410 -1727520190 1887396765 -1242082517 1592240920 89450091 -1466473448 -1163854746 -1975557395 -110484463 -1843092581 1017622566 1025478213 -585190145 -422652523 -1512577639 68672707
REM
CELL 1.54180   50.00000   50.00000   50.00000   90.00000   90.00000   90.00000
LATT -1
SFAC C  
C      1  0.5269400000000  0.5644530000000  0.4125460000000 1.0
C      1  0.5612020000000  0.5277900000000  0.4136030000000 1.0
C      1  0.5630400000000  0.4814930000000  0.4196090000000 1.0
C      1  0.5312110000000  0.4385100000000  0.4287670000000 1.0
C      1  0.4872350000000  0.4284970000000  0.4125270000000 1.0
C      1  0.4438170000000  0.4495460000000  0.4279550000000 1.0
C      1  0.4305950000000  0.4949410000000  0.4045420000000 1.0
C      1  0.4407110000000  0.5375970000000  0.4311010000000 1.0
C      1  0.4772810000000  0.5644340000000  0.4088980000000 1.0
C      1  0.4591630000000  0.5298840000000  0.4877610000000 1.0
C      1  0.5005090000000  0.5694690000000  0.4874490000000 1.0
C      1  0.5340360000000  0.5625730000000  0.4883390000000 1.0
C      1  0.5626490000000  0.5115720000000  0.4860970000000 1.0
C      1  0.5546280000000  0.4787570000000  0.4865180000000 1.0
C      1  0.5205050000000  0.4343790000000  0.4888100000000 1.0
C      1  0.4948540000000  0.4422740000000  0.4798720000000 1.0
C      1  0.4549890000000  0.4790090000000  0.4735440000000 1.0
C      1  0.4444820000000  0.5027560000000  0.4891030000000 1.0
C      1  0.5716980000000  0.4935010000000  0.5798770000000 1.0
C      1  0.5508650000000  0.4464920000000  0.5817860000000 1.0
C      1  0.5055060000000  0.4263550000000  0.5838550000000 1.0
C      1  0.4548950000000  0.4375060000000  0.5856430000000 1.0
C      1  0.4222510000000  0.4783290000000  0.5847960000000 1.0
C      1  0.4317570000000  0.5291700000000  0.5804470000000 1.0
C      1  0.4651250000000  0.5688410000000  0.5826510000000 1.0
C      1  0.5166470000000  0.5723960000000  0.5806970000000 1.0
C      1  0.5585190000000  0.5431330000000  0.5817220000000 1.0
C      1  0.5287240000000  0.5475050000000  0.4611790000000 1.0
C      1  0.5472200000000  0.5218070000000  0.4601440000000 1.0
C      1  0.5314570000000  0.4988650000000  0.4495270000000 1.0
C      1  0.5283880000000  0.4776300000000  0.4681660000000 1.0
C      1  0.5005360000000  0.4664330000000  0.4654660000000 1.0
C      1  0.4763500000000  0.4802540000000  0.4534220000000 1.0
C      1  0.4806760000000  0.5090820000000  0.4482550000000 1.0
C      1  0.4836290000000  0.5254200000000  0.4716910000000 1.0
C      1  0.4984990000000  0.5481430000000  0.4660450000000 1.0
C      1  0.4705330000000  0.5612550000000  0.5543460000000 1.0
C      1  0.5190240000000  0.5761560000000  0.5515260000000 1.0
C      1  0.5638190000000  0.5468750000000  0.5533680000000 1.0
C      1  0.5709150000000  0.4935960000000  0.5504200000000 1.0
C      1  0.5527780000000  0.4424730000000  0.5529820000000 1.0
C      1  0.5056850000000  0.4211860000000  0.5552940000000 1.0
C      1  0.4535940000000  0.4330180000000  0.5565470000000 1.0
C      1  0.4330450000000  0.4792250000000  0.5569340000000 1.0
C      1  0.4316350000000  0.5288650000000  0.5508260000000 1.0
C      1  0.4663030000000  0.5207820000000  0.4240380000000 1.0
C      1  0.4861810000000  0.5380400000000  0.4083150000000 1.0
C      1  0.5154300000000  0.5383770000000  0.4128180000000 1.0
C      1  0.5352570000000  0.5172650000000  0.4071480000000 1.0
C      1  0.5354060000000  0.4896500000000  0.4214200000000 1.0
C      1  0.5187540000000  0.4620080000000  0.4185640000000 1.0
C      1  0.4904110000000  0.4561570000000  0.4121060000000 1.0
C      1  0.4667830000000  0.4697920000000  0.4254550000000 1.0
C      1  0.4578540000000  0.4949400000000  0.4102050000000 1.0
C      1  0.5715590000000  0.4251500000000  0.4481030000000 1.0
C      1  0.4888470000000  0.3984410000000  0.4552830000000 1.0
C      1  0.4367370000000  0.4203830000000  0.4522540000000 1.0
C      1  0.4133890000000  0.4900980000000  0.4548890000000 1.0
C      1  0.4078700000000  0.5473140000000  0.4480620000000 1.0
C      1  0.4716650000000  0.5883410000000  0.4543610000000 1.0
C      1  0.5394670000000  0.5949420000000  0.4540130000000 1.0
C      1  0.5866350000000  0.5498890000000  0.4525810000000 1.0
C      1  0.5981590000000  0.4784500000000  0.4572330000000 1.0
C      1  0.4105070000000  0.4389010000000  0.5302900000000 1.0
C      1  0.3963590000000  0.5037740000000  0.5235500000000 1.0
C      1  0.4272100000000  0.5746660000000  0.5294080000000 1.0
C      1  0.4879490000000  0.6086310000000  0.5239620000000 1.0
C      1  0.5621100000000  0.5904800000000  0.5265060000000 1.0
C      1  0.6031520000000  0.5270670000000  0.5270250000000 1.0
C      1  0.5925930000000  0.4534080000000  0.5261660000000 1.0
C      1  0.5425450000000  0.3982240000000  0.5220250000000 1.0
C      1  0.4744140000000  0.4006780000000  0.5250740000000 1.0
C      1  0.5444620000000  0.4211280000000  0.4466620000000 1.0
C      1  0.4904840000000  0.4077580000000  0.4291620000000 1.0
C      1  0.4198580000000  0.4427000000000  0.4445320000000 1.0
C      1  0.4172210000000  0.4959860000000  0.4279290000000 1.0
C      1  0.4296700000000  0.5644620000000  0.4381860000000 1.0
C      1  0.4757260000000  0.5838820000000  0.4273280000000 1.0
C      1  0.5311970000000  0.5695030000000  0.4402240000000 1.0
C      1  0.5684760000000  0.5300200000000  0.4411880000000 1.0
C      1  0.5865870000000  0.4831780000000  0.4324540000000 1.0
C      1  0.5454740000000  0.5666250000000  0.5374770000000 1.0
C      1  0.5741490000000  0.5224100000000  0.5363030000000 1.0
C      1  0.5662000000000  0.4649880000000  0.5361290000000 1.0
C      1  0.5313660000000  0.4254450000000  0.5376490000000 1.0
C      1  0.4791110000000  0.4256290000000  0.5407470000000 1.0
C      1  0.4357950000000  0.4517680000000  0.5407610000000 1.0
C      1  0.4248790000000  0.5025450000000  0.5365070000000 1.0
C      1  0.4460460000000  0.5517100000000  0.5365950000000 1.0
C      1  0.4918160000000  0.5798190000000  0.5363540000000 1.0
C      1  0.4505120000000  0.3910010000000  0.5152380000000 1.0
C      1  0.3927370000000  0.4549540000000  0.5167030000000 1.0
C      1  0.3861270000000  0.5297750000000  0.5198330000000 1.0
C      1  0.4385420000000  0.5974190000000  0.5191220000000 1.0
C      1  0.5123070000000  0.6214040000000  0.5191580000000 1.0
C      1  0.5883450000000  0.5817920000000  0.5218820000000 1.0
C      1  0.6192860000000  0.5046510000000  0.5234630000000 1.0
C      1  0.5894790000000  0.4261950000000  0.5204340000000 1.0
C      1  0.5256090000000  0.3762840000000  0.5161050000000 1.0
C      1  0.5554890000000  0.5239600000000  0.5125310000000 1.0
C      1  0.5458380000000  0.4680780000000  0.5136840000000 1.0
C      1  0.5227870000000  0.4468110000000  0.5159900000000 1.0
C      1  0.4851710000000  0.4509050000000  0.5219590000000 1.0
C      1  0.4527130000000  0.4624380000000  0.5165680000000 1.0
C      1  0.4460000000000  0.4928820000000  0.5164520000000 1.0
C      1  0.4655610000000  0.5427870000000  0.5136500000000 1.0
C      1  0.4883010000000  0.5613320000000  0.5127130000000 1.0
C      1  0.5369660000000  0.5469220000000  0.5150120000000 1.0
C      1  0.5540080000000  0.5836410000000  0.4785620000000 1.0
C      1  0.5919460000000  0.5226250000000  0.4781920000000 1.0
C      1  0.5830610000000  0.4634150000000  0.4779030000000 1.0
C      1  0.5332010000000  0.4105970000000  0.4733650000000 1.0
C      1  0.4791090000000  0.4168820000000  0.4778040000000 1.0
C      1  0.4435390000000  0.4541860000000  0.4869470000000 1.0
C      1  0.4159840000000  0.5077020000000  0.4786080000000 1.0
C      1  0.4399030000000  0.5505410000000  0.4785210000000 1.0
C      1  0.4920860000000  0.5959610000000  0.4754500000000 1.0
C      1  0.5541890000000  0.6033530000000  0.5005590000000 1.0
C      1  0.6039500000000  0.5396470000000  0.5005090000000 1.0
C      1  0.6013890000000  0.4655680000000  0.5010680000000 1.0
C      1  0.5543710000000  0.4024750000000  0.4948000000000 1.0
C      1  0.4911630000000  0.4038710000000  0.5023590000000 1.0
C      1  0.4144120000000  0.4166170000000  0.5145450000000 1.0
C      1  0.3953830000000  0.4941890000000  0.4955190000000 1.0
C      1  0.4046890000000  0.5693250000000  0.5143000000000 1.0
C      1  0.4756580000000  0.6095890000000  0.4963670000000 1.0
C      1  0.4367610000000  0.4568020000000  0.5965450000000 1.0
C      1  0.4243230000000  0.5051900000000  0.5937290000000 1.0
C      1  0.4467270000000  0.5499080000000  0.5925730000000 1.0
C      1  0.4911150000000  0.5729950000000  0.5929250000000 1.0
C      1  0.5382030000000  0.5591250000000  0.5924410000000 1.0
C      1  0.5661890000000  0.5181920000000  0.5919170000000 1.0
C      1  0.5630440000000  0.4696420000000  0.5915640000000 1.0
C      1  0.5299130000000  0.4337020000000  0.5950320000000 1.0
C      1  0.4805680000000  0.4315470000000  0.5958180000000 1.0
C      1  0.4340880000000  0.4056580000000  0.4988410000000 1.0
C      1  0.3933270000000  0.4655030000000  0.4910210000000 1.0
C      1  0.3943950000000  0.5481870000000  0.5000700000000 1.0
C      1  0.4483340000000  0.5999300000000  0.4933390000000 1.0
C      1  0.5294010000000  0.6189920000000  0.4969110000000 1.0
C      1  0.5948120000000  0.5669190000000  0.4988870000000 1.0
C      1  0.6185210000000  0.4888590000000  0.5001340000000 1.0
C      1  0.5779970000000  0.4188600000000  0.4957960000000 1.0
C      1  0.5058240000000  0.3793460000000  0.4962550000000 1.0
C      1  0.4452940000000  0.5804620000000  0.4674320000000 1.0
C      1  0.5181280000000  0.6113050000000  0.4695160000000 1.0
C      1  0.5807960000000  0.5703680000000  0.4736000000000 1.0
C      1  0.6111430000000  0.5000720000000  0.4729870000000 1.0
C      1  0.5819010000000  0.4346100000000  0.4719670000000 1.0
C      1  0.5136670000000  0.3871210000000  0.4680810000000 1.0
C      1  0.4484380000000  0.4235060000000  0.4790870000000 1.0
C      1  0.4144670000000  0.4622860000000  0.4678410000000 1.0
C      1  0.4121840000000  0.5387000000000  0.4763320000000 1.0
C      1  0.4801960000000  0.4675770000000  0.5650350000000 1.0
C      1  0.4611660000000  0.4873750000000  0.5648130000000 1.0
C      1  0.4718990000000  0.5125160000000  0.5596620000000 1.0
C      1  0.4865680000000  0.5358880000000  0.5563840000000 1.0
C      1  0.5100620000000  0.5343640000000  0.5398860000000 1.0
C      1  0.5296870000000  0.5189030000000  0.5508670000000 1.0
C      1  0.5304360000000  0.4951130000000  0.5636690000000 1.0
C      1  0.5216570000000  0.4737070000000  0.5495210000000 1.0
C      1  0.4952780000000  0.4701430000000  0.5419550000000 1.0
END
