TITL C-3578202-4305-329 -6.71108278369004e-06 125000 -1212.97159243628 0 0 192 (C1) n - 1
REM
REM in /home/bkarasulu/work/CARBON/AIRSS/Generating-Clusters/EDIP-Nigel-Params/with-SteepDescent/Higher-Symm/SD-CG/HFTN-CG
REM
REM
REM
REM
REM
REM ./C.cell (12c818d87b63d06a65506943cc24bca4)
REM
REM compiler GCC version 9.2.1 20190827 (Red Hat 9.2.1-1)
REM options -cpp -mtune=generic -march=x86-64 -g -O0 -fpre-include=/usr/include/finclude/math-vector-fortran.h
REM seed -905254985 -4519912 576283743 198215842 1098448288 -4939753 -770725587 -1051510886 1205607635 1267882316 433224932 -2074465860 1763104875 1793405709 1237553960 -836784891 546156581 -1221999770 1744735548 873047062 -1279768621 1782561757 -1927967966 -1724462733 -1294355072 1883612406 -2061236098 -1527132689 180804839 -1165671712 1070760698 544899914 842249295
REM
CELL 1.54180   50.00000   50.00000   50.00000   90.00000   90.00000   90.00000
LATT -1
SFAC C  
C      1  0.5871980000000  0.5620630000000  0.5190750000000 1.0
C      1  0.4118160000000  0.4428780000000  0.4744950000000 1.0
C      1  0.5522410000000  0.4984050000000  0.5048820000000 1.0
C      1  0.4469220000000  0.5013490000000  0.4921470000000 1.0
C      1  0.5262490000000  0.4600710000000  0.4739290000000 1.0
C      1  0.4574410000000  0.5497410000000  0.5231320000000 1.0
C      1  0.3919530000000  0.5583500000000  0.5156320000000 1.0
C      1  0.6146620000000  0.4395540000000  0.4849760000000 1.0
C      1  0.4198680000000  0.5842460000000  0.4848410000000 1.0
C      1  0.5798480000000  0.4262250000000  0.5141930000000 1.0
C      1  0.4155980000000  0.5447320000000  0.5701700000000 1.0
C      1  0.5893540000000  0.4576620000000  0.4282090000000 1.0
C      1  0.6086360000000  0.5341660000000  0.4435890000000 1.0
C      1  0.4071660000000  0.4582360000000  0.5565150000000 1.0
C      1  0.4691600000000  0.5584330000000  0.4539680000000 1.0
C      1  0.5288830000000  0.4391030000000  0.5479920000000 1.0
C      1  0.5197850000000  0.3996480000000  0.5432380000000 1.0
C      1  0.4782230000000  0.5980210000000  0.4569050000000 1.0
C      1  0.5196070000000  0.4731680000000  0.5199050000000 1.0
C      1  0.4706850000000  0.5368020000000  0.4978050000000 1.0
C      1  0.4337410000000  0.5844900000000  0.5109410000000 1.0
C      1  0.5738510000000  0.4119570000000  0.4875560000000 1.0
C      1  0.5390490000000  0.4525440000000  0.5235670000000 1.0
C      1  0.4535170000000  0.5414220000000  0.4740260000000 1.0
C      1  0.4618760000000  0.5695040000000  0.4120880000000 1.0
C      1  0.5337720000000  0.4249880000000  0.5893400000000 1.0
C      1  0.4619670000000  0.5016330000000  0.4419160000000 1.0
C      1  0.5385710000000  0.4979870000000  0.5580040000000 1.0
C      1  0.4012010000000  0.4858500000000  0.5372130000000 1.0
C      1  0.6008590000000  0.5127790000000  0.4621120000000 1.0
C      1  0.4791460000000  0.5256730000000  0.5984960000000 1.0
C      1  0.5238580000000  0.4761990000000  0.3999900000000 1.0
C      1  0.5644080000000  0.5374560000000  0.5702150000000 1.0
C      1  0.4351550000000  0.4617030000000  0.4302060000000 1.0
C      1  0.4703490000000  0.5290330000000  0.4287300000000 1.0
C      1  0.5294960000000  0.4707070000000  0.5710900000000 1.0
C      1  0.5180530000000  0.5464810000000  0.5538550000000 1.0
C      1  0.4829580000000  0.4547530000000  0.4483700000000 1.0
C      1  0.4799680000000  0.6067360000000  0.5252380000000 1.0
C      1  0.5243480000000  0.3977280000000  0.4758690000000 1.0
C      1  0.4048620000000  0.4783910000000  0.5076110000000 1.0
C      1  0.5970000000000  0.5232210000000  0.4899900000000 1.0
C      1  0.5216270000000  0.5065760000000  0.6059730000000 1.0
C      1  0.4798900000000  0.4927830000000  0.3933330000000 1.0
C      1  0.4233800000000  0.5407320000000  0.4812460000000 1.0
C      1  0.5678090000000  0.4555910000000  0.5158720000000 1.0
C      1  0.3876410000000  0.5286580000000  0.5159800000000 1.0
C      1  0.6098830000000  0.4692110000000  0.4825530000000 1.0
C      1  0.4975030000000  0.5805720000000  0.5744530000000 1.0
C      1  0.5070500000000  0.4232600000000  0.4266670000000 1.0
C      1  0.4247570000000  0.5658570000000  0.5534690000000 1.0
C      1  0.5787830000000  0.4396500000000  0.4497130000000 1.0
C      1  0.4235810000000  0.5183920000000  0.5045930000000 1.0
C      1  0.5732000000000  0.4777830000000  0.4927220000000 1.0
C      1  0.5426750000000  0.4562390000000  0.4096290000000 1.0
C      1  0.4613500000000  0.5479300000000  0.5928850000000 1.0
C      1  0.5234690000000  0.5883930000000  0.4717110000000 1.0
C      1  0.4706720000000  0.4071820000000  0.5256600000000 1.0
C      1  0.4972660000000  0.4026640000000  0.5653640000000 1.0
C      1  0.4986190000000  0.5940730000000  0.4344010000000 1.0
C      1  0.4876610000000  0.5766710000000  0.4939930000000 1.0
C      1  0.5073540000000  0.4250390000000  0.5097260000000 1.0
C      1  0.4502940000000  0.5790410000000  0.5558640000000 1.0
C      1  0.5543660000000  0.4234370000000  0.4451790000000 1.0
C      1  0.3955070000000  0.5673420000000  0.4876660000000 1.0
C      1  0.6095630000000  0.4332170000000  0.5140090000000 1.0
C      1  0.4549140000000  0.5926160000000  0.5303970000000 1.0
C      1  0.5487380000000  0.4132400000000  0.4719360000000 1.0
C      1  0.4886770000000  0.4363090000000  0.4900790000000 1.0
C      1  0.5043160000000  0.5719590000000  0.5174290000000 1.0
C      1  0.5063490000000  0.5328460000000  0.4792520000000 1.0
C      1  0.4918900000000  0.4649160000000  0.5266160000000 1.0
C      1  0.5476320000000  0.4001030000000  0.5552260000000 1.0
C      1  0.4505260000000  0.5974950000000  0.4467430000000 1.0
C      1  0.4818420000000  0.4461780000000  0.5810180000000 1.0
C      1  0.5158860000000  0.5526840000000  0.4181390000000 1.0
C      1  0.4826930000000  0.5093840000000  0.5066550000000 1.0
C      1  0.5210770000000  0.4829760000000  0.4920540000000 1.0
C      1  0.4733560000000  0.3811160000000  0.4823970000000 1.0
C      1  0.5351480000000  0.6103030000000  0.5142700000000 1.0
C      1  0.4493260000000  0.4146040000000  0.4221680000000 1.0
C      1  0.5546180000000  0.5844170000000  0.5770360000000 1.0
C      1  0.4919700000000  0.5703780000000  0.4182430000000 1.0
C      1  0.5040470000000  0.4258430000000  0.5822150000000 1.0
C      1  0.4962210000000  0.5607700000000  0.4704220000000 1.0
C      1  0.4979090000000  0.4352710000000  0.5364730000000 1.0
C      1  0.6022480000000  0.5486910000000  0.5393240000000 1.0
C      1  0.3925990000000  0.4519880000000  0.4559600000000 1.0
C      1  0.5178810000000  0.5554800000000  0.5834390000000 1.0
C      1  0.4851910000000  0.4456380000000  0.4191110000000 1.0
C      1  0.4584230000000  0.4348980000000  0.5656900000000 1.0
C      1  0.5389860000000  0.5662900000000  0.4307960000000 1.0
C      1  0.4913190000000  0.5552160000000  0.5402000000000 1.0
C      1  0.5041890000000  0.4416200000000  0.4656100000000 1.0
C      1  0.4873230000000  0.6065200000000  0.4926340000000 1.0
C      1  0.5137950000000  0.3962720000000  0.5061990000000 1.0
C      1  0.3941370000000  0.5285120000000  0.5620580000000 1.0
C      1  0.6112350000000  0.4733270000000  0.4356700000000 1.0
C      1  0.4469460000000  0.4762510000000  0.5351190000000 1.0
C      1  0.5528890000000  0.5262680000000  0.4657480000000 1.0
C      1  0.4168980000000  0.5675670000000  0.5266200000000 1.0
C      1  0.5946900000000  0.4241920000000  0.4696710000000 1.0
C      1  0.4254000000000  0.5459420000000  0.4402880000000 1.0
C      1  0.5735580000000  0.4427220000000  0.5611450000000 1.0
C      1  0.6116400000000  0.4589320000000  0.5293210000000 1.0
C      1  0.3861630000000  0.5365310000000  0.4666590000000 1.0
C      1  0.5484490000000  0.5588410000000  0.5844160000000 1.0
C      1  0.4545210000000  0.4404950000000  0.4152140000000 1.0
C      1  0.5641680000000  0.5443610000000  0.5268640000000 1.0
C      1  0.4369080000000  0.4573650000000  0.4692030000000 1.0
C      1  0.5330560000000  0.4377240000000  0.4307030000000 1.0
C      1  0.4698510000000  0.5702840000000  0.5754930000000 1.0
C      1  0.5130570000000  0.5158740000000  0.5497470000000 1.0
C      1  0.4874440000000  0.4858420000000  0.4523800000000 1.0
C      1  0.6163180000000  0.4867660000000  0.4594190000000 1.0
C      1  0.3856350000000  0.5122680000000  0.5409660000000 1.0
C      1  0.5136040000000  0.4791660000000  0.5959460000000 1.0
C      1  0.4867420000000  0.5203620000000  0.4030950000000 1.0
C      1  0.4913570000000  0.4882030000000  0.4850200000000 1.0
C      1  0.5092850000000  0.5159460000000  0.5200720000000 1.0
C      1  0.4692620000000  0.4085140000000  0.5554620000000 1.0
C      1  0.5273030000000  0.5912030000000  0.4425330000000 1.0
C      1  0.5151680000000  0.5267490000000  0.4043320000000 1.0
C      1  0.4852670000000  0.4725970000000  0.5945960000000 1.0
C      1  0.4368620000000  0.5342870000000  0.5860060000000 1.0
C      1  0.5662380000000  0.4714250000000  0.4166530000000 1.0
C      1  0.5200850000000  0.4955130000000  0.4425320000000 1.0
C      1  0.4829180000000  0.5073900000000  0.5583480000000 1.0
C      1  0.5042250000000  0.4045880000000  0.4527250000000 1.0
C      1  0.5015490000000  0.5975590000000  0.5468500000000 1.0
C      1  0.4355760000000  0.4496510000000  0.5468790000000 1.0
C      1  0.5631000000000  0.5534940000000  0.4463120000000 1.0
C      1  0.4642010000000  0.4188250000000  0.4838810000000 1.0
C      1  0.5346900000000  0.5788750000000  0.5148750000000 1.0
C      1  0.5378960000000  0.4709340000000  0.4507780000000 1.0
C      1  0.4655090000000  0.5331040000000  0.5522830000000 1.0
C      1  0.5682450000000  0.4188680000000  0.5441120000000 1.0
C      1  0.4339000000000  0.5778870000000  0.4599690000000 1.0
C      1  0.5702160000000  0.5662150000000  0.4732390000000 1.0
C      1  0.4303230000000  0.4373320000000  0.5203640000000 1.0
C      1  0.5726420000000  0.5053150000000  0.4540070000000 1.0
C      1  0.4286010000000  0.4970670000000  0.5474180000000 1.0
C      1  0.5508200000000  0.5983050000000  0.5540950000000 1.0
C      1  0.4542270000000  0.4009730000000  0.4450320000000 1.0
C      1  0.5665890000000  0.4754550000000  0.4607840000000 1.0
C      1  0.4337480000000  0.5272770000000  0.5339360000000 1.0
C      1  0.4959370000000  0.4697960000000  0.4026930000000 1.0
C      1  0.5068060000000  0.5309250000000  0.5987740000000 1.0
C      1  0.3950650000000  0.4928550000000  0.4834670000000 1.0
C      1  0.6007790000000  0.5052260000000  0.5137090000000 1.0
C      1  0.5845990000000  0.4646140000000  0.5418700000000 1.0
C      1  0.4038920000000  0.5252930000000  0.4457970000000 1.0
C      1  0.5683970000000  0.4970060000000  0.4037170000000 1.0
C      1  0.4320200000000  0.5092770000000  0.5981210000000 1.0
C      1  0.5560230000000  0.5111990000000  0.5785860000000 1.0
C      1  0.4464050000000  0.4868330000000  0.4215390000000 1.0
C      1  0.5572080000000  0.4978950000000  0.5343950000000 1.0
C      1  0.4408020000000  0.5006560000000  0.4634360000000 1.0
C      1  0.5275930000000  0.6122890000000  0.5434470000000 1.0
C      1  0.4784810000000  0.3894590000000  0.4553270000000 1.0
C      1  0.4096990000000  0.4497570000000  0.5032540000000 1.0
C      1  0.5895250000000  0.5521170000000  0.4915080000000 1.0
C      1  0.4568220000000  0.4375270000000  0.4589560000000 1.0
C      1  0.5438860000000  0.5628630000000  0.5404580000000 1.0
C      1  0.5466180000000  0.4005610000000  0.5835080000000 1.0
C      1  0.4486960000000  0.5937140000000  0.4189230000000 1.0
C      1  0.4685470000000  0.4979180000000  0.5928140000000 1.0
C      1  0.5312180000000  0.5023280000000  0.4130820000000 1.0
C      1  0.4785730000000  0.4639300000000  0.4992250000000 1.0
C      1  0.5231880000000  0.5348090000000  0.5036270000000 1.0
C      1  0.5522140000000  0.5286280000000  0.4986440000000 1.0
C      1  0.4478760000000  0.4715550000000  0.4989830000000 1.0
C      1  0.4069530000000  0.4710780000000  0.4406370000000 1.0
C      1  0.5902960000000  0.5287850000000  0.5565730000000 1.0
C      1  0.5500890000000  0.4490900000000  0.5799780000000 1.0
C      1  0.4464970000000  0.5441450000000  0.4191910000000 1.0
C      1  0.4474000000000  0.4167860000000  0.5096640000000 1.0
C      1  0.5449700000000  0.5734980000000  0.4863060000000 1.0
C      1  0.4523210000000  0.4883880000000  0.3944050000000 1.0
C      1  0.5492620000000  0.5104410000000  0.6058590000000 1.0
C      1  0.4858100000000  0.3862120000000  0.5082540000000 1.0
C      1  0.5165990000000  0.6140810000000  0.4893900000000 1.0
C      1  0.5250070000000  0.5199760000000  0.4590850000000 1.0
C      1  0.4747650000000  0.4835280000000  0.5418730000000 1.0
C      1  0.5864170000000  0.5019090000000  0.5405130000000 1.0
C      1  0.4113150000000  0.4970210000000  0.4570490000000 1.0
C      1  0.3819120000000  0.5177240000000  0.4890530000000 1.0
C      1  0.6146020000000  0.4804690000000  0.5087320000000 1.0
C      1  0.4279960000000  0.4903990000000  0.5776570000000 1.0
C      1  0.5707020000000  0.5148450000000  0.4257360000000 1.0
C      1  0.4113070000000  0.4682090000000  0.5824460000000 1.0
C      1  0.5855170000000  0.5408430000000  0.4284860000000 1.0
END
