TITL C-3578208-4450-230 -1.99748212597173e-07 125000 -1105.76501762994 0 0 176 (C1) n - 1
REM
REM in /home/bkarasulu/work/CARBON/AIRSS/Generating-Clusters/EDIP-Nigel-Params/with-SteepDescent/Higher-Symm/SD-CG/HFTN-CG
REM
REM
REM
REM
REM
REM ./C.cell (12c818d87b63d06a65506943cc24bca4)
REM
REM compiler GCC version 9.2.1 20190827 (Red Hat 9.2.1-1)
REM options -cpp -mtune=generic -march=x86-64 -g -O0 -fpre-include=/usr/include/finclude/math-vector-fortran.h
REM seed -262945560 1572425790 593988150 781711546 -1478796053 179349279 2031190603 314228864 -2057114559 -545984934 719407365 -851047829 980232073 -1023225507 -1453361615 -1071126732 2058727743 1700701099 -115585037 1437804742 91201118 -2093373587 1777533142 1620377903 1455956320 1684532747 784646927 571915811 721662492 -1584716995 1164236658 -1137245327 -552308056
REM
CELL 1.54180   50.00000   50.00000   50.00000   90.00000   90.00000   90.00000
LATT -1
SFAC C  
C      1  0.5377320000000  0.5959360000000  0.4603700000000 1.0
C      1  0.4252970000000  0.5105340000000  0.4291770000000 1.0
C      1  0.5428070000000  0.4130960000000  0.4963290000000 1.0
C      1  0.5160890000000  0.5595970000000  0.5888570000000 1.0
C      1  0.4997620000000  0.5054310000000  0.5685470000000 1.0
C      1  0.4616100000000  0.4508360000000  0.5732820000000 1.0
C      1  0.5226900000000  0.5048090000000  0.4382580000000 1.0
C      1  0.5779570000000  0.4260430000000  0.4462280000000 1.0
C      1  0.5306610000000  0.4233970000000  0.4247160000000 1.0
C      1  0.5652010000000  0.4750110000000  0.5652520000000 1.0
C      1  0.5349840000000  0.5504510000000  0.5161410000000 1.0
C      1  0.4778940000000  0.4689330000000  0.4441290000000 1.0
C      1  0.4843320000000  0.4162410000000  0.4306980000000 1.0
C      1  0.4041550000000  0.4714740000000  0.5341440000000 1.0
C      1  0.4019910000000  0.4828630000000  0.4904860000000 1.0
C      1  0.5458420000000  0.3916130000000  0.4522930000000 1.0
C      1  0.4980580000000  0.4002380000000  0.4771210000000 1.0
C      1  0.5671150000000  0.5147330000000  0.5938700000000 1.0
C      1  0.4674990000000  0.5331310000000  0.5897700000000 1.0
C      1  0.5776930000000  0.5728570000000  0.5064510000000 1.0
C      1  0.5318520000000  0.4603650000000  0.5172830000000 1.0
C      1  0.3907230000000  0.4554110000000  0.4913920000000 1.0
C      1  0.5147160000000  0.5095680000000  0.4853210000000 1.0
C      1  0.4960430000000  0.4154990000000  0.5501300000000 1.0
C      1  0.5032840000000  0.4294050000000  0.5750730000000 1.0
C      1  0.5945370000000  0.4730700000000  0.5554020000000 1.0
C      1  0.4920220000000  0.4912720000000  0.4887760000000 1.0
C      1  0.4889570000000  0.5654600000000  0.5495790000000 1.0
C      1  0.4396400000000  0.5548520000000  0.5758160000000 1.0
C      1  0.5300080000000  0.5047620000000  0.3891990000000 1.0
C      1  0.5596750000000  0.4093870000000  0.4284590000000 1.0
C      1  0.4358450000000  0.4332960000000  0.4957740000000 1.0
C      1  0.5867590000000  0.4979670000000  0.4784820000000 1.0
C      1  0.4009170000000  0.5326230000000  0.4946080000000 1.0
C      1  0.5285620000000  0.4457710000000  0.4050550000000 1.0
C      1  0.5244210000000  0.5227800000000  0.5575460000000 1.0
C      1  0.5167370000000  0.3862500000000  0.4486120000000 1.0
C      1  0.6092590000000  0.4960850000000  0.5420350000000 1.0
C      1  0.5372770000000  0.5482010000000  0.5700810000000 1.0
C      1  0.5687330000000  0.5097710000000  0.5234820000000 1.0
C      1  0.5908220000000  0.5486520000000  0.5483040000000 1.0
C      1  0.4208240000000  0.4440340000000  0.4701960000000 1.0
C      1  0.5531930000000  0.5441470000000  0.4262850000000 1.0
C      1  0.6016290000000  0.4484680000000  0.5434620000000 1.0
C      1  0.5669830000000  0.5208420000000  0.4168040000000 1.0
C      1  0.4569530000000  0.5456680000000  0.4942520000000 1.0
C      1  0.5553040000000  0.5886200000000  0.4927540000000 1.0
C      1  0.4197440000000  0.4303550000000  0.5214070000000 1.0
C      1  0.5281600000000  0.4432450000000  0.5817190000000 1.0
C      1  0.4622590000000  0.5729920000000  0.4384340000000 1.0
C      1  0.5257950000000  0.5068770000000  0.5127160000000 1.0
C      1  0.5499180000000  0.4465400000000  0.5630370000000 1.0
C      1  0.4738380000000  0.5416690000000  0.5409480000000 1.0
C      1  0.5068270000000  0.4461840000000  0.5076270000000 1.0
C      1  0.4672120000000  0.4942740000000  0.4525640000000 1.0
C      1  0.5736500000000  0.5685030000000  0.5351300000000 1.0
C      1  0.5213840000000  0.4612510000000  0.4604330000000 1.0
C      1  0.3960480000000  0.4487320000000  0.5183720000000 1.0
C      1  0.4510060000000  0.4884160000000  0.6087910000000 1.0
C      1  0.4892290000000  0.5299420000000  0.5203810000000 1.0
C      1  0.5607270000000  0.5225200000000  0.4726860000000 1.0
C      1  0.4496740000000  0.4988700000000  0.5212270000000 1.0
C      1  0.5605970000000  0.4267660000000  0.5139870000000 1.0
C      1  0.4678030000000  0.5441450000000  0.3953830000000 1.0
C      1  0.5596590000000  0.5330410000000  0.5033820000000 1.0
C      1  0.4774550000000  0.4498380000000  0.4689880000000 1.0
C      1  0.5050070000000  0.4641430000000  0.4095560000000 1.0
C      1  0.3952660000000  0.5002890000000  0.5349680000000 1.0
C      1  0.5052070000000  0.4890360000000  0.3898960000000 1.0
C      1  0.5866590000000  0.5502100000000  0.5755800000000 1.0
C      1  0.5260860000000  0.4840850000000  0.5327310000000 1.0
C      1  0.5074650000000  0.4765220000000  0.4377810000000 1.0
C      1  0.5463210000000  0.4259790000000  0.5405920000000 1.0
C      1  0.4946200000000  0.4601240000000  0.6092280000000 1.0
C      1  0.5038960000000  0.5362790000000  0.4715510000000 1.0
C      1  0.4555120000000  0.4912820000000  0.5502450000000 1.0
C      1  0.4518570000000  0.4077040000000  0.4637350000000 1.0
C      1  0.4752120000000  0.4412820000000  0.4166110000000 1.0
C      1  0.5376620000000  0.4850600000000  0.6075960000000 1.0
C      1  0.4636810000000  0.5039060000000  0.4093190000000 1.0
C      1  0.4602720000000  0.5991220000000  0.4938510000000 1.0
C      1  0.5764700000000  0.4863530000000  0.5053110000000 1.0
C      1  0.4700490000000  0.4214100000000  0.5337230000000 1.0
C      1  0.5102200000000  0.6076200000000  0.4960970000000 1.0
C      1  0.4391790000000  0.4800100000000  0.4992790000000 1.0
C      1  0.4350850000000  0.5918770000000  0.5071940000000 1.0
C      1  0.4843990000000  0.5093450000000  0.3904620000000 1.0
C      1  0.4565800000000  0.4540620000000  0.4982980000000 1.0
C      1  0.5885190000000  0.4740640000000  0.4590510000000 1.0
C      1  0.5455460000000  0.4744650000000  0.4699140000000 1.0
C      1  0.4375640000000  0.4287970000000  0.4504580000000 1.0
C      1  0.4331460000000  0.5724230000000  0.5312570000000 1.0
C      1  0.4026850000000  0.4866610000000  0.4606660000000 1.0
C      1  0.4138120000000  0.5803800000000  0.4896820000000 1.0
C      1  0.5834800000000  0.4411340000000  0.4983230000000 1.0
C      1  0.4502730000000  0.4985300000000  0.4766450000000 1.0
C      1  0.4691810000000  0.3970680000000  0.4838670000000 1.0
C      1  0.5068250000000  0.5620200000000  0.4215130000000 1.0
C      1  0.5535810000000  0.4564580000000  0.3990440000000 1.0
C      1  0.5023680000000  0.4811880000000  0.5524020000000 1.0
C      1  0.5335100000000  0.5954510000000  0.5382450000000 1.0
C      1  0.5349810000000  0.5672020000000  0.4666360000000 1.0
C      1  0.5548480000000  0.5474540000000  0.4556110000000 1.0
C      1  0.4019060000000  0.5124630000000  0.4476510000000 1.0
C      1  0.4838180000000  0.6080440000000  0.5386490000000 1.0
C      1  0.4424380000000  0.5789460000000  0.5588070000000 1.0
C      1  0.5011110000000  0.5290310000000  0.4411070000000 1.0
C      1  0.5226450000000  0.4612350000000  0.6035830000000 1.0
C      1  0.5236170000000  0.4326750000000  0.4537940000000 1.0
C      1  0.5280180000000  0.5464870000000  0.4110330000000 1.0
C      1  0.5155880000000  0.5156150000000  0.6116030000000 1.0
C      1  0.4709590000000  0.5174080000000  0.4358210000000 1.0
C      1  0.5799610000000  0.4467640000000  0.4672690000000 1.0
C      1  0.4484020000000  0.5469710000000  0.5234370000000 1.0
C      1  0.4723660000000  0.5188590000000  0.5623200000000 1.0
C      1  0.5146260000000  0.6098100000000  0.4682180000000 1.0
C      1  0.4940310000000  0.4241060000000  0.4585150000000 1.0
C      1  0.5091320000000  0.4015110000000  0.4232780000000 1.0
C      1  0.5582700000000  0.4757690000000  0.4185750000000 1.0
C      1  0.5101290000000  0.6070350000000  0.5485390000000 1.0
C      1  0.4285510000000  0.4729890000000  0.4566060000000 1.0
C      1  0.4205830000000  0.5744940000000  0.4626930000000 1.0
C      1  0.5627260000000  0.5405300000000  0.5852030000000 1.0
C      1  0.4365870000000  0.4355050000000  0.5477680000000 1.0
C      1  0.5199150000000  0.4105720000000  0.5342380000000 1.0
C      1  0.5952110000000  0.5221540000000  0.5328630000000 1.0
C      1  0.4669370000000  0.5953410000000  0.5607230000000 1.0
C      1  0.4756520000000  0.4678250000000  0.5487980000000 1.0
C      1  0.4366670000000  0.4741010000000  0.4278390000000 1.0
C      1  0.4446900000000  0.5255240000000  0.3999850000000 1.0
C      1  0.4999270000000  0.5401630000000  0.6030790000000 1.0
C      1  0.5444720000000  0.5016660000000  0.4148940000000 1.0
C      1  0.4963010000000  0.4966300000000  0.5990110000000 1.0
C      1  0.4832590000000  0.5585010000000  0.4840460000000 1.0
C      1  0.5255090000000  0.5326440000000  0.3863550000000 1.0
C      1  0.5176050000000  0.5292420000000  0.5278180000000 1.0
C      1  0.5891260000000  0.5107670000000  0.4306230000000 1.0
C      1  0.4436490000000  0.5331900000000  0.4456890000000 1.0
C      1  0.4046020000000  0.5640330000000  0.5337830000000 1.0
C      1  0.5373140000000  0.5029870000000  0.4662160000000 1.0
C      1  0.5511600000000  0.4963030000000  0.5472840000000 1.0
C      1  0.5351180000000  0.6017870000000  0.5101960000000 1.0
C      1  0.6131010000000  0.5061780000000  0.4914610000000 1.0
C      1  0.4151490000000  0.5436230000000  0.5640350000000 1.0
C      1  0.4698890000000  0.5081630000000  0.6077710000000 1.0
C      1  0.4768540000000  0.4490010000000  0.5226060000000 1.0
C      1  0.5003430000000  0.4627030000000  0.4828930000000 1.0
C      1  0.6078100000000  0.5310080000000  0.5067670000000 1.0
C      1  0.5918240000000  0.5512610000000  0.4933260000000 1.0
C      1  0.4654390000000  0.4041140000000  0.5108770000000 1.0
C      1  0.4823200000000  0.4400790000000  0.5917220000000 1.0
C      1  0.4191740000000  0.4599240000000  0.5547530000000 1.0
C      1  0.4353030000000  0.5624850000000  0.4416890000000 1.0
C      1  0.3907370000000  0.5068670000000  0.5058290000000 1.0
C      1  0.4321940000000  0.5225950000000  0.5240980000000 1.0
C      1  0.4786660000000  0.5588730000000  0.4182880000000 1.0
C      1  0.4840310000000  0.6042690000000  0.5094750000000 1.0
C      1  0.5544040000000  0.4664350000000  0.4972020000000 1.0
C      1  0.4165650000000  0.5187490000000  0.5482890000000 1.0
C      1  0.6144750000000  0.4835880000000  0.5145390000000 1.0
C      1  0.5187530000000  0.5646650000000  0.4933050000000 1.0
C      1  0.4965870000000  0.5747980000000  0.5753350000000 1.0
C      1  0.5844190000000  0.4826860000000  0.4312530000000 1.0
C      1  0.4774330000000  0.5046780000000  0.5111640000000 1.0
C      1  0.6043650000000  0.4545030000000  0.5162080000000 1.0
C      1  0.4461480000000  0.4456430000000  0.4263460000000 1.0
C      1  0.4433260000000  0.4690930000000  0.5907500000000 1.0
C      1  0.5444340000000  0.5673930000000  0.5418730000000 1.0
C      1  0.4746100000000  0.5799860000000  0.4645590000000 1.0
C      1  0.4028030000000  0.5340520000000  0.4663790000000 1.0
C      1  0.5146980000000  0.4146170000000  0.5039100000000 1.0
C      1  0.5467770000000  0.4184140000000  0.4686760000000 1.0
C      1  0.3981020000000  0.5599290000000  0.5055710000000 1.0
C      1  0.5621480000000  0.4877210000000  0.5928930000000 1.0
C      1  0.4317430000000  0.4822230000000  0.5677280000000 1.0
C      1  0.4397470000000  0.5273950000000  0.4761100000000 1.0
END
