TITL C-3578206-1180-113 -1.08766117871026e-06 125000 -1245.89561728066 0 0 198 (C1) n - 1
REM
REM in /home/bkarasulu/work/CARBON/AIRSS/Generating-Clusters/EDIP-Nigel-Params/with-SteepDescent/Higher-Symm/SD-CG/HFTN-CG
REM
REM
REM
REM
REM
REM ./C.cell (12c818d87b63d06a65506943cc24bca4)
REM
REM compiler GCC version 9.2.1 20190827 (Red Hat 9.2.1-1)
REM options -cpp -mtune=generic -march=x86-64 -g -O0 -fpre-include=/usr/include/finclude/math-vector-fortran.h
REM seed 924776409 -225658243 1960293164 872271201 -254305498 -1940957636 -635218692 -1373588874 721316361 2132892411 -605457766 -949065603 475774669 -955370557 605131772 -1875023838 205746003 -2048238756 656739992 -665889458 1429987163 -1833089076 1977847790 825878099 1219009379 -1578536257 -877751395 -1213375473 -416286612 -2080160904 -704126190 782541109 1339027577
REM
CELL 1.54180   50.00000   50.00000   50.00000   90.00000   90.00000   90.00000
LATT -1
SFAC C  
C      1  0.4881340000000  0.3729820000000  0.4677170000000 1.0
C      1  0.4906850000000  0.6258220000000  0.5057800000000 1.0
C      1  0.5186140000000  0.3763800000000  0.4707580000000 1.0
C      1  0.5172730000000  0.6237820000000  0.5149400000000 1.0
C      1  0.5567340000000  0.4927180000000  0.5288410000000 1.0
C      1  0.5579030000000  0.5059640000000  0.4751130000000 1.0
C      1  0.4408210000000  0.4915220000000  0.5274270000000 1.0
C      1  0.4415020000000  0.5046570000000  0.4717160000000 1.0
C      1  0.5103300000000  0.5274870000000  0.5193470000000 1.0
C      1  0.5145210000000  0.4726070000000  0.4928150000000 1.0
C      1  0.4826650000000  0.5246140000000  0.5081580000000 1.0
C      1  0.4863220000000  0.4678790000000  0.4817250000000 1.0
C      1  0.6106390000000  0.5364290000000  0.5186420000000 1.0
C      1  0.6121490000000  0.4654930000000  0.4845790000000 1.0
C      1  0.3888290000000  0.5337780000000  0.5177570000000 1.0
C      1  0.3891570000000  0.4632940000000  0.4810320000000 1.0
C      1  0.5282760000000  0.4451420000000  0.4000310000000 1.0
C      1  0.5329420000000  0.5626730000000  0.6044720000000 1.0
C      1  0.4813590000000  0.4562880000000  0.4090380000000 1.0
C      1  0.4789800000000  0.5640750000000  0.6084990000000 1.0
C      1  0.5761620000000  0.5004880000000  0.5983720000000 1.0
C      1  0.5742550000000  0.5014620000000  0.4057170000000 1.0
C      1  0.4249320000000  0.5047310000000  0.5991240000000 1.0
C      1  0.4204770000000  0.4981890000000  0.4023310000000 1.0
C      1  0.4858820000000  0.5112370000000  0.4571750000000 1.0
C      1  0.4860400000000  0.4799170000000  0.5256900000000 1.0
C      1  0.5122810000000  0.5150910000000  0.4674960000000 1.0
C      1  0.5118930000000  0.4816820000000  0.5354180000000 1.0
C      1  0.4682490000000  0.5967370000000  0.4403860000000 1.0
C      1  0.4661350000000  0.4033570000000  0.5599240000000 1.0
C      1  0.5226000000000  0.5941940000000  0.4483450000000 1.0
C      1  0.5215220000000  0.4015800000000  0.5515200000000 1.0
C      1  0.4703620000000  0.5499590000000  0.5005220000000 1.0
C      1  0.4723480000000  0.4409930000000  0.4924730000000 1.0
C      1  0.5234020000000  0.5528050000000  0.5070400000000 1.0
C      1  0.5254070000000  0.4434620000000  0.4948990000000 1.0
C      1  0.6002510000000  0.5013050000000  0.5835410000000 1.0
C      1  0.5980590000000  0.5006960000000  0.4207310000000 1.0
C      1  0.4007980000000  0.5060790000000  0.5838730000000 1.0
C      1  0.3965130000000  0.4951930000000  0.4169150000000 1.0
C      1  0.5556790000000  0.4167520000000  0.4352280000000 1.0
C      1  0.5585280000000  0.5853940000000  0.5686710000000 1.0
C      1  0.4434560000000  0.4107760000000  0.4407290000000 1.0
C      1  0.4461310000000  0.5815770000000  0.5576150000000 1.0
C      1  0.5046730000000  0.6105050000000  0.5554940000000 1.0
C      1  0.4880160000000  0.3876280000000  0.4409600000000 1.0
C      1  0.5222590000000  0.6283990000000  0.5425440000000 1.0
C      1  0.5184460000000  0.3943380000000  0.4441200000000 1.0
C      1  0.4835590000000  0.5819870000000  0.5871870000000 1.0
C      1  0.4809870000000  0.4265640000000  0.4133120000000 1.0
C      1  0.5092830000000  0.5954900000000  0.5805970000000 1.0
C      1  0.5082430000000  0.4149840000000  0.4131760000000 1.0
C      1  0.4374550000000  0.5495820000000  0.4237420000000 1.0
C      1  0.4398740000000  0.4579030000000  0.5773520000000 1.0
C      1  0.5529050000000  0.5409910000000  0.4276470000000 1.0
C      1  0.5589940000000  0.4561130000000  0.5758040000000 1.0
C      1  0.5693270000000  0.5885940000000  0.5400030000000 1.0
C      1  0.5688280000000  0.4143160000000  0.4624460000000 1.0
C      1  0.4338240000000  0.5846450000000  0.5313500000000 1.0
C      1  0.4319810000000  0.4109320000000  0.4674850000000 1.0
C      1  0.4883160000000  0.4959510000000  0.4304130000000 1.0
C      1  0.4847670000000  0.5216610000000  0.5904230000000 1.0
C      1  0.5240910000000  0.4956960000000  0.4168920000000 1.0
C      1  0.5158750000000  0.5166760000000  0.5981490000000 1.0
C      1  0.4126950000000  0.5055320000000  0.4860020000000 1.0
C      1  0.4125650000000  0.4918610000000  0.5132710000000 1.0
C      1  0.5865500000000  0.5068880000000  0.4889680000000 1.0
C      1  0.5870070000000  0.4936900000000  0.5159950000000 1.0
C      1  0.5127690000000  0.4684660000000  0.5856470000000 1.0
C      1  0.5083990000000  0.5340910000000  0.4017730000000 1.0
C      1  0.4850140000000  0.4699770000000  0.5878940000000 1.0
C      1  0.4795460000000  0.5328450000000  0.4046470000000 1.0
C      1  0.5949340000000  0.4655980000000  0.5090630000000 1.0
C      1  0.5918140000000  0.5361190000000  0.4942670000000 1.0
C      1  0.4070440000000  0.4622550000000  0.5053880000000 1.0
C      1  0.4066420000000  0.5351960000000  0.4926580000000 1.0
C      1  0.4815810000000  0.5607490000000  0.4753540000000 1.0
C      1  0.4817470000000  0.4336280000000  0.5208480000000 1.0
C      1  0.5124540000000  0.5610690000000  0.4791220000000 1.0
C      1  0.5128470000000  0.4331570000000  0.5211510000000 1.0
C      1  0.3873580000000  0.4935770000000  0.4422850000000 1.0
C      1  0.3912050000000  0.5054290000000  0.5583300000000 1.0
C      1  0.6077990000000  0.4959740000000  0.4454740000000 1.0
C      1  0.6104220000000  0.5061680000000  0.5589680000000 1.0
C      1  0.5658730000000  0.4739060000000  0.3986830000000 1.0
C      1  0.5668700000000  0.5288900000000  0.6043990000000 1.0
C      1  0.4336650000000  0.4713300000000  0.3961040000000 1.0
C      1  0.4372870000000  0.5329790000000  0.6041360000000 1.0
C      1  0.5358040000000  0.4736530000000  0.3955720000000 1.0
C      1  0.5368190000000  0.5350930000000  0.6085420000000 1.0
C      1  0.4636120000000  0.4762150000000  0.3923530000000 1.0
C      1  0.4687370000000  0.5377460000000  0.6098060000000 1.0
C      1  0.5636890000000  0.4956040000000  0.4483150000000 1.0
C      1  0.5555380000000  0.5044410000000  0.5562770000000 1.0
C      1  0.4371530000000  0.4953570000000  0.4444330000000 1.0
C      1  0.4398200000000  0.5033260000000  0.5548980000000 1.0
C      1  0.4729340000000  0.4138720000000  0.4409450000000 1.0
C      1  0.4748410000000  0.5726970000000  0.5603010000000 1.0
C      1  0.5305470000000  0.4336430000000  0.4278220000000 1.0
C      1  0.5311880000000  0.5740160000000  0.5778410000000 1.0
C      1  0.5560200000000  0.5524210000000  0.5037340000000 1.0
C      1  0.5560060000000  0.4452540000000  0.5013960000000 1.0
C      1  0.4404310000000  0.5527980000000  0.5010770000000 1.0
C      1  0.4405070000000  0.4433140000000  0.4965370000000 1.0
C      1  0.4447000000000  0.4672100000000  0.4431580000000 1.0
C      1  0.4455480000000  0.5323460000000  0.5548420000000 1.0
C      1  0.5574860000000  0.4662790000000  0.4473110000000 1.0
C      1  0.5559890000000  0.5349770000000  0.5573260000000 1.0
C      1  0.5947400000000  0.4185160000000  0.5179120000000 1.0
C      1  0.5978490000000  0.5801830000000  0.4774580000000 1.0
C      1  0.4158080000000  0.4181250000000  0.5201970000000 1.0
C      1  0.4193710000000  0.5797440000000  0.4758310000000 1.0
C      1  0.4736710000000  0.3866200000000  0.4887870000000 1.0
C      1  0.4771030000000  0.6047210000000  0.5184700000000 1.0
C      1  0.5283370000000  0.3975400000000  0.4905760000000 1.0
C      1  0.5296640000000  0.5979770000000  0.5058900000000 1.0
C      1  0.6092530000000  0.4936900000000  0.4734530000000 1.0
C      1  0.6092410000000  0.5085290000000  0.5309050000000 1.0
C      1  0.3902040000000  0.4912770000000  0.4702380000000 1.0
C      1  0.3906240000000  0.5060930000000  0.5298600000000 1.0
C      1  0.5533770000000  0.4615230000000  0.5294240000000 1.0
C      1  0.5521340000000  0.5364090000000  0.4739090000000 1.0
C      1  0.4450330000000  0.4612990000000  0.5281290000000 1.0
C      1  0.4448830000000  0.5339860000000  0.4682920000000 1.0
C      1  0.5721810000000  0.4494780000000  0.5490090000000 1.0
C      1  0.5673280000000  0.5509640000000  0.4532690000000 1.0
C      1  0.4268280000000  0.4503010000000  0.5497270000000 1.0
C      1  0.4238270000000  0.5412220000000  0.4485890000000 1.0
C      1  0.4042900000000  0.4453020000000  0.4639170000000 1.0
C      1  0.4045650000000  0.5516150000000  0.5343360000000 1.0
C      1  0.5979890000000  0.4475190000000  0.4648870000000 1.0
C      1  0.5961130000000  0.5533230000000  0.5380870000000 1.0
C      1  0.4677490000000  0.5874080000000  0.4669120000000 1.0
C      1  0.4653600000000  0.4094140000000  0.5323540000000 1.0
C      1  0.5232650000000  0.5885280000000  0.4758060000000 1.0
C      1  0.5212320000000  0.4045330000000  0.5234410000000 1.0
C      1  0.5270490000000  0.4999000000000  0.5183740000000 1.0
C      1  0.5290530000000  0.4932540000000  0.4756060000000 1.0
C      1  0.4686780000000  0.5024250000000  0.5211880000000 1.0
C      1  0.4708160000000  0.4947270000000  0.4777490000000 1.0
C      1  0.4728370000000  0.4571760000000  0.5353200000000 1.0
C      1  0.4720500000000  0.5389530000000  0.4550450000000 1.0
C      1  0.5253760000000  0.4557040000000  0.5401630000000 1.0
C      1  0.5250270000000  0.5401510000000  0.4617600000000 1.0
C      1  0.4060950000000  0.5790190000000  0.5271450000000 1.0
C      1  0.4045710000000  0.4178720000000  0.4709160000000 1.0
C      1  0.5969310000000  0.5818820000000  0.5372210000000 1.0
C      1  0.5973130000000  0.4189660000000  0.4641410000000 1.0
C      1  0.4314660000000  0.5404870000000  0.5286330000000 1.0
C      1  0.4315560000000  0.4554830000000  0.4693180000000 1.0
C      1  0.5686890000000  0.5421520000000  0.5312670000000 1.0
C      1  0.5705080000000  0.4573110000000  0.4728650000000 1.0
C      1  0.4478990000000  0.4000140000000  0.4893260000000 1.0
C      1  0.4508640000000  0.5946510000000  0.5107260000000 1.0
C      1  0.5581200000000  0.4012230000000  0.4870340000000 1.0
C      1  0.5587890000000  0.5953170000000  0.5128340000000 1.0
C      1  0.4402620000000  0.4040870000000  0.5165710000000 1.0
C      1  0.4434710000000  0.5930430000000  0.4827580000000 1.0
C      1  0.5671890000000  0.4178030000000  0.5095980000000 1.0
C      1  0.5756900000000  0.5877740000000  0.4917300000000 1.0
C      1  0.5721920000000  0.4558380000000  0.4220020000000 1.0
C      1  0.5745140000000  0.5454820000000  0.5805090000000 1.0
C      1  0.4295200000000  0.4542950000000  0.4206540000000 1.0
C      1  0.4304460000000  0.5455440000000  0.5780000000000 1.0
C      1  0.4771020000000  0.4682240000000  0.4355350000000 1.0
C      1  0.4785520000000  0.5398360000000  0.5608310000000 1.0
C      1  0.5237720000000  0.4553320000000  0.4479200000000 1.0
C      1  0.5288490000000  0.5490040000000  0.5591530000000 1.0
C      1  0.4313510000000  0.4260270000000  0.4203870000000 1.0
C      1  0.4297040000000  0.5736720000000  0.5787090000000 1.0
C      1  0.5733350000000  0.4279600000000  0.4165170000000 1.0
C      1  0.5772550000000  0.5734600000000  0.5857380000000 1.0
C      1  0.4678210000000  0.5502450000000  0.4260570000000 1.0
C      1  0.4688720000000  0.4486830000000  0.5786110000000 1.0
C      1  0.5233750000000  0.5495190000000  0.4235720000000 1.0
C      1  0.5274640000000  0.4479230000000  0.5702270000000 1.0
C      1  0.5186740000000  0.5089560000000  0.3916850000000 1.0
C      1  0.5280840000000  0.4907360000000  0.5934730000000 1.0
C      1  0.4685850000000  0.5053980000000  0.4083970000000 1.0
C      1  0.4715330000000  0.4946930000000  0.5897430000000 1.0
C      1  0.5155900000000  0.4207150000000  0.4735130000000 1.0
C      1  0.5165710000000  0.5771880000000  0.5232570000000 1.0
C      1  0.4841240000000  0.4192870000000  0.4725790000000 1.0
C      1  0.4927420000000  0.5893920000000  0.5385610000000 1.0
C      1  0.5933390000000  0.5537860000000  0.4692750000000 1.0
C      1  0.5959950000000  0.4444360000000  0.5299900000000 1.0
C      1  0.4064180000000  0.5556580000000  0.4687050000000 1.0
C      1  0.4047810000000  0.4424870000000  0.5290250000000 1.0
C      1  0.4822170000000  0.4233520000000  0.5710140000000 1.0
C      1  0.4818070000000  0.5770890000000  0.4261470000000 1.0
C      1  0.5118460000000  0.4211530000000  0.5694220000000 1.0
C      1  0.5111530000000  0.5765670000000  0.4294670000000 1.0
C      1  0.4406420000000  0.5121960000000  0.4198980000000 1.0
C      1  0.4437050000000  0.4896260000000  0.5810310000000 1.0
C      1  0.5525280000000  0.5101090000000  0.4249880000000 1.0
C      1  0.5551280000000  0.4875780000000  0.5814030000000 1.0
C      1  0.5057560000000  0.5354300000000  0.5476200000000 1.0
C      1  0.4951950000000  0.4580760000000  0.4553020000000 1.0
END
