TITL C-3577076-40-564 -6.78190237977122e-07 125000 -402.414156409478 0 0 65 (C1) n - 1
REM
REM in /home/bkarasulu/work/CARBON/AIRSS/Generating-Clusters/EDIP-Nigel-Params/with-SteepDescent/Higher-Symm/SD-CG/HFTN-CG
REM
REM
REM
REM
REM
REM ./C.cell (12c818d87b63d06a65506943cc24bca4)
REM
REM compiler GCC version 9.2.1 20190827 (Red Hat 9.2.1-1)
REM options -cpp -mtune=generic -march=x86-64 -g -O0 -fpre-include=/usr/include/finclude/math-vector-fortran.h
REM seed -463663441 1422287734 675214219 -2081299455 -1365219725 1124012059 1762086787 -1720012648 -2120183267 -1394851301 116407995 -1874740905 -1658049252 1960103574 -804155341 1314305174 445149161 -786285806 -2139878194 496452623 452230312 1926861548 1559942374 255420088 860934990 1478007757 1131154170 -1801308432 1746710133 572373250 1269697339 -1351482802 -1272107880
REM
CELL 1.54180   50.00000   50.00000   50.00000   90.00000   90.00000   90.00000
LATT -1
SFAC C  
C      1  0.5625970000000  0.4688740000000  0.4406740000000 1.0
C      1  0.4378810000000  0.5315130000000  0.5631680000000 1.0
C      1  0.4512660000000  0.4829820000000  0.5131770000000 1.0
C      1  0.5416900000000  0.5188260000000  0.4871800000000 1.0
C      1  0.4943250000000  0.5301880000000  0.4625270000000 1.0
C      1  0.5068510000000  0.4723840000000  0.5385600000000 1.0
C      1  0.4657230000000  0.4424340000000  0.4916040000000 1.0
C      1  0.5332530000000  0.5605220000000  0.5086670000000 1.0
C      1  0.5585120000000  0.4785640000000  0.4997190000000 1.0
C      1  0.4396160000000  0.5242400000000  0.5023220000000 1.0
C      1  0.5112060000000  0.5449650000000  0.4421780000000 1.0
C      1  0.4883670000000  0.4580690000000  0.5573640000000 1.0
C      1  0.5128010000000  0.4924740000000  0.5827670000000 1.0
C      1  0.4878060000000  0.5079940000000  0.4195100000000 1.0
C      1  0.5544630000000  0.4860970000000  0.5507100000000 1.0
C      1  0.4468330000000  0.5172630000000  0.4500470000000 1.0
C      1  0.5247050000000  0.4911070000000  0.5545030000000 1.0
C      1  0.4762660000000  0.5092690000000  0.4488450000000 1.0
C      1  0.5542520000000  0.4948300000000  0.4470680000000 1.0
C      1  0.4454360000000  0.5054490000000  0.5554140000000 1.0
C      1  0.5258900000000  0.4546700000000  0.5252460000000 1.0
C      1  0.4750830000000  0.5460690000000  0.4778960000000 1.0
C      1  0.4670510000000  0.4476640000000  0.5427150000000 1.0
C      1  0.5318910000000  0.5556600000000  0.4580430000000 1.0
C      1  0.5069810000000  0.5495050000000  0.5208510000000 1.0
C      1  0.4937530000000  0.4482220000000  0.4804860000000 1.0
C      1  0.5152360000000  0.5097320000000  0.4745260000000 1.0
C      1  0.4926560000000  0.4954490000000  0.5217260000000 1.0
C      1  0.5182400000000  0.4474190000000  0.4433370000000 1.0
C      1  0.4811810000000  0.5534960000000  0.5599620000000 1.0
C      1  0.4479230000000  0.5341870000000  0.4747390000000 1.0
C      1  0.5526080000000  0.4678740000000  0.5271620000000 1.0
C      1  0.5681930000000  0.5109470000000  0.5428950000000 1.0
C      1  0.4300400000000  0.4933910000000  0.4532400000000 1.0
C      1  0.4849480000000  0.4808170000000  0.5763280000000 1.0
C      1  0.5155020000000  0.5200430000000  0.4248470000000 1.0
C      1  0.4784000000000  0.4828370000000  0.4714320000000 1.0
C      1  0.5136330000000  0.5181960000000  0.5291040000000 1.0
C      1  0.4999570000000  0.4312610000000  0.4575840000000 1.0
C      1  0.5004640000000  0.5663950000000  0.5439200000000 1.0
C      1  0.4900060000000  0.5264410000000  0.5655090000000 1.0
C      1  0.5076030000000  0.4739950000000  0.4397410000000 1.0
C      1  0.5425880000000  0.4587550000000  0.4839950000000 1.0
C      1  0.4584100000000  0.5396930000000  0.5195640000000 1.0
C      1  0.4618940000000  0.4683130000000  0.4267350000000 1.0
C      1  0.5370690000000  0.5336830000000  0.5721600000000 1.0
C      1  0.5242660000000  0.4985130000000  0.4457190000000 1.0
C      1  0.4755570000000  0.5016050000000  0.5559420000000 1.0
C      1  0.5423410000000  0.5482410000000  0.4832540000000 1.0
C      1  0.4571900000000  0.4550680000000  0.5174580000000 1.0
C      1  0.5543810000000  0.5353580000000  0.5498830000000 1.0
C      1  0.4436110000000  0.4680820000000  0.4481920000000 1.0
C      1  0.4549190000000  0.5479600000000  0.5474050000000 1.0
C      1  0.5450430000000  0.4522800000000  0.4555490000000 1.0
C      1  0.5133510000000  0.5226610000000  0.5828300000000 1.0
C      1  0.4871070000000  0.4781070000000  0.4194240000000 1.0
C      1  0.5197440000000  0.4477380000000  0.4975700000000 1.0
C      1  0.4808920000000  0.5501540000000  0.5056000000000 1.0
C      1  0.4488670000000  0.4509350000000  0.4702060000000 1.0
C      1  0.5512910000000  0.5550010000000  0.5298730000000 1.0
C      1  0.4342870000000  0.4977680000000  0.5302930000000 1.0
C      1  0.5634570000000  0.5051360000000  0.4724010000000 1.0
C      1  0.4513580000000  0.4914210000000  0.4851980000000 1.0
C      1  0.5411860000000  0.5092090000000  0.5164240000000 1.0
C      1  0.4993140000000  0.4905960000000  0.4914030000000 1.0
END
