TITL C-3577090-796-259 -3.98936508787515e-07 125000 -106.773103179068 0 0 19 (C1) n - 1
REM
REM in /home/bkarasulu/work/CARBON/AIRSS/Generating-Clusters/EDIP-Nigel-Params/with-SteepDescent/Higher-Symm/SD-CG/HFTN-CG
REM
REM
REM
REM
REM
REM ./C.cell (12c818d87b63d06a65506943cc24bca4)
REM
REM compiler GCC version 9.2.1 20190827 (Red Hat 9.2.1-1)
REM options -cpp -mtune=generic -march=x86-64 -g -O0 -fpre-include=/usr/include/finclude/math-vector-fortran.h
REM seed 757437527 -603334629 1103305981 -1460150988 1925800296 1257114577 -1397453648 1270930250 -1572008865 -2102177423 -795180263 1502120652 -1996234590 1674134222 1611358920 1271799908 -1530158357 62985963 -13371341 1831456400 -254362492 -1229003161 -1894257862 -266364197 1496792142 868530721 -986922621 -42115551 -1380198306 -1498937092 -1662591867 -781180728 -276394426
REM
CELL 1.54180   50.00000   50.00000   50.00000   90.00000   90.00000   90.00000
LATT -1
SFAC C  
C      1  0.4823240000000  0.4781570000000  0.4697740000000 1.0
C      1  0.4795380000000  0.5226480000000  0.5310890000000 1.0
C      1  0.4869810000000  0.5221710000000  0.4679800000000 1.0
C      1  0.4765300000000  0.4769860000000  0.5328130000000 1.0
C      1  0.5080990000000  0.5234970000000  0.4891160000000 1.0
C      1  0.4936520000000  0.4643400000000  0.5146600000000 1.0
C      1  0.5036260000000  0.4728910000000  0.4899000000000 1.0
C      1  0.4986190000000  0.5332500000000  0.5136510000000 1.0
C      1  0.5416440000000  0.4956290000000  0.5269730000000 1.0
C      1  0.5626170000000  0.4930770000000  0.4837440000000 1.0
C      1  0.5617050000000  0.4935830000000  0.5107160000000 1.0
C      1  0.5411270000000  0.4947300000000  0.4670280000000 1.0
C      1  0.4599080000000  0.5185310000000  0.4801400000000 1.0
C      1  0.4524290000000  0.4861190000000  0.5188330000000 1.0
C      1  0.4573170000000  0.4888410000000  0.4824970000000 1.0
C      1  0.4550850000000  0.5155820000000  0.5166620000000 1.0
C      1  0.4915040000000  0.4987220000000  0.4517150000000 1.0
C      1  0.4875700000000  0.4997570000000  0.5457550000000 1.0
C      1  0.5228270000000  0.4966980000000  0.4900020000000 1.0
END
