TITL C-3577086-586-64 1.12218814391918e-06 125000 -536.169292841382 0 0 87 (C1) n - 1
REM
REM in /home/bkarasulu/work/CARBON/AIRSS/Generating-Clusters/EDIP-Nigel-Params/with-SteepDescent/Higher-Symm/SD-CG/HFTN-CG
REM
REM
REM
REM
REM
REM ./C.cell (12c818d87b63d06a65506943cc24bca4)
REM
REM compiler GCC version 9.2.1 20190827 (Red Hat 9.2.1-1)
REM options -cpp -mtune=generic -march=x86-64 -g -O0 -fpre-include=/usr/include/finclude/math-vector-fortran.h
REM seed 1748583352 1683281665 -1445629379 907255784 -1578776815 -1433534183 -1365791934 -1165386318 2025978073 1956661201 -1760654532 -1932025703 316560976 1939243875 -1729630788 8613098 2095537648 262999544 -1926083699 -1590670614 612030026 1310473306 -1514799711 1014310119 1064147551 -1613348409 1793613093 22290140 1644610145 -1468257746 -713603101 -1252355366 677676101
REM
CELL 1.54180   50.00000   50.00000   50.00000   90.00000   90.00000   90.00000
LATT -1
SFAC C  
C      1  0.4448410000000  0.4493820000000  0.4549740000000 1.0
C      1  0.5456480000000  0.4573620000000  0.5510830000000 1.0
C      1  0.4846970000000  0.5581790000000  0.5573650000000 1.0
C      1  0.4043530000000  0.5089640000000  0.5083560000000 1.0
C      1  0.5245370000000  0.4785770000000  0.4200430000000 1.0
C      1  0.4764680000000  0.4909430000000  0.4803440000000 1.0
C      1  0.4481410000000  0.4587270000000  0.5256080000000 1.0
C      1  0.5365390000000  0.5166980000000  0.5616050000000 1.0
C      1  0.5666300000000  0.5319070000000  0.4642790000000 1.0
C      1  0.5215620000000  0.4789540000000  0.5298040000000 1.0
C      1  0.5030570000000  0.5745210000000  0.5158090000000 1.0
C      1  0.4786480000000  0.5287130000000  0.5183180000000 1.0
C      1  0.4374200000000  0.4681400000000  0.5525890000000 1.0
C      1  0.4687340000000  0.4361370000000  0.5254670000000 1.0
C      1  0.5737370000000  0.5291000000000  0.5163720000000 1.0
C      1  0.5226550000000  0.4639210000000  0.4739680000000 1.0
C      1  0.5175680000000  0.5635100000000  0.4713520000000 1.0
C      1  0.4566720000000  0.5581130000000  0.5569950000000 1.0
C      1  0.5077820000000  0.5041010000000  0.4510720000000 1.0
C      1  0.4967240000000  0.5417410000000  0.4301990000000 1.0
C      1  0.4429950000000  0.5166970000000  0.5648320000000 1.0
C      1  0.5429530000000  0.5234220000000  0.5133150000000 1.0
C      1  0.5861950000000  0.5051220000000  0.5046590000000 1.0
C      1  0.4310360000000  0.4563910000000  0.5006250000000 1.0
C      1  0.5181210000000  0.4480830000000  0.5261550000000 1.0
C      1  0.3987330000000  0.4924980000000  0.4867460000000 1.0
C      1  0.4262500000000  0.4832810000000  0.4885660000000 1.0
C      1  0.4777920000000  0.4742140000000  0.5050360000000 1.0
C      1  0.5701710000000  0.4815460000000  0.5162040000000 1.0
C      1  0.5327760000000  0.5743980000000  0.5158850000000 1.0
C      1  0.4993200000000  0.4241680000000  0.4556380000000 1.0
C      1  0.4727420000000  0.4367740000000  0.4954210000000 1.0
C      1  0.4703440000000  0.5142100000000  0.5538610000000 1.0
C      1  0.4429890000000  0.5627920000000  0.4975950000000 1.0
C      1  0.5359210000000  0.4905380000000  0.4823610000000 1.0
C      1  0.5671790000000  0.4776540000000  0.5459020000000 1.0
C      1  0.4689130000000  0.5400550000000  0.4646460000000 1.0
C      1  0.5168950000000  0.4432850000000  0.4956600000000 1.0
C      1  0.4304530000000  0.5384110000000  0.4885710000000 1.0
C      1  0.5406840000000  0.5011540000000  0.4310200000000 1.0
C      1  0.4974310000000  0.4251330000000  0.4836430000000 1.0
C      1  0.4724300000000  0.5524670000000  0.4382280000000 1.0
C      1  0.5440280000000  0.5275920000000  0.4452900000000 1.0
C      1  0.5654130000000  0.5554370000000  0.4820130000000 1.0
C      1  0.5022470000000  0.4378040000000  0.4312660000000 1.0
C      1  0.5819090000000  0.5077850000000  0.4742430000000 1.0
C      1  0.4762570000000  0.4865500000000  0.5458560000000 1.0
C      1  0.5308700000000  0.4495680000000  0.4269720000000 1.0
C      1  0.5681160000000  0.4856930000000  0.4619230000000 1.0
C      1  0.5363530000000  0.4577710000000  0.5776910000000 1.0
C      1  0.4932210000000  0.5136920000000  0.4254020000000 1.0
C      1  0.5382840000000  0.5608340000000  0.4905040000000 1.0
C      1  0.4474230000000  0.5342590000000  0.5221530000000 1.0
C      1  0.5203100000000  0.5462870000000  0.4473920000000 1.0
C      1  0.4454000000000  0.4754260000000  0.4447720000000 1.0
C      1  0.5832020000000  0.4445780000000  0.4798810000000 1.0
C      1  0.4905770000000  0.5177010000000  0.5742440000000 1.0
C      1  0.4966080000000  0.5447960000000  0.5787410000000 1.0
C      1  0.5418110000000  0.4482480000000  0.4547200000000 1.0
C      1  0.5123270000000  0.4720110000000  0.5766480000000 1.0
C      1  0.4664580000000  0.5641240000000  0.4809700000000 1.0
C      1  0.4344390000000  0.5435400000000  0.5626660000000 1.0
C      1  0.4914660000000  0.4670910000000  0.4328230000000 1.0
C      1  0.4877070000000  0.4564360000000  0.5670310000000 1.0
C      1  0.5701250000000  0.4572180000000  0.4584730000000 1.0
C      1  0.4268130000000  0.4968150000000  0.5501620000000 1.0
C      1  0.5205890000000  0.5211090000000  0.4818370000000 1.0
C      1  0.4973400000000  0.4775890000000  0.4606610000000 1.0
C      1  0.4929900000000  0.4397880000000  0.5418690000000 1.0
C      1  0.5833800000000  0.5528140000000  0.5037280000000 1.0
C      1  0.5598190000000  0.5014200000000  0.5585140000000 1.0
C      1  0.5429780000000  0.5624490000000  0.5399180000000 1.0
C      1  0.4588400000000  0.4651580000000  0.5727690000000 1.0
C      1  0.5129220000000  0.5003300000000  0.5673140000000 1.0
C      1  0.5759810000000  0.4570600000000  0.5025660000000 1.0
C      1  0.4460960000000  0.4395590000000  0.4811510000000 1.0
C      1  0.5297910000000  0.5361900000000  0.5383510000000 1.0
C      1  0.4430180000000  0.5247190000000  0.4659560000000 1.0
C      1  0.4290470000000  0.5091410000000  0.5233110000000 1.0
C      1  0.4977200000000  0.5493060000000  0.5322510000000 1.0
C      1  0.4679850000000  0.5057240000000  0.4158900000000 1.0
C      1  0.4878920000000  0.5199740000000  0.4874290000000 1.0
C      1  0.4941960000000  0.5723430000000  0.4875780000000 1.0
C      1  0.4947080000000  0.4884040000000  0.5235560000000 1.0
C      1  0.5419450000000  0.4922240000000  0.5111340000000 1.0
C      1  0.4473980000000  0.4943460000000  0.4686260000000 1.0
C      1  0.4652590000000  0.4791130000000  0.4235820000000 1.0
END
