TITL C-3578205-846-442 -1.69058122258558e-06 125000 -465.157387476752 0 0 78 (C1) n - 1
REM
REM in /home/bkarasulu/work/CARBON/AIRSS/Generating-Clusters/EDIP-Nigel-Params/with-SteepDescent/Higher-Symm/SD-CG/HFTN-CG
REM
REM
REM
REM
REM
REM ./C.cell (12c818d87b63d06a65506943cc24bca4)
REM
REM compiler GCC version 9.2.1 20190827 (Red Hat 9.2.1-1)
REM options -cpp -mtune=generic -march=x86-64 -g -O0 -fpre-include=/usr/include/finclude/math-vector-fortran.h
REM seed 1991557144 866226929 185300065 -822308460 888008740 -923581426 815780983 408053252 189924125 -1982144703 807291509 582927905 -649394284 -1797272290 1757870553 2107220952 -1917652391 -1437956653 969510475 -1798533096 -593466555 -1997561162 1188586698 -95082930 -1096357795 -1776525934 -159397582 1335438115 1374097554 460605512 -513556329 386649181 485895323
REM
CELL 1.54180   50.00000   50.00000   50.00000   90.00000   90.00000   90.00000
LATT -1
SFAC C  
C      1  0.5277570000000  0.4298310000000  0.5163920000000 1.0
C      1  0.5134340000000  0.5205830000000  0.4310190000000 1.0
C      1  0.4279720000000  0.5181640000000  0.5224470000000 1.0
C      1  0.4789010000000  0.4305910000000  0.4879560000000 1.0
C      1  0.5222220000000  0.5700270000000  0.4855700000000 1.0
C      1  0.4760710000000  0.5725040000000  0.5166720000000 1.0
C      1  0.4837120000000  0.5209320000000  0.5695460000000 1.0
C      1  0.5161730000000  0.4762190000000  0.5652340000000 1.0
C      1  0.4815090000000  0.4751800000000  0.4286370000000 1.0
C      1  0.5684470000000  0.5131980000000  0.4806070000000 1.0
C      1  0.4304320000000  0.4861160000000  0.4780190000000 1.0
C      1  0.5750500000000  0.4844560000000  0.5269240000000 1.0
C      1  0.4427530000000  0.5642190000000  0.4528480000000 1.0
C      1  0.4552120000000  0.4400770000000  0.5599800000000 1.0
C      1  0.5591960000000  0.4620060000000  0.4278700000000 1.0
C      1  0.5716440000000  0.5626680000000  0.5378800000000 1.0
C      1  0.4433480000000  0.4248310000000  0.5400200000000 1.0
C      1  0.5557620000000  0.4317530000000  0.4619670000000 1.0
C      1  0.5447290000000  0.4412890000000  0.4386170000000 1.0
C      1  0.4639150000000  0.5731290000000  0.4377430000000 1.0
C      1  0.5391650000000  0.5556160000000  0.5697890000000 1.0
C      1  0.4407160000000  0.4620250000000  0.5678900000000 1.0
C      1  0.5634480000000  0.5480030000000  0.5596130000000 1.0
C      1  0.4312210000000  0.5411800000000  0.4434030000000 1.0
C      1  0.4378000000000  0.5152640000000  0.4383500000000 1.0
C      1  0.4397320000000  0.4416790000000  0.5184470000000 1.0
C      1  0.5179770000000  0.4471320000000  0.4401600000000 1.0
C      1  0.5654730000000  0.5209350000000  0.5560520000000 1.0
C      1  0.4331700000000  0.4868530000000  0.5596280000000 1.0
C      1  0.5648190000000  0.4857570000000  0.4401550000000 1.0
C      1  0.5620190000000  0.4436900000000  0.4854030000000 1.0
C      1  0.4479590000000  0.5637200000000  0.4798120000000 1.0
C      1  0.5640330000000  0.5668220000000  0.5120280000000 1.0
C      1  0.4815100000000  0.4458730000000  0.5550670000000 1.0
C      1  0.5137300000000  0.5598980000000  0.5610060000000 1.0
C      1  0.4892320000000  0.5641980000000  0.4328880000000 1.0
C      1  0.4538580000000  0.4799890000000  0.4343670000000 1.0
C      1  0.4371670000000  0.4588060000000  0.4841660000000 1.0
C      1  0.4784170000000  0.4362170000000  0.4606310000000 1.0
C      1  0.5437560000000  0.4805220000000  0.5649860000000 1.0
C      1  0.4555330000000  0.5180900000000  0.5647930000000 1.0
C      1  0.5406590000000  0.5158040000000  0.4385570000000 1.0
C      1  0.5693560000000  0.4569650000000  0.5235100000000 1.0
C      1  0.4354200000000  0.5447080000000  0.5199830000000 1.0
C      1  0.5641820000000  0.5415870000000  0.4824790000000 1.0
C      1  0.5240930000000  0.4325200000000  0.5441260000000 1.0
C      1  0.4793640000000  0.5651260000000  0.5442340000000 1.0
C      1  0.5192510000000  0.5640970000000  0.4574440000000 1.0
C      1  0.4494970000000  0.4968600000000  0.4576080000000 1.0
C      1  0.4612790000000  0.4514390000000  0.5002430000000 1.0
C      1  0.4937820000000  0.4581980000000  0.4500320000000 1.0
C      1  0.5547650000000  0.4972790000000  0.5445370000000 1.0
C      1  0.4468390000000  0.5042970000000  0.5403660000000 1.0
C      1  0.5493650000000  0.4994020000000  0.4617020000000 1.0
C      1  0.5467910000000  0.4515760000000  0.5075880000000 1.0
C      1  0.4578910000000  0.5527770000000  0.5041390000000 1.0
C      1  0.5424760000000  0.5521840000000  0.4988240000000 1.0
C      1  0.5063430000000  0.4555960000000  0.5457960000000 1.0
C      1  0.4946650000000  0.5402740000000  0.5494940000000 1.0
C      1  0.5017580000000  0.5425270000000  0.4480940000000 1.0
C      1  0.4977810000000  0.4793630000000  0.4723230000000 1.0
C      1  0.4769220000000  0.5026140000000  0.4708650000000 1.0
C      1  0.4792350000000  0.4761770000000  0.5052940000000 1.0
C      1  0.5044810000000  0.4676500000000  0.5174990000000 1.0
C      1  0.5002520000000  0.5249100000000  0.5230340000000 1.0
C      1  0.4869360000000  0.5306770000000  0.4711580000000 1.0
C      1  0.5314190000000  0.5015900000000  0.5250220000000 1.0
C      1  0.4691250000000  0.4945320000000  0.5248160000000 1.0
C      1  0.5263230000000  0.4856480000000  0.4769450000000 1.0
C      1  0.5296120000000  0.4775580000000  0.5050740000000 1.0
C      1  0.4770530000000  0.5285400000000  0.5002750000000 1.0
C      1  0.5289700000000  0.5299570000000  0.5140430000000 1.0
C      1  0.4986040000000  0.4970750000000  0.5717250000000 1.0
C      1  0.5779070000000  0.4990260000000  0.5031080000000 1.0
C      1  0.4994550000000  0.5762410000000  0.5012240000000 1.0
C      1  0.4970300000000  0.4984440000000  0.4244430000000 1.0
C      1  0.4234310000000  0.5031300000000  0.4993290000000 1.0
C      1  0.5040390000000  0.4267920000000  0.5007300000000 1.0
END
