TITL C-3577079-311-452 -1.30901010680692e-06 125000 -277.536878902372 0 0 46 (C1) n - 1
REM
REM in /home/bkarasulu/work/CARBON/AIRSS/Generating-Clusters/EDIP-Nigel-Params/with-SteepDescent/Higher-Symm/SD-CG/HFTN-CG
REM
REM
REM
REM
REM
REM ./C.cell (12c818d87b63d06a65506943cc24bca4)
REM
REM compiler GCC version 9.2.1 20190827 (Red Hat 9.2.1-1)
REM options -cpp -mtune=generic -march=x86-64 -g -O0 -fpre-include=/usr/include/finclude/math-vector-fortran.h
REM seed -1704116570 -638483520 386348872 731091979 -1023625089 -2084877168 1690570835 1959310519 -395799774 386004291 1552946291 -559744114 1656311039 -1488345726 181475764 2091723330 -1111548290 745403982 -811066527 1500661606 1047653930 2102956661 -429160728 -1279477022 -1279294415 -484688659 798696713 -1784081081 1873748213 -571315577 2014499208 2081807814 -1006822402
REM
CELL 1.54180   50.00000   50.00000   50.00000   90.00000   90.00000   90.00000
LATT -1
SFAC C  
C      1  0.5261380000000  0.5174320000000  0.4496090000000 1.0
C      1  0.5256620000000  0.4577090000000  0.5131520000000 1.0
C      1  0.5326590000000  0.5317980000000  0.5349590000000 1.0
C      1  0.5271710000000  0.4893110000000  0.4564240000000 1.0
C      1  0.5296700000000  0.5450640000000  0.5087700000000 1.0
C      1  0.5239010000000  0.4662380000000  0.5404060000000 1.0
C      1  0.5505610000000  0.5084790000000  0.5319910000000 1.0
C      1  0.5447590000000  0.5332170000000  0.4629360000000 1.0
C      1  0.5479980000000  0.4678330000000  0.4981380000000 1.0
C      1  0.5425800000000  0.4859610000000  0.5466760000000 1.0
C      1  0.5489200000000  0.4812440000000  0.4734540000000 1.0
C      1  0.5474030000000  0.5305270000000  0.4905790000000 1.0
C      1  0.4904990000000  0.4815620000000  0.4251030000000 1.0
C      1  0.4837410000000  0.4421470000000  0.5542480000000 1.0
C      1  0.4912670000000  0.5728930000000  0.5231570000000 1.0
C      1  0.4846170000000  0.5183390000000  0.4245720000000 1.0
C      1  0.4927380000000  0.5521790000000  0.5540120000000 1.0
C      1  0.4900790000000  0.4253310000000  0.5217550000000 1.0
C      1  0.5061480000000  0.5088820000000  0.5695600000000 1.0
C      1  0.4975200000000  0.5559850000000  0.4520640000000 1.0
C      1  0.5050340000000  0.4337470000000  0.4769920000000 1.0
C      1  0.4956970000000  0.4844970000000  0.5743690000000 1.0
C      1  0.5056470000000  0.4458550000000  0.4533490000000 1.0
C      1  0.5001350000000  0.5669600000000  0.4762890000000 1.0
C      1  0.4822500000000  0.5290040000000  0.5017650000000 1.0
C      1  0.4817480000000  0.4842900000000  0.4733370000000 1.0
C      1  0.4799830000000  0.4848550000000  0.5271920000000 1.0
C      1  0.4807480000000  0.4689550000000  0.5004320000000 1.0
C      1  0.4848810000000  0.5145110000000  0.4745130000000 1.0
C      1  0.4908280000000  0.5123420000000  0.5245230000000 1.0
C      1  0.5006130000000  0.4453940000000  0.5025110000000 1.0
C      1  0.5055350000000  0.5261660000000  0.5466740000000 1.0
C      1  0.4981290000000  0.5274540000000  0.4494660000000 1.0
C      1  0.5010550000000  0.5546630000000  0.5019690000000 1.0
C      1  0.4955840000000  0.4691100000000  0.5499660000000 1.0
C      1  0.5016000000000  0.4740170000000  0.4515980000000 1.0
C      1  0.4463870000000  0.5111100000000  0.4769340000000 1.0
C      1  0.4421240000000  0.4699780000000  0.5049170000000 1.0
C      1  0.4414590000000  0.5128940000000  0.5231650000000 1.0
C      1  0.4440520000000  0.4825100000000  0.4792940000000 1.0
C      1  0.4515720000000  0.5271820000000  0.5008830000000 1.0
C      1  0.4499650000000  0.4862570000000  0.5276820000000 1.0
C      1  0.4715770000000  0.5646780000000  0.5409550000000 1.0
C      1  0.4667170000000  0.4294780000000  0.5362770000000 1.0
C      1  0.4672920000000  0.4966860000000  0.4229710000000 1.0
C      1  0.5572570000000  0.5053000000000  0.5029390000000 1.0
END
