TITL C-3578204-4308-347 5.50320733155445e-08 125000 -930.933874333354 0 0 150 (D2) n - 1
REM
REM in /home/bkarasulu/work/CARBON/AIRSS/Generating-Clusters/EDIP-Nigel-Params/with-SteepDescent/Higher-Symm/SD-CG/HFTN-CG
REM
REM
REM
REM
REM
REM ./C.cell (12c818d87b63d06a65506943cc24bca4)
REM
REM compiler GCC version 9.2.1 20190827 (Red Hat 9.2.1-1)
REM options -cpp -mtune=generic -march=x86-64 -g -O0 -fpre-include=/usr/include/finclude/math-vector-fortran.h
REM seed -1456885801 -2000140259 1614600342 -133742443 -837946019 -928066433 4131384 6353571 308650732 -1901370951 -205376688 -733389139 -423302393 -1653472659 1533891534 -2051243391 1539601176 -413870733 -1626290100 2100598626 -646320747 -1525427198 395124641 -687586302 1434705616 1660236550 1940770591 1833309522 -1736846326 1141588735 1396533521 -604186208 -487265463
REM
CELL 1.54180   50.00000   50.00000   50.00000   90.00000   90.00000   90.00000
LATT -1
SFAC C  
C      1  0.5015250000000  0.5487970000000  0.4842190000000 1.0
C      1  0.5015250000000  0.4512030000000  0.5157810000000 1.0
C      1  0.4989300000000  0.5487960000000  0.5157860000000 1.0
C      1  0.4989310000000  0.4512040000000  0.4842140000000 1.0
C      1  0.4226570000000  0.4574510000000  0.4099120000000 1.0
C      1  0.4226550000000  0.5425480000000  0.5900870000000 1.0
C      1  0.5777990000000  0.4574440000000  0.5900830000000 1.0
C      1  0.5777990000000  0.5425580000000  0.4099180000000 1.0
C      1  0.5047530000000  0.4515730000000  0.5719640000000 1.0
C      1  0.5047530000000  0.5484270000000  0.4280360000000 1.0
C      1  0.4957030000000  0.4515800000000  0.4280310000000 1.0
C      1  0.4957020000000  0.5484200000000  0.5719690000000 1.0
C      1  0.4503990000000  0.4148360000000  0.5415140000000 1.0
C      1  0.4503970000000  0.5851630000000  0.4584860000000 1.0
C      1  0.5500580000000  0.4148410000000  0.4584780000000 1.0
C      1  0.5500560000000  0.5851600000000  0.5415230000000 1.0
C      1  0.5317290000000  0.4359630000000  0.4491160000000 1.0
C      1  0.5317270000000  0.5640380000000  0.5508840000000 1.0
C      1  0.4687280000000  0.4359570000000  0.5508780000000 1.0
C      1  0.4687270000000  0.5640420000000  0.4491220000000 1.0
C      1  0.4668590000000  0.4834200000000  0.5396470000000 1.0
C      1  0.4668590000000  0.5165790000000  0.4603520000000 1.0
C      1  0.5335970000000  0.4834250000000  0.4603510000000 1.0
C      1  0.5335960000000  0.5165760000000  0.5396490000000 1.0
C      1  0.4314670000000  0.5230410000000  0.5727930000000 1.0
C      1  0.4314690000000  0.4769580000000  0.4272060000000 1.0
C      1  0.5689880000000  0.5230490000000  0.4272090000000 1.0
C      1  0.5689870000000  0.4769520000000  0.5727920000000 1.0
C      1  0.4070370000000  0.5571340000000  0.5249040000000 1.0
C      1  0.4070380000000  0.4428640000000  0.4750950000000 1.0
C      1  0.5934180000000  0.5571380000000  0.4751010000000 1.0
C      1  0.5934190000000  0.4428630000000  0.5249000000000 1.0
C      1  0.5209590000000  0.5280000000000  0.4741310000000 1.0
C      1  0.5209590000000  0.4720010000000  0.5258700000000 1.0
C      1  0.4794960000000  0.5279970000000  0.5258720000000 1.0
C      1  0.4794970000000  0.4720030000000  0.4741280000000 1.0
C      1  0.5061000000000  0.4032520000000  0.4862380000000 1.0
C      1  0.5060980000000  0.5967480000000  0.5137620000000 1.0
C      1  0.4943570000000  0.4032510000000  0.5137520000000 1.0
C      1  0.4943560000000  0.5967490000000  0.4862480000000 1.0
C      1  0.5788940000000  0.4573900000000  0.4548230000000 1.0
C      1  0.5788930000000  0.5426110000000  0.5451770000000 1.0
C      1  0.4215620000000  0.4573850000000  0.5451720000000 1.0
C      1  0.4215620000000  0.5426140000000  0.4548270000000 1.0
C      1  0.5432580000000  0.5484030000000  0.5747400000000 1.0
C      1  0.5432600000000  0.4515980000000  0.4252600000000 1.0
C      1  0.4571960000000  0.5484090000000  0.4252650000000 1.0
C      1  0.4571960000000  0.4515900000000  0.5747350000000 1.0
C      1  0.4472300000000  0.4241420000000  0.4956950000000 1.0
C      1  0.4472280000000  0.5758570000000  0.5043050000000 1.0
C      1  0.5532270000000  0.4241430000000  0.5042980000000 1.0
C      1  0.5532260000000  0.5758580000000  0.4957030000000 1.0
C      1  0.5155150000000  0.5004820000000  0.5624300000000 1.0
C      1  0.5155150000000  0.4995180000000  0.4375700000000 1.0
C      1  0.4849400000000  0.5004880000000  0.4375700000000 1.0
C      1  0.4849400000000  0.4995120000000  0.5624300000000 1.0
C      1  0.5516940000000  0.4429970000000  0.5495000000000 1.0
C      1  0.5516940000000  0.5570040000000  0.4505010000000 1.0
C      1  0.4487620000000  0.4430010000000  0.4504940000000 1.0
C      1  0.4487600000000  0.5569980000000  0.5495050000000 1.0
C      1  0.4014880000000  0.4881320000000  0.5549520000000 1.0
C      1  0.4014880000000  0.5118670000000  0.4450470000000 1.0
C      1  0.5989680000000  0.4881390000000  0.4450470000000 1.0
C      1  0.5989670000000  0.5118630000000  0.5549540000000 1.0
C      1  0.4245420000000  0.5051180000000  0.4273020000000 1.0
C      1  0.4245420000000  0.4948810000000  0.5726980000000 1.0
C      1  0.5759130000000  0.5051120000000  0.5726990000000 1.0
C      1  0.5759140000000  0.4948890000000  0.4273020000000 1.0
C      1  0.5575000000000  0.4732310000000  0.4408800000000 1.0
C      1  0.5574990000000  0.5267700000000  0.5591210000000 1.0
C      1  0.4429560000000  0.4732240000000  0.5591180000000 1.0
C      1  0.4429560000000  0.5267750000000  0.4408820000000 1.0
C      1  0.5037130000000  0.4268860000000  0.4433080000000 1.0
C      1  0.5037110000000  0.5731140000000  0.5566920000000 1.0
C      1  0.4967440000000  0.4268800000000  0.5566850000000 1.0
C      1  0.4967430000000  0.5731200000000  0.4433150000000 1.0
C      1  0.4066630000000  0.4965100000000  0.5266310000000 1.0
C      1  0.4066640000000  0.5034890000000  0.4733680000000 1.0
C      1  0.5937920000000  0.4965140000000  0.4733680000000 1.0
C      1  0.5937920000000  0.5034880000000  0.5266330000000 1.0
C      1  0.5205470000000  0.4911000000000  0.4087360000000 1.0
C      1  0.5205460000000  0.5089000000000  0.5912640000000 1.0
C      1  0.4799080000000  0.4910910000000  0.5912630000000 1.0
C      1  0.4799090000000  0.5089090000000  0.4087370000000 1.0
C      1  0.4729500000000  0.5440510000000  0.4731600000000 1.0
C      1  0.4729510000000  0.4559490000000  0.5268400000000 1.0
C      1  0.5275040000000  0.5440480000000  0.5268440000000 1.0
C      1  0.5275050000000  0.4559520000000  0.4731560000000 1.0
C      1  0.4611260000000  0.5042720000000  0.5170000000000 1.0
C      1  0.4611270000000  0.4957270000000  0.4830000000000 1.0
C      1  0.5393290000000  0.5042750000000  0.4830010000000 1.0
C      1  0.5393290000000  0.4957260000000  0.5170000000000 1.0
C      1  0.5382430000000  0.5944910000000  0.5154180000000 1.0
C      1  0.5382450000000  0.4055100000000  0.4845820000000 1.0
C      1  0.4622100000000  0.5944920000000  0.4845910000000 1.0
C      1  0.4622120000000  0.4055080000000  0.5154090000000 1.0
C      1  0.4342770000000  0.4382630000000  0.4260100000000 1.0
C      1  0.4342750000000  0.5617360000000  0.5739890000000 1.0
C      1  0.5661790000000  0.4382570000000  0.5739840000000 1.0
C      1  0.5661790000000  0.5617440000000  0.4260170000000 1.0
C      1  0.5882900000000  0.4413630000000  0.4943640000000 1.0
C      1  0.5882890000000  0.5586380000000  0.5056370000000 1.0
C      1  0.4121660000000  0.4413610000000  0.5056300000000 1.0
C      1  0.4121650000000  0.5586370000000  0.4943690000000 1.0
C      1  0.5195620000000  0.5384760000000  0.5891750000000 1.0
C      1  0.5195640000000  0.4615240000000  0.4108250000000 1.0
C      1  0.4808920000000  0.5384850000000  0.4108290000000 1.0
C      1  0.4808920000000  0.4615150000000  0.5891710000000 1.0
C      1  0.4809700000000  0.5275160000000  0.5554480000000 1.0
C      1  0.4809710000000  0.4724840000000  0.4445520000000 1.0
C      1  0.5194850000000  0.5275210000000  0.4445550000000 1.0
C      1  0.5194850000000  0.4724790000000  0.5554450000000 1.0
C      1  0.4338540000000  0.5117130000000  0.5258200000000 1.0
C      1  0.4338540000000  0.4882860000000  0.4741790000000 1.0
C      1  0.5666010000000  0.5117170000000  0.4741810000000 1.0
C      1  0.5666010000000  0.4882840000000  0.5258200000000 1.0
C      1  0.3883410000000  0.5182770000000  0.5160110000000 1.0
C      1  0.3883410000000  0.4817210000000  0.4839870000000 1.0
C      1  0.6121140000000  0.5182800000000  0.4839900000000 1.0
C      1  0.6121140000000  0.4817220000000  0.5160110000000 1.0
C      1  0.5469520000000  0.4521580000000  0.4961540000000 1.0
C      1  0.5469520000000  0.5478430000000  0.5038470000000 1.0
C      1  0.4535040000000  0.4521560000000  0.5038410000000 1.0
C      1  0.4535030000000  0.5478430000000  0.4961580000000 1.0
C      1  0.5095140000000  0.5756990000000  0.4703170000000 1.0
C      1  0.5095150000000  0.4243010000000  0.5296830000000 1.0
C      1  0.4909400000000  0.5756960000000  0.5296910000000 1.0
C      1  0.4909410000000  0.4243040000000  0.4703090000000 1.0
C      1  0.5400750000000  0.5785730000000  0.4677690000000 1.0
C      1  0.5400770000000  0.4214280000000  0.5322310000000 1.0
C      1  0.4603780000000  0.5785690000000  0.5322380000000 1.0
C      1  0.4603800000000  0.4214310000000  0.4677610000000 1.0
C      1  0.3851270000000  0.4590170000000  0.4675720000000 1.0
C      1  0.3851260000000  0.5409810000000  0.5324260000000 1.0
C      1  0.6153290000000  0.4590150000000  0.5324240000000 1.0
C      1  0.6153290000000  0.5409870000000  0.4675780000000 1.0
C      1  0.5760900000000  0.5713640000000  0.5392870000000 1.0
C      1  0.5760910000000  0.4286370000000  0.4607140000000 1.0
C      1  0.4243640000000  0.5713670000000  0.4607200000000 1.0
C      1  0.4243650000000  0.4286320000000  0.5392790000000 1.0
C      1  0.5665550000000  0.5421010000000  0.4718530000000 1.0
C      1  0.5665560000000  0.4579000000000  0.5281480000000 1.0
C      1  0.4338990000000  0.5420970000000  0.5281510000000 1.0
C      1  0.4339000000000  0.4579020000000  0.4718480000000 1.0
C      1  0.5985730000000  0.4718560000000  0.4915080000000 1.0
C      1  0.5985730000000  0.5281450000000  0.5084930000000 1.0
C      1  0.4018830000000  0.4718540000000  0.5084890000000 1.0
C      1  0.4018820000000  0.5281450000000  0.4915100000000 1.0
C      1  0.5002280000000  0.5000050000000  0.3914390000000 1.0
C      1  0.5002270000000  0.4999950000000  0.6085610000000 1.0
END
