TITL C-3578203-1966-206 -3.9465518579864e-06 125000 -1207.79311550723 0 0 196 (D2) n - 1
REM
REM in /home/bkarasulu/work/CARBON/AIRSS/Generating-Clusters/EDIP-Nigel-Params/with-SteepDescent/Higher-Symm/SD-CG/HFTN-CG
REM
REM
REM
REM
REM
REM ./C.cell (12c818d87b63d06a65506943cc24bca4)
REM
REM compiler GCC version 9.2.1 20190827 (Red Hat 9.2.1-1)
REM options -cpp -mtune=generic -march=x86-64 -g -O0 -fpre-include=/usr/include/finclude/math-vector-fortran.h
REM seed 383107411 1614762815 1829844738 -280057830 -392348192 767745860 977674224 -467834026 -1319206576 541725935 -576096568 309638263 -1953668235 -546867789 -1434295776 221868624 2057568852 1698837566 -1078215038 768679145 -748232441 1829540680 159222810 2001927249 -927295021 1416502881 -954152430 1467199089 -230715900 2145839610 1464899214 -329060623 1311290898
REM
CELL 1.54180   50.00000   50.00000   50.00000   90.00000   90.00000   90.00000
LATT -1
SFAC C  
C      1  0.5567920000000  0.5061940000000  0.4467960000000 1.0
C      1  0.4432080000000  0.5062040000000  0.5532030000000 1.0
C      1  0.4431990000000  0.4937960000000  0.4468060000000 1.0
C      1  0.5568010000000  0.4938050000000  0.5531950000000 1.0
C      1  0.4723600000000  0.4982620000000  0.5504070000000 1.0
C      1  0.5276400000000  0.4982530000000  0.4495930000000 1.0
C      1  0.5276490000000  0.5017470000000  0.5504020000000 1.0
C      1  0.4723510000000  0.5017380000000  0.4495980000000 1.0
C      1  0.5086690000000  0.5893560000000  0.4449860000000 1.0
C      1  0.4913320000000  0.5893660000000  0.5549980000000 1.0
C      1  0.4913220000000  0.4106340000000  0.4450040000000 1.0
C      1  0.5086770000000  0.4106440000000  0.5550120000000 1.0
C      1  0.4097380000000  0.4941360000000  0.4813240000000 1.0
C      1  0.5902610000000  0.4941390000000  0.5186770000000 1.0
C      1  0.5902580000000  0.5058610000000  0.4813080000000 1.0
C      1  0.4097420000000  0.5058650000000  0.5186910000000 1.0
C      1  0.4183250000000  0.4441980000000  0.5526690000000 1.0
C      1  0.5816740000000  0.4441870000000  0.4473410000000 1.0
C      1  0.5816840000000  0.5558120000000  0.5526450000000 1.0
C      1  0.4183170000000  0.5558030000000  0.4473450000000 1.0
C      1  0.3998460000000  0.4556410000000  0.4372700000000 1.0
C      1  0.6001530000000  0.4556520000000  0.5627380000000 1.0
C      1  0.6001430000000  0.5443470000000  0.4372450000000 1.0
C      1  0.3998570000000  0.5443590000000  0.5627470000000 1.0
C      1  0.4303560000000  0.4679370000000  0.5790660000000 1.0
C      1  0.5696440000000  0.4679220000000  0.4209390000000 1.0
C      1  0.5696570000000  0.5320780000000  0.5790490000000 1.0
C      1  0.4303430000000  0.5320640000000  0.4209450000000 1.0
C      1  0.4620910000000  0.4416820000000  0.5474810000000 1.0
C      1  0.5379080000000  0.4416730000000  0.4525300000000 1.0
C      1  0.5379170000000  0.5583260000000  0.5474640000000 1.0
C      1  0.4620840000000  0.5583180000000  0.4525260000000 1.0
C      1  0.3951800000000  0.5634650000000  0.5017200000000 1.0
C      1  0.6048200000000  0.5634640000000  0.4982690000000 1.0
C      1  0.6048200000000  0.4365360000000  0.5017140000000 1.0
C      1  0.3951790000000  0.4365360000000  0.4982980000000 1.0
C      1  0.4812380000000  0.5327440000000  0.4542940000000 1.0
C      1  0.5187620000000  0.5327520000000  0.5457000000000 1.0
C      1  0.5187540000000  0.4672480000000  0.4542970000000 1.0
C      1  0.4812450000000  0.4672560000000  0.5457090000000 1.0
C      1  0.4346650000000  0.4784330000000  0.4706310000000 1.0
C      1  0.5653350000000  0.4784380000000  0.5293730000000 1.0
C      1  0.5653300000000  0.5215620000000  0.4706160000000 1.0
C      1  0.4346700000000  0.5215670000000  0.5293800000000 1.0
C      1  0.4206790000000  0.4182860000000  0.5383960000000 1.0
C      1  0.5793200000000  0.4182790000000  0.4616190000000 1.0
C      1  0.5793270000000  0.5817210000000  0.5383680000000 1.0
C      1  0.4206730000000  0.5817140000000  0.4616180000000 1.0
C      1  0.4957810000000  0.5300390000000  0.4809130000000 1.0
C      1  0.5042190000000  0.5300430000000  0.5190820000000 1.0
C      1  0.5042160000000  0.4699570000000  0.4809170000000 1.0
C      1  0.4957840000000  0.4699610000000  0.5190880000000 1.0
C      1  0.4913470000000  0.4621230000000  0.4391640000000 1.0
C      1  0.5086530000000  0.4621340000000  0.5608430000000 1.0
C      1  0.5086430000000  0.5378660000000  0.4391560000000 1.0
C      1  0.4913570000000  0.5378770000000  0.5608370000000 1.0
C      1  0.5470640000000  0.4657700000000  0.6053760000000 1.0
C      1  0.4529360000000  0.4657510000000  0.3946300000000 1.0
C      1  0.4529540000000  0.5342490000000  0.6053780000000 1.0
C      1  0.5470470000000  0.5342300000000  0.3946160000000 1.0
C      1  0.5948950000000  0.4638800000000  0.5885870000000 1.0
C      1  0.4051050000000  0.4638640000000  0.4114190000000 1.0
C      1  0.4051200000000  0.5361360000000  0.5885970000000 1.0
C      1  0.5948810000000  0.5361190000000  0.4113970000000 1.0
C      1  0.5462110000000  0.5140620000000  0.4931310000000 1.0
C      1  0.4537890000000  0.5140630000000  0.5068660000000 1.0
C      1  0.4537870000000  0.4859370000000  0.4931420000000 1.0
C      1  0.5462130000000  0.4859380000000  0.5068610000000 1.0
C      1  0.5992560000000  0.4182450000000  0.4811310000000 1.0
C      1  0.4007440000000  0.4182490000000  0.5188840000000 1.0
C      1  0.4007410000000  0.5817520000000  0.4811330000000 1.0
C      1  0.5992590000000  0.5817550000000  0.5188520000000 1.0
C      1  0.5801050000000  0.5081030000000  0.5641650000000 1.0
C      1  0.4198950000000  0.5080920000000  0.4358340000000 1.0
C      1  0.4199060000000  0.4919080000000  0.5641800000000 1.0
C      1  0.5800940000000  0.4918960000000  0.4358220000000 1.0
C      1  0.4647900000000  0.6008650000000  0.4790280000000 1.0
C      1  0.5352110000000  0.6008680000000  0.5209540000000 1.0
C      1  0.5352060000000  0.3991320000000  0.4790400000000 1.0
C      1  0.4647930000000  0.3991360000000  0.5209780000000 1.0
C      1  0.4462430000000  0.4652660000000  0.5133760000000 1.0
C      1  0.5537570000000  0.4652640000000  0.4866300000000 1.0
C      1  0.5537590000000  0.5347360000000  0.5133610000000 1.0
C      1  0.4462410000000  0.5347340000000  0.4866330000000 1.0
C      1  0.4775390000000  0.4586460000000  0.3820540000000 1.0
C      1  0.5224610000000  0.4586680000000  0.6179530000000 1.0
C      1  0.5224410000000  0.5413320000000  0.3820430000000 1.0
C      1  0.4775590000000  0.5413540000000  0.6179490000000 1.0
C      1  0.5076130000000  0.3837750000000  0.5127530000000 1.0
C      1  0.4923870000000  0.3837730000000  0.4872680000000 1.0
C      1  0.4923900000000  0.6162280000000  0.5127330000000 1.0
C      1  0.5076110000000  0.6162250000000  0.4872460000000 1.0
C      1  0.5350710000000  0.6087540000000  0.4926930000000 1.0
C      1  0.4649300000000  0.6087560000000  0.5072880000000 1.0
C      1  0.4649280000000  0.3912440000000  0.4927180000000 1.0
C      1  0.5350720000000  0.3912450000000  0.5073020000000 1.0
C      1  0.5073380000000  0.5987650000000  0.5308010000000 1.0
C      1  0.4926630000000  0.5987590000000  0.4691810000000 1.0
C      1  0.4926670000000  0.4012410000000  0.5308200000000 1.0
C      1  0.5073320000000  0.4012350000000  0.4691980000000 1.0
C      1  0.5488780000000  0.4937580000000  0.6006850000000 1.0
C      1  0.4511220000000  0.4937400000000  0.3993160000000 1.0
C      1  0.4511390000000  0.5062610000000  0.6006920000000 1.0
C      1  0.5488610000000  0.5062420000000  0.3993070000000 1.0
C      1  0.5077700000000  0.5652180000000  0.4241500000000 1.0
C      1  0.4922300000000  0.5652320000000  0.5758380000000 1.0
C      1  0.4922170000000  0.4347680000000  0.4241640000000 1.0
C      1  0.5077820000000  0.4347820000000  0.5758480000000 1.0
C      1  0.5803530000000  0.4413690000000  0.5476810000000 1.0
C      1  0.4196460000000  0.4413610000000  0.4523300000000 1.0
C      1  0.4196550000000  0.5586400000000  0.5476840000000 1.0
C      1  0.5803460000000  0.5586310000000  0.4523050000000 1.0
C      1  0.5349570000000  0.5890040000000  0.4601310000000 1.0
C      1  0.4650440000000  0.5890120000000  0.5398530000000 1.0
C      1  0.4650370000000  0.4109880000000  0.4601530000000 1.0
C      1  0.5349630000000  0.4109950000000  0.5398630000000 1.0
C      1  0.4967980000000  0.4408940000000  0.4861100000000 1.0
C      1  0.5032010000000  0.4408960000000  0.5139010000000 1.0
C      1  0.5032000000000  0.5591040000000  0.4860980000000 1.0
C      1  0.4968010000000  0.5591060000000  0.5138910000000 1.0
C      1  0.5186820000000  0.4362260000000  0.4094270000000 1.0
C      1  0.4813170000000  0.4362420000000  0.5905840000000 1.0
C      1  0.4813030000000  0.5637580000000  0.4094190000000 1.0
C      1  0.5186980000000  0.5637740000000  0.5905700000000 1.0
C      1  0.4605220000000  0.4301200000000  0.5731630000000 1.0
C      1  0.5394770000000  0.4301070000000  0.4268500000000 1.0
C      1  0.5394900000000  0.5698930000000  0.5731430000000 1.0
C      1  0.4605110000000  0.5698800000000  0.4268440000000 1.0
C      1  0.4535620000000  0.5208600000000  0.4068480000000 1.0
C      1  0.5464390000000  0.5208770000000  0.5931480000000 1.0
C      1  0.5464230000000  0.4791230000000  0.4068440000000 1.0
C      1  0.4535770000000  0.4791400000000  0.5931590000000 1.0
C      1  0.4457170000000  0.4388980000000  0.4994610000000 1.0
C      1  0.5542830000000  0.4388980000000  0.5005500000000 1.0
C      1  0.5542830000000  0.5611020000000  0.4994410000000 1.0
C      1  0.4457170000000  0.5611020000000  0.5005480000000 1.0
C      1  0.4019910000000  0.5100090000000  0.5797640000000 1.0
C      1  0.5980090000000  0.5099940000000  0.4202340000000 1.0
C      1  0.5980230000000  0.4900060000000  0.5797490000000 1.0
C      1  0.4019770000000  0.4899920000000  0.4202530000000 1.0
C      1  0.5023440000000  0.4757540000000  0.6072840000000 1.0
C      1  0.4976560000000  0.4757340000000  0.3927200000000 1.0
C      1  0.4976740000000  0.5242660000000  0.6072800000000 1.0
C      1  0.5023260000000  0.5242460000000  0.3927160000000 1.0
C      1  0.4196230000000  0.4390420000000  0.4822160000000 1.0
C      1  0.5803760000000  0.4390440000000  0.5177950000000 1.0
C      1  0.5803740000000  0.5609550000000  0.4821920000000 1.0
C      1  0.4196270000000  0.5609590000000  0.5177970000000 1.0
C      1  0.5313650000000  0.5638300000000  0.4785310000000 1.0
C      1  0.4686360000000  0.5638340000000  0.5214570000000 1.0
C      1  0.4686320000000  0.4361660000000  0.4785480000000 1.0
C      1  0.5313680000000  0.4361700000000  0.5214640000000 1.0
C      1  0.5237190000000  0.5374270000000  0.6030100000000 1.0
C      1  0.4762820000000  0.5374090000000  0.3969830000000 1.0
C      1  0.4762990000000  0.4625910000000  0.6030210000000 1.0
C      1  0.5237010000000  0.4625730000000  0.3969860000000 1.0
C      1  0.4172270000000  0.5391930000000  0.4726700000000 1.0
C      1  0.5827730000000  0.5391970000000  0.5273230000000 1.0
C      1  0.5827680000000  0.4608020000000  0.4726630000000 1.0
C      1  0.4172310000000  0.4608080000000  0.5273440000000 1.0
C      1  0.5109280000000  0.5119420000000  0.4203290000000 1.0
C      1  0.4890720000000  0.5119560000000  0.5796690000000 1.0
C      1  0.4890580000000  0.4880440000000  0.4203330000000 1.0
C      1  0.5109420000000  0.4880580000000  0.5796690000000 1.0
C      1  0.5384230000000  0.4375060000000  0.5897100000000 1.0
C      1  0.4615760000000  0.4374900000000  0.4103010000000 1.0
C      1  0.4615920000000  0.5625100000000  0.5897050000000 1.0
C      1  0.5384090000000  0.5624940000000  0.4102830000000 1.0
C      1  0.4467070000000  0.4358150000000  0.4396410000000 1.0
C      1  0.5532930000000  0.4358250000000  0.5603710000000 1.0
C      1  0.5532830000000  0.5641740000000  0.4396200000000 1.0
C      1  0.4467170000000  0.5641860000000  0.5603680000000 1.0
C      1  0.3813800000000  0.4858430000000  0.4921460000000 1.0
C      1  0.6186200000000  0.4858440000000  0.5078570000000 1.0
C      1  0.6186190000000  0.5141560000000  0.4921230000000 1.0
C      1  0.3813810000000  0.5141580000000  0.5078740000000 1.0
C      1  0.4806200000000  0.4892850000000  0.4771310000000 1.0
C      1  0.5193800000000  0.4892890000000  0.5228710000000 1.0
C      1  0.5193760000000  0.5107110000000  0.4771260000000 1.0
C      1  0.4806240000000  0.5107150000000  0.5228720000000 1.0
C      1  0.5517320000000  0.4229040000000  0.4733630000000 1.0
C      1  0.4482670000000  0.4229090000000  0.5266510000000 1.0
C      1  0.4482630000000  0.5770910000000  0.4733580000000 1.0
C      1  0.5517370000000  0.5770960000000  0.5266280000000 1.0
C      1  0.5935230000000  0.5149760000000  0.5388540000000 1.0
C      1  0.4064770000000  0.5149690000000  0.4611440000000 1.0
C      1  0.4064830000000  0.4850310000000  0.5388720000000 1.0
C      1  0.5935170000000  0.4850240000000  0.4611310000000 1.0
C      1  0.4628790000000  0.4556820000000  0.4560830000000 1.0
C      1  0.5371210000000  0.4556890000000  0.5439250000000 1.0
C      1  0.5371140000000  0.5443100000000  0.4560690000000 1.0
C      1  0.4628860000000  0.5443190000000  0.5439230000000 1.0
C      1  0.3845620000000  0.5382800000000  0.4918920000000 1.0
C      1  0.6154380000000  0.5382810000000  0.5081010000000 1.0
C      1  0.6154370000000  0.4617180000000  0.4918800000000 1.0
C      1  0.3845630000000  0.4617210000000  0.5081270000000 1.0
END
