TITL C-3577084-3642-445 -1.69859008838375e-06 125000 -975.994532057832 0 0 158 (C1) n - 1
REM
REM in /home/bkarasulu/work/CARBON/AIRSS/Generating-Clusters/EDIP-Nigel-Params/with-SteepDescent/Higher-Symm/SD-CG/HFTN-CG
REM
REM
REM
REM
REM
REM ./C.cell (12c818d87b63d06a65506943cc24bca4)
REM
REM compiler GCC version 9.2.1 20190827 (Red Hat 9.2.1-1)
REM options -cpp -mtune=generic -march=x86-64 -g -O0 -fpre-include=/usr/include/finclude/math-vector-fortran.h
REM seed 725498558 -401280732 -1545559423 -540530125 -1990336765 -562165822 1768473169 1533604394 282464856 879176558 -567111249 30266377 1317683983 1343361005 1816486015 -1959048068 -282573589 1779879351 -712769290 1958407672 -923387981 1174342007 1538706014 -1004348613 -1087038185 715923317 1542666317 -787466774 -548817367 1512492488 826657571 -920065268 1768517526
REM
CELL 1.54180   50.00000   50.00000   50.00000   90.00000   90.00000   90.00000
LATT -1
SFAC C  
C      1  0.5460590000000  0.4737940000000  0.4970520000000 1.0
C      1  0.5301900000000  0.4894770000000  0.5462390000000 1.0
C      1  0.5446670000000  0.5238010000000  0.4935540000000 1.0
C      1  0.5545800000000  0.4978620000000  0.4803970000000 1.0
C      1  0.4462670000000  0.4734620000000  0.5125480000000 1.0
C      1  0.4559710000000  0.4820390000000  0.4633210000000 1.0
C      1  0.4604290000000  0.5354570000000  0.5087740000000 1.0
C      1  0.4637910000000  0.5186250000000  0.5319370000000 1.0
C      1  0.3985020000000  0.4521580000000  0.5082940000000 1.0
C      1  0.4029890000000  0.5069800000000  0.5270910000000 1.0
C      1  0.4057620000000  0.5370490000000  0.4899490000000 1.0
C      1  0.4094790000000  0.4950990000000  0.4725050000000 1.0
C      1  0.5900590000000  0.4694450000000  0.4938030000000 1.0
C      1  0.5896880000000  0.5061580000000  0.4660160000000 1.0
C      1  0.5868500000000  0.5257920000000  0.5073520000000 1.0
C      1  0.5924220000000  0.4895200000000  0.5472930000000 1.0
C      1  0.5439800000000  0.5965690000000  0.4872820000000 1.0
C      1  0.5524260000000  0.4798290000000  0.4068740000000 1.0
C      1  0.5487540000000  0.4068320000000  0.5221060000000 1.0
C      1  0.5704960000000  0.5311590000000  0.6145490000000 1.0
C      1  0.4357470000000  0.6042020000000  0.5138520000000 1.0
C      1  0.4435240000000  0.4813670000000  0.5926720000000 1.0
C      1  0.4478770000000  0.4076590000000  0.4762880000000 1.0
C      1  0.4423130000000  0.5111840000000  0.3940560000000 1.0
C      1  0.5703070000000  0.5586920000000  0.5465030000000 1.0
C      1  0.5656440000000  0.5432580000000  0.4413130000000 1.0
C      1  0.5624010000000  0.4393330000000  0.4581300000000 1.0
C      1  0.5759080000000  0.4502220000000  0.5673860000000 1.0
C      1  0.4322300000000  0.5615970000000  0.4496850000000 1.0
C      1  0.4282200000000  0.5433640000000  0.5600770000000 1.0
C      1  0.4362890000000  0.4404570000000  0.5402050000000 1.0
C      1  0.4198410000000  0.4597480000000  0.4374750000000 1.0
C      1  0.5612700000000  0.5760380000000  0.5267710000000 1.0
C      1  0.5588090000000  0.5213660000000  0.4214240000000 1.0
C      1  0.5486610000000  0.4236580000000  0.4804530000000 1.0
C      1  0.5653330000000  0.4688290000000  0.5857000000000 1.0
C      1  0.4421390000000  0.5824360000000  0.4661100000000 1.0
C      1  0.4489300000000  0.5246500000000  0.5731380000000 1.0
C      1  0.4508010000000  0.4228800000000  0.5209150000000 1.0
C      1  0.4178660000000  0.4762080000000  0.4149260000000 1.0
C      1  0.4781060000000  0.4403940000000  0.5658590000000 1.0
C      1  0.4737020000000  0.5647040000000  0.5642810000000 1.0
C      1  0.4738660000000  0.5541250000000  0.4226900000000 1.0
C      1  0.4662560000000  0.4396310000000  0.4323530000000 1.0
C      1  0.5218640000000  0.4409850000000  0.4311250000000 1.0
C      1  0.5238210000000  0.5651870000000  0.4396350000000 1.0
C      1  0.5282710000000  0.5576710000000  0.5748460000000 1.0
C      1  0.5323970000000  0.4348860000000  0.5652210000000 1.0
C      1  0.4542810000000  0.4315790000000  0.4926120000000 1.0
C      1  0.4529650000000  0.4947400000000  0.5683070000000 1.0
C      1  0.4487080000000  0.5847580000000  0.4948200000000 1.0
C      1  0.4406630000000  0.4924860000000  0.4159330000000 1.0
C      1  0.5592650000000  0.4284250000000  0.5069870000000 1.0
C      1  0.5609320000000  0.4928970000000  0.4318370000000 1.0
C      1  0.5465070000000  0.5729340000000  0.5031260000000 1.0
C      1  0.5508460000000  0.4924980000000  0.5893170000000 1.0
C      1  0.4715230000000  0.6030590000000  0.5019690000000 1.0
C      1  0.4664550000000  0.5080480000000  0.3803380000000 1.0
C      1  0.4723350000000  0.3979540000000  0.5027660000000 1.0
C      1  0.4608570000000  0.4883490000000  0.6135590000000 1.0
C      1  0.5167090000000  0.6021460000000  0.4883940000000 1.0
C      1  0.5579890000000  0.5078890000000  0.6110560000000 1.0
C      1  0.5293060000000  0.4012230000000  0.4901150000000 1.0
C      1  0.5370430000000  0.5141890000000  0.4007530000000 1.0
C      1  0.5084670000000  0.4241650000000  0.5247600000000 1.0
C      1  0.4934660000000  0.5261950000000  0.5982260000000 1.0
C      1  0.4838260000000  0.5715800000000  0.4707090000000 1.0
C      1  0.4935310000000  0.4726240000000  0.4041360000000 1.0
C      1  0.4944100000000  0.4321640000000  0.4764740000000 1.0
C      1  0.5064890000000  0.5178990000000  0.4033210000000 1.0
C      1  0.4991290000000  0.5672610000000  0.5223000000000 1.0
C      1  0.5009560000000  0.4773590000000  0.5936390000000 1.0
C      1  0.4879680000000  0.4143310000000  0.5562470000000 1.0
C      1  0.4830360000000  0.5630800000000  0.5935990000000 1.0
C      1  0.4801850000000  0.5813950000000  0.4331830000000 1.0
C      1  0.4787690000000  0.4372310000000  0.4049680000000 1.0
C      1  0.5095200000000  0.4176730000000  0.4439110000000 1.0
C      1  0.5182700000000  0.5603520000000  0.4115920000000 1.0
C      1  0.5176740000000  0.5807400000000  0.5614740000000 1.0
C      1  0.5201440000000  0.4436500000000  0.5910470000000 1.0
C      1  0.5605110000000  0.4250790000000  0.5664160000000 1.0
C      1  0.5586940000000  0.5604760000000  0.5743690000000 1.0
C      1  0.5525620000000  0.5703290000000  0.4429450000000 1.0
C      1  0.5513800000000  0.4380930000000  0.4305210000000 1.0
C      1  0.4361980000000  0.4344380000000  0.4350230000000 1.0
C      1  0.4441370000000  0.5555140000000  0.4219990000000 1.0
C      1  0.4438080000000  0.5691700000000  0.5549030000000 1.0
C      1  0.4481950000000  0.4403170000000  0.5669140000000 1.0
C      1  0.4935550000000  0.5800100000000  0.5477450000000 1.0
C      1  0.4961280000000  0.5466140000000  0.4017390000000 1.0
C      1  0.4814530000000  0.4206610000000  0.4504600000000 1.0
C      1  0.4913570000000  0.4477250000000  0.5924600000000 1.0
C      1  0.5032940000000  0.5847140000000  0.4497690000000 1.0
C      1  0.5106620000000  0.5534320000000  0.5998770000000 1.0
C      1  0.5164390000000  0.4124740000000  0.5520350000000 1.0
C      1  0.5078810000000  0.4447750000000  0.4038580000000 1.0
C      1  0.5950700000000  0.4524120000000  0.5174660000000 1.0
C      1  0.5758870000000  0.5109970000000  0.5528600000000 1.0
C      1  0.5825580000000  0.5464850000000  0.4862260000000 1.0
C      1  0.5860820000000  0.4836650000000  0.4464870000000 1.0
C      1  0.4112100000000  0.4495580000000  0.4838230000000 1.0
C      1  0.4206860000000  0.5141600000000  0.4537310000000 1.0
C      1  0.4136650000000  0.5519340000000  0.5141400000000 1.0
C      1  0.4025770000000  0.4825800000000  0.5442050000000 1.0
C      1  0.5202270000000  0.5242290000000  0.5084220000000 1.0
C      1  0.5227910000000  0.5162620000000  0.4470140000000 1.0
C      1  0.5171070000000  0.4722360000000  0.5007660000000 1.0
C      1  0.5139520000000  0.4990740000000  0.5215660000000 1.0
C      1  0.4802070000000  0.5242870000000  0.4893840000000 1.0
C      1  0.4842780000000  0.4973000000000  0.5257920000000 1.0
C      1  0.4735660000000  0.4795020000000  0.5066440000000 1.0
C      1  0.4774550000000  0.4941990000000  0.4819270000000 1.0
C      1  0.4346700000000  0.5354870000000  0.4053160000000 1.0
C      1  0.4325600000000  0.4142810000000  0.4540230000000 1.0
C      1  0.4368730000000  0.4551400000000  0.5874560000000 1.0
C      1  0.4335010000000  0.5914150000000  0.5391860000000 1.0
C      1  0.5728790000000  0.5497790000000  0.5956600000000 1.0
C      1  0.5642230000000  0.4064820000000  0.5455500000000 1.0
C      1  0.5617140000000  0.4539040000000  0.4099400000000 1.0
C      1  0.5561640000000  0.5894360000000  0.4629950000000 1.0
C      1  0.4898110000000  0.5416530000000  0.4674630000000 1.0
C      1  0.4945840000000  0.4807210000000  0.4327550000000 1.0
C      1  0.5096920000000  0.4538010000000  0.5269520000000 1.0
C      1  0.4964050000000  0.5196080000000  0.5688090000000 1.0
C      1  0.5178010000000  0.5443420000000  0.5287800000000 1.0
C      1  0.4912340000000  0.4880760000000  0.5673820000000 1.0
C      1  0.5051790000000  0.4602930000000  0.4754990000000 1.0
C      1  0.4986190000000  0.5109650000000  0.4318700000000 1.0
C      1  0.4222420000000  0.5393960000000  0.4657730000000 1.0
C      1  0.4043900000000  0.4675990000000  0.4621480000000 1.0
C      1  0.4106780000000  0.4564140000000  0.5332190000000 1.0
C      1  0.4097900000000  0.5342130000000  0.5375790000000 1.0
C      1  0.5799040000000  0.5330330000000  0.5356680000000 1.0
C      1  0.5910230000000  0.4621540000000  0.5446500000000 1.0
C      1  0.5834080000000  0.4600650000000  0.4651320000000 1.0
C      1  0.5872540000000  0.5356160000000  0.4596490000000 1.0
C      1  0.5171000000000  0.4675870000000  0.4487920000000 1.0
C      1  0.5349410000000  0.4593520000000  0.5425650000000 1.0
C      1  0.5226450000000  0.5325590000000  0.5575850000000 1.0
C      1  0.5216650000000  0.5418670000000  0.4611200000000 1.0
C      1  0.4863310000000  0.4634780000000  0.5459010000000 1.0
C      1  0.4705880000000  0.4677460000000  0.4423240000000 1.0
C      1  0.4754360000000  0.5293730000000  0.4422960000000 1.0
C      1  0.4728790000000  0.5339130000000  0.5573870000000 1.0
C      1  0.5392900000000  0.4925120000000  0.4530580000000 1.0
C      1  0.5566920000000  0.4560210000000  0.5187360000000 1.0
C      1  0.5472020000000  0.5072760000000  0.5632600000000 1.0
C      1  0.5522430000000  0.5508240000000  0.4825670000000 1.0
C      1  0.4398470000000  0.4891960000000  0.5389400000000 1.0
C      1  0.4402950000000  0.4584140000000  0.4860740000000 1.0
C      1  0.4470400000000  0.5057460000000  0.4430140000000 1.0
C      1  0.4429500000000  0.5606380000000  0.5141440000000 1.0
C      1  0.4874550000000  0.4973560000000  0.6125640000000 1.0
C      1  0.4942290000000  0.5855880000000  0.4966630000000 1.0
C      1  0.5012130000000  0.4107890000000  0.4980860000000 1.0
C      1  0.4918060000000  0.4981050000000  0.3862890000000 1.0
C      1  0.3990560000000  0.5089380000000  0.4969590000000 1.0
C      1  0.5952160000000  0.4991160000000  0.4944280000000 1.0
END
