TITL C-3577090-796-747 -1.93064145268485e-06 125000 -623.889524051178 0 0 102 (C2h) n - 1
REM
REM in /home/bkarasulu/work/CARBON/AIRSS/Generating-Clusters/EDIP-Nigel-Params/with-SteepDescent/Higher-Symm/SD-CG/HFTN-CG
REM
REM
REM
REM
REM
REM ./C.cell (12c818d87b63d06a65506943cc24bca4)
REM
REM compiler GCC version 9.2.1 20190827 (Red Hat 9.2.1-1)
REM options -cpp -mtune=generic -march=x86-64 -g -O0 -fpre-include=/usr/include/finclude/math-vector-fortran.h
REM seed -1619878359 -708198919 -1765835371 -725355850 -1290939985 -1137086671 1034815815 126030981 1314294966 1693346523 840484416 -1199546862 776849055 -466851850 -392072266 1608799075 -293257663 331267781 1725956450 -749234983 -905574278 -155828298 2057619562 -1560840088 -777196646 1796042877 142563731 -1650764629 510948963 -934100230 1584295040 299968087 -454379520
REM
CELL 1.54180   50.00000   50.00000   50.00000   90.00000   90.00000   90.00000
LATT -1
SFAC C  
C      1  0.5159490000000  0.5042640000000  0.4859380000000 1.0
C      1  0.5159620000000  0.4956280000000  0.5140140000000 1.0
C      1  0.4839520000000  0.5043720000000  0.4859860000000 1.0
C      1  0.4839650000000  0.4957360000000  0.5140620000000 1.0
C      1  0.5603530000000  0.4683260000000  0.5177140000000 1.0
C      1  0.5605130000000  0.5312640000000  0.4821050000000 1.0
C      1  0.4394010000000  0.4687360000000  0.5178950000000 1.0
C      1  0.4395600000000  0.5316740000000  0.4822860000000 1.0
C      1  0.5155100000000  0.4699010000000  0.5495840000000 1.0
C      1  0.5155650000000  0.5299940000000  0.4503690000000 1.0
C      1  0.4843490000000  0.4700060000000  0.5496310000000 1.0
C      1  0.4844040000000  0.5300990000000  0.4504160000000 1.0
C      1  0.4850760000000  0.4867240000000  0.4204210000000 1.0
C      1  0.4854050000000  0.5133760000000  0.5796230000000 1.0
C      1  0.5145090000000  0.4866240000000  0.4203770000000 1.0
C      1  0.5148370000000  0.5132760000000  0.5795790000000 1.0
C      1  0.4198480000000  0.4870480000000  0.5335570000000 1.0
C      1  0.4198370000000  0.5134940000000  0.4666830000000 1.0
C      1  0.5800760000000  0.4865060000000  0.5333170000000 1.0
C      1  0.5800660000000  0.5129520000000  0.4664430000000 1.0
C      1  0.4841820000000  0.4487750000000  0.4983970000000 1.0
C      1  0.4845350000000  0.5513310000000  0.5016500000000 1.0
C      1  0.5153790000000  0.4486690000000  0.4983500000000 1.0
C      1  0.5157310000000  0.5512250000000  0.5016030000000 1.0
C      1  0.5664330000000  0.5234830000000  0.5110500000000 1.0
C      1  0.5662390000000  0.4760680000000  0.4887510000000 1.0
C      1  0.4336750000000  0.5239320000000  0.5112490000000 1.0
C      1  0.4334810000000  0.4765170000000  0.4889500000000 1.0
C      1  0.5736300000000  0.4999150000000  0.4407300000000 1.0
C      1  0.5738060000000  0.4995860000000  0.5590490000000 1.0
C      1  0.4261080000000  0.5004140000000  0.4409510000000 1.0
C      1  0.4262840000000  0.5000850000000  0.5592700000000 1.0
C      1  0.4856770000000  0.5548180000000  0.5548440000000 1.0
C      1  0.4851420000000  0.4452800000000  0.4452000000000 1.0
C      1  0.5147720000000  0.5547200000000  0.5548000000000 1.0
C      1  0.5142360000000  0.4451820000000  0.4451560000000 1.0
C      1  0.5231880000000  0.4093050000000  0.5155920000000 1.0
C      1  0.5237540000000  0.5905360000000  0.4843380000000 1.0
C      1  0.4761590000000  0.4094640000000  0.5156620000000 1.0
C      1  0.4767260000000  0.5906950000000  0.4844080000000 1.0
C      1  0.5219700000000  0.4590700000000  0.4699060000000 1.0
C      1  0.5223370000000  0.5407800000000  0.5300280000000 1.0
C      1  0.4775770000000  0.4592200000000  0.4699720000000 1.0
C      1  0.4779440000000  0.5409300000000  0.5300940000000 1.0
C      1  0.4615820000000  0.5813050000000  0.5074180000000 1.0
C      1  0.4610100000000  0.4189560000000  0.4926980000000 1.0
C      1  0.5389040000000  0.5810440000000  0.5073020000000 1.0
C      1  0.5383320000000  0.4186950000000  0.4925820000000 1.0
C      1  0.5297880000000  0.4957340000000  0.5603130000000 1.0
C      1  0.5296360000000  0.5040640000000  0.4395980000000 1.0
C      1  0.4702780000000  0.4959360000000  0.5604020000000 1.0
C      1  0.4701250000000  0.5042660000000  0.4396870000000 1.0
C      1  0.4345390000000  0.5349630000000  0.5535320000000 1.0
C      1  0.4341440000000  0.4654820000000  0.4466650000000 1.0
C      1  0.5657700000000  0.5345180000000  0.5533350000000 1.0
C      1  0.5653750000000  0.4650370000000  0.4464680000000 1.0
C      1  0.5534700000000  0.4829960000000  0.5726720000000 1.0
C      1  0.5533660000000  0.5166420000000  0.4271680000000 1.0
C      1  0.4465480000000  0.4833580000000  0.5728320000000 1.0
C      1  0.4464440000000  0.5170040000000  0.4273280000000 1.0
C      1  0.4357850000000  0.5680010000000  0.5078150000000 1.0
C      1  0.4353030000000  0.4324350000000  0.4923780000000 1.0
C      1  0.5646110000000  0.5675650000000  0.5076220000000 1.0
C      1  0.5641280000000  0.4319990000000  0.4921850000000 1.0
C      1  0.4284410000000  0.4420890000000  0.5179450000000 1.0
C      1  0.4287810000000  0.5583950000000  0.4822690000000 1.0
C      1  0.5711320000000  0.4416050000000  0.5177310000000 1.0
C      1  0.5714730000000  0.5579110000000  0.4820550000000 1.0
C      1  0.5897890000000  0.4939120000000  0.4864450000000 1.0
C      1  0.5898680000000  0.5054790000000  0.5132850000000 1.0
C      1  0.4100450000000  0.4945210000000  0.4867150000000 1.0
C      1  0.4101250000000  0.5060880000000  0.5135550000000 1.0
C      1  0.5322980000000  0.4366890000000  0.5598430000000 1.0
C      1  0.5325470000000  0.5630920000000  0.4400600000000 1.0
C      1  0.4673670000000  0.4369080000000  0.5599400000000 1.0
C      1  0.4676160000000  0.5633110000000  0.4401570000000 1.0
C      1  0.5439550000000  0.5210490000000  0.5354680000000 1.0
C      1  0.5437050000000  0.4786540000000  0.4644010000000 1.0
C      1  0.4562080000000  0.5213460000000  0.5355990000000 1.0
C      1  0.4559580000000  0.4789510000000  0.4645320000000 1.0
C      1  0.4769870000000  0.5405870000000  0.5781090000000 1.0
C      1  0.4764780000000  0.4595700000000  0.4219610000000 1.0
C      1  0.5234350000000  0.5404300000000  0.5780390000000 1.0
C      1  0.5229270000000  0.4594130000000  0.4218910000000 1.0
C      1  0.5270700000000  0.4688570000000  0.5199660000000 1.0
C      1  0.5272200000000  0.5309590000000  0.4799530000000 1.0
C      1  0.4726940000000  0.4690410000000  0.5200470000000 1.0
C      1  0.4728440000000  0.5311430000000  0.4800340000000 1.0
C      1  0.5525960000000  0.5445890000000  0.4324320000000 1.0
C      1  0.5524950000000  0.4550550000000  0.5674100000000 1.0
C      1  0.4474190000000  0.5449450000000  0.4325900000000 1.0
C      1  0.4473180000000  0.4554110000000  0.5675680000000 1.0
C      1  0.4847130000000  0.4275740000000  0.5375350000000 1.0
C      1  0.4850910000000  0.5725280000000  0.4625100000000 1.0
C      1  0.5148230000000  0.4274720000000  0.5374900000000 1.0
C      1  0.5152010000000  0.5724260000000  0.4624650000000 1.0
C      1  0.5755660000000  0.5541140000000  0.5322380000000 1.0
C      1  0.5751010000000  0.4453750000000  0.4675360000000 1.0
C      1  0.4248130000000  0.5546250000000  0.5324640000000 1.0
C      1  0.4243480000000  0.4458860000000  0.4677620000000 1.0
C      1  0.4996160000000  0.3956090000000  0.5081360000000 1.0
C      1  0.5002980000000  0.6043910000000  0.4918640000000 1.0
END
