TITL C-3577089-586-234 -1.56532274947894e-05 125000 -140.356067731357 0 0 25 (C1) n - 1
REM
REM in /home/bkarasulu/work/CARBON/AIRSS/Generating-Clusters/EDIP-Nigel-Params/with-SteepDescent/Higher-Symm/SD-CG/HFTN-CG
REM
REM
REM
REM
REM
REM ./C.cell (12c818d87b63d06a65506943cc24bca4)
REM
REM compiler GCC version 9.2.1 20190827 (Red Hat 9.2.1-1)
REM options -cpp -mtune=generic -march=x86-64 -g -O0 -fpre-include=/usr/include/finclude/math-vector-fortran.h
REM seed -156944557 1650300551 558825167 374580687 1804898183 632533958 1402664267 500465503 -1605675527 -182631315 -309258498 -1633983664 1151811386 360698682 1771780716 -216476888 -334343803 1052616289 42010555 -130116452 429171040 359387936 1060543701 -2089316758 -958352169 -667157546 -1312427998 1407693565 -476915336 1391884424 -1444647162 1249304685 -1816946311
REM
CELL 1.54180   50.00000   50.00000   50.00000   90.00000   90.00000   90.00000
LATT -1
SFAC C  
C      1  0.5540260000000  0.5098530000000  0.5331200000000 1.0
C      1  0.5655560000000  0.5336300000000  0.5061250000000 1.0
C      1  0.5661460000000  0.5238020000000  0.4789810000000 1.0
C      1  0.5659820000000  0.4873200000000  0.4697640000000 1.0
C      1  0.5735790000000  0.4630820000000  0.4807230000000 1.0
C      1  0.5594220000000  0.4604890000000  0.5043030000000 1.0
C      1  0.5526150000000  0.4813290000000  0.5354520000000 1.0
C      1  0.4378640000000  0.4791960000000  0.4999130000000 1.0
C      1  0.4621620000000  0.4795370000000  0.5171350000000 1.0
C      1  0.4601880000000  0.5016240000000  0.5372690000000 1.0
C      1  0.4632910000000  0.5271270000000  0.5218700000000 1.0
C      1  0.4391140000000  0.5319970000000  0.5051700000000 1.0
C      1  0.4421680000000  0.5223340000000  0.4774590000000 1.0
C      1  0.4414970000000  0.4939770000000  0.4746350000000 1.0
C      1  0.5298370000000  0.4609840000000  0.5045430000000 1.0
C      1  0.5264920000000  0.4691250000000  0.5322390000000 1.0
C      1  0.5295710000000  0.5248850000000  0.5292640000000 1.0
C      1  0.5386480000000  0.5450360000000  0.5112800000000 1.0
C      1  0.5382190000000  0.5220140000000  0.4692940000000 1.0
C      1  0.5374190000000  0.4928120000000  0.4656870000000 1.0
C      1  0.5174660000000  0.4814600000000  0.4857840000000 1.0
C      1  0.4228250000000  0.5055080000000  0.5071510000000 1.0
C      1  0.5044110000000  0.5043210000000  0.5000000000000 1.0
C      1  0.4742950000000  0.5048870000000  0.5011650000000 1.0
C      1  0.5192020000000  0.5301120000000  0.4917260000000 1.0
END
