TITL C-3577087-600-341 2.06132293696485e-07 125000 -272.034739172658 0 0 44 (C1) n - 1
REM
REM in /home/bkarasulu/work/CARBON/AIRSS/Generating-Clusters/EDIP-Nigel-Params/with-SteepDescent/Higher-Symm/SD-CG/HFTN-CG
REM
REM
REM
REM
REM
REM ./C.cell (12c818d87b63d06a65506943cc24bca4)
REM
REM compiler GCC version 9.2.1 20190827 (Red Hat 9.2.1-1)
REM options -cpp -mtune=generic -march=x86-64 -g -O0 -fpre-include=/usr/include/finclude/math-vector-fortran.h
REM seed -727414097 899249617 -1633500011 1199662114 -1306080377 1968353236 -421406102 1895873524 -143040419 101955419 -1932160287 -641972498 -1525769024 797083083 659838141 1223177317 -813612336 1673021492 747925016 2048234400 -1732824521 2036994569 281221112 1414400438 -1724874366 -1008892078 1944273892 1861339828 1361922164 -130794456 -2093897213 1998778504 -1072611663
REM
CELL 1.54180   50.00000   50.00000   50.00000   90.00000   90.00000   90.00000
LATT -1
SFAC C  
C      1  0.4308290000000  0.5130750000000  0.4680880000000 1.0
C      1  0.4584400000000  0.5265230000000  0.5036730000000 1.0
C      1  0.4377850000000  0.5081150000000  0.5463670000000 1.0
C      1  0.4423600000000  0.4744500000000  0.5143360000000 1.0
C      1  0.4397430000000  0.4867730000000  0.4669060000000 1.0
C      1  0.4731550000000  0.5374740000000  0.5439710000000 1.0
C      1  0.4740740000000  0.4749290000000  0.5512350000000 1.0
C      1  0.4742170000000  0.4549230000000  0.4854220000000 1.0
C      1  0.4790510000000  0.4910960000000  0.4420610000000 1.0
C      1  0.4645540000000  0.5535220000000  0.4766590000000 1.0
C      1  0.5202270000000  0.5064470000000  0.4595100000000 1.0
C      1  0.5126430000000  0.5542840000000  0.4883060000000 1.0
C      1  0.5199340000000  0.5352030000000  0.5424550000000 1.0
C      1  0.5200320000000  0.4672070000000  0.5432090000000 1.0
C      1  0.5183650000000  0.4386890000000  0.4817390000000 1.0
C      1  0.4528290000000  0.4811720000000  0.4431780000000 1.0
C      1  0.4387410000000  0.5352190000000  0.4827220000000 1.0
C      1  0.4479040000000  0.5299100000000  0.5322610000000 1.0
C      1  0.4468470000000  0.4823580000000  0.5408110000000 1.0
C      1  0.4570860000000  0.4789990000000  0.4901250000000 1.0
C      1  0.4956020000000  0.5161710000000  0.5410280000000 1.0
C      1  0.4939960000000  0.4695950000000  0.5282650000000 1.0
C      1  0.4992630000000  0.4578680000000  0.4708860000000 1.0
C      1  0.4896760000000  0.5109230000000  0.4635990000000 1.0
C      1  0.4862040000000  0.5591010000000  0.5007920000000 1.0
C      1  0.4932680000000  0.4958740000000  0.5641890000000 1.0
C      1  0.4856630000000  0.4450310000000  0.5110210000000 1.0
C      1  0.5003430000000  0.4702340000000  0.4442790000000 1.0
C      1  0.4838880000000  0.5401080000000  0.4576040000000 1.0
C      1  0.4857460000000  0.5610790000000  0.5311580000000 1.0
C      1  0.5085430000000  0.5536090000000  0.4601460000000 1.0
C      1  0.5115430000000  0.5623130000000  0.5430930000000 1.0
C      1  0.5184150000000  0.4827860000000  0.5667950000000 1.0
C      1  0.5068230000000  0.4270700000000  0.5047670000000 1.0
C      1  0.5253020000000  0.4841620000000  0.4421080000000 1.0
C      1  0.5431240000000  0.4676090000000  0.5276640000000 1.0
C      1  0.5445690000000  0.4474450000000  0.4853820000000 1.0
C      1  0.5391950000000  0.5129900000000  0.4803840000000 1.0
C      1  0.5296040000000  0.5325040000000  0.4991440000000 1.0
C      1  0.5411060000000  0.5318540000000  0.5246940000000 1.0
C      1  0.4953530000000  0.4974910000000  0.5155630000000 1.0
C      1  0.5538090000000  0.4678110000000  0.5019920000000 1.0
C      1  0.4760010000000  0.5030310000000  0.4938220000000 1.0
C      1  0.5558610000000  0.4926240000000  0.4896810000000 1.0
END
