TITL C-3577087-600-726 -3.4290518580061e-06 125000 -1190.98335292085 0 0 188 (C1) n - 1
REM
REM in /home/bkarasulu/work/CARBON/AIRSS/Generating-Clusters/EDIP-Nigel-Params/with-SteepDescent/Higher-Symm/SD-CG/HFTN-CG
REM
REM
REM
REM
REM
REM ./C.cell (12c818d87b63d06a65506943cc24bca4)
REM
REM compiler GCC version 9.2.1 20190827 (Red Hat 9.2.1-1)
REM options -cpp -mtune=generic -march=x86-64 -g -O0 -fpre-include=/usr/include/finclude/math-vector-fortran.h
REM seed -521818145 262702256 688446551 -1237590187 -19675947 -680145679 -187485279 1468268146 -810474607 -1253507143 2093941591 -1025642649 -627038960 1577294416 1364934732 -1988625852 2137109565 2093914445 1678824729 -1565266282 -1271287746 459805060 -938173184 -1814528935 2136792790 1426298802 1041784513 734463111 -646421849 -1004881819 1852562504 -471011208 -1624352022
REM
CELL 1.54180   50.00000   50.00000   50.00000   90.00000   90.00000   90.00000
LATT -1
SFAC C  
C      1  0.5382680000000  0.5677580000000  0.5781860000000 1.0
C      1  0.5394430000000  0.5298250000000  0.4029050000000 1.0
C      1  0.5442350000000  0.3984510000000  0.5213450000000 1.0
C      1  0.5263210000000  0.5437910000000  0.6058250000000 1.0
C      1  0.5276850000000  0.5662580000000  0.4097790000000 1.0
C      1  0.5272240000000  0.3909670000000  0.4881990000000 1.0
C      1  0.5433090000000  0.4055590000000  0.4688680000000 1.0
C      1  0.5439140000000  0.5209230000000  0.6020020000000 1.0
C      1  0.5411530000000  0.5704730000000  0.4348800000000 1.0
C      1  0.5733330000000  0.4746060000000  0.5903460000000 1.0
C      1  0.5705300000000  0.5887120000000  0.4778930000000 1.0
C      1  0.5730830000000  0.4319650000000  0.4296930000000 1.0
C      1  0.5866410000000  0.5155420000000  0.4222290000000 1.0
C      1  0.5867540000000  0.4285180000000  0.5215000000000 1.0
C      1  0.5858240000000  0.5602800000000  0.5554600000000 1.0
C      1  0.5026840000000  0.5042440000000  0.6104140000000 1.0
C      1  0.5025280000000  0.5927310000000  0.4391860000000 1.0
C      1  0.5031930000000  0.4026080000000  0.4481710000000 1.0
C      1  0.5876170000000  0.4850880000000  0.5688270000000 1.0
C      1  0.5859400000000  0.5658610000000  0.4811700000000 1.0
C      1  0.5870680000000  0.4471940000000  0.4482860000000 1.0
C      1  0.4742370000000  0.3955700000000  0.4925200000000 1.0
C      1  0.4752660000000  0.5457690000000  0.5917180000000 1.0
C      1  0.4772620000000  0.5550590000000  0.4114140000000 1.0
C      1  0.5992500000000  0.5339450000000  0.5494880000000 1.0
C      1  0.5989680000000  0.5225620000000  0.4488540000000 1.0
C      1  0.5964190000000  0.4475890000000  0.5012400000000 1.0
C      1  0.5404120000000  0.4419180000000  0.5839860000000 1.0
C      1  0.5380090000000  0.6036870000000  0.5096470000000 1.0
C      1  0.5394430000000  0.4525770000000  0.4055070000000 1.0
C      1  0.5161080000000  0.4729170000000  0.5035170000000 1.0
C      1  0.5147010000000  0.5196050000000  0.5212010000000 1.0
C      1  0.5183260000000  0.5101280000000  0.4720250000000 1.0
C      1  0.5962130000000  0.4739750000000  0.4409520000000 1.0
C      1  0.5914770000000  0.4679400000000  0.5453680000000 1.0
C      1  0.5906650000000  0.5589830000000  0.5091830000000 1.0
C      1  0.4617540000000  0.5464690000000  0.4787010000000 1.0
C      1  0.4577090000000  0.4588890000000  0.4696180000000 1.0
C      1  0.4614680000000  0.4943870000000  0.5489660000000 1.0
C      1  0.6222230000000  0.4912970000000  0.4794820000000 1.0
C      1  0.6197270000000  0.4897340000000  0.5080840000000 1.0
C      1  0.6181710000000  0.5182850000000  0.5069450000000 1.0
C      1  0.4274430000000  0.4061550000000  0.5154590000000 1.0
C      1  0.4295410000000  0.5605460000000  0.5749340000000 1.0
C      1  0.4330800000000  0.5334700000000  0.4007910000000 1.0
C      1  0.4619920000000  0.5133340000000  0.5251240000000 1.0
C      1  0.4646620000000  0.5171710000000  0.4746400000000 1.0
C      1  0.4624430000000  0.4709430000000  0.4980360000000 1.0
C      1  0.4889720000000  0.4378610000000  0.5860930000000 1.0
C      1  0.4867700000000  0.6068940000000  0.5078080000000 1.0
C      1  0.4864640000000  0.4509520000000  0.3999860000000 1.0
C      1  0.4160920000000  0.5718610000000  0.5297170000000 1.0
C      1  0.4112880000000  0.4910660000000  0.4179300000000 1.0
C      1  0.4119780000000  0.4363370000000  0.5521260000000 1.0
C      1  0.5622620000000  0.5522940000000  0.5708560000000 1.0
C      1  0.5623320000000  0.5312530000000  0.4216270000000 1.0
C      1  0.5663870000000  0.4119130000000  0.5091170000000 1.0
C      1  0.4845880000000  0.4272990000000  0.4141010000000 1.0
C      1  0.4927660000000  0.4624540000000  0.5990520000000 1.0
C      1  0.4915230000000  0.6049170000000  0.4804030000000 1.0
C      1  0.5457940000000  0.4622330000000  0.5086640000000 1.0
C      1  0.5492240000000  0.5307040000000  0.5348930000000 1.0
C      1  0.5504120000000  0.5086510000000  0.4574890000000 1.0
C      1  0.4550800000000  0.4651120000000  0.5452880000000 1.0
C      1  0.4554450000000  0.5563910000000  0.5066440000000 1.0
C      1  0.4559950000000  0.4803370000000  0.4458580000000 1.0
C      1  0.5391400000000  0.5923190000000  0.5593170000000 1.0
C      1  0.5420880000000  0.5009660000000  0.3910730000000 1.0
C      1  0.5438820000000  0.4059040000000  0.5497190000000 1.0
C      1  0.5055570000000  0.4186040000000  0.5145100000000 1.0
C      1  0.5115330000000  0.5556640000000  0.5658150000000 1.0
C      1  0.5116940000000  0.5259500000000  0.4178560000000 1.0
C      1  0.3982410000000  0.5102670000000  0.4368910000000 1.0
C      1  0.3905080000000  0.4522060000000  0.5134180000000 1.0
C      1  0.3898480000000  0.5235220000000  0.5419620000000 1.0
C      1  0.5000600000000  0.3921730000000  0.4757960000000 1.0
C      1  0.4989490000000  0.5331100000000  0.6061920000000 1.0
C      1  0.5002310000000  0.5745450000000  0.4158000000000 1.0
C      1  0.4198410000000  0.4381400000000  0.4773660000000 1.0
C      1  0.4263730000000  0.5115000000000  0.5691730000000 1.0
C      1  0.4173380000000  0.5524070000000  0.4548210000000 1.0
C      1  0.4845770000000  0.5603170000000  0.5191050000000 1.0
C      1  0.4866100000000  0.4877580000000  0.4400250000000 1.0
C      1  0.4850790000000  0.4532910000000  0.5423000000000 1.0
C      1  0.4827290000000  0.5909350000000  0.5622280000000 1.0
C      1  0.4759170000000  0.5114750000000  0.3868500000000 1.0
C      1  0.4723560000000  0.3967110000000  0.5420730000000 1.0
C      1  0.5953630000000  0.5312520000000  0.5198270000000 1.0
C      1  0.5983130000000  0.4953330000000  0.4623520000000 1.0
C      1  0.5951200000000  0.4742910000000  0.5152670000000 1.0
C      1  0.5002510000000  0.4724600000000  0.5617130000000 1.0
C      1  0.5003650000000  0.5684050000000  0.4921710000000 1.0
C      1  0.4995650000000  0.4643010000000  0.4522210000000 1.0
C      1  0.4341700000000  0.5184250000000  0.5956760000000 1.0
C      1  0.4341730000000  0.5660370000000  0.4362900000000 1.0
C      1  0.4336080000000  0.4150340000000  0.4689580000000 1.0
C      1  0.4180280000000  0.4643890000000  0.4309130000000 1.0
C      1  0.4183790000000  0.4585930000000  0.5680310000000 1.0
C      1  0.4170780000000  0.5763390000000  0.5017500000000 1.0
C      1  0.5655630000000  0.5273060000000  0.5835200000000 1.0
C      1  0.5641540000000  0.5535120000000  0.4387620000000 1.0
C      1  0.5659230000000  0.4175880000000  0.4814890000000 1.0
C      1  0.5107200000000  0.5670360000000  0.5374480000000 1.0
C      1  0.5113930000000  0.4961730000000  0.4224410000000 1.0
C      1  0.5107470000000  0.4332500000000  0.5395540000000 1.0
C      1  0.4901630000000  0.5326460000000  0.3982940000000 1.0
C      1  0.4873970000000  0.3958890000000  0.5184280000000 1.0
C      1  0.4895890000000  0.5688380000000  0.5807880000000 1.0
C      1  0.3869470000000  0.4931570000000  0.5475490000000 1.0
C      1  0.3736640000000  0.5013410000000  0.5026460000000 1.0
C      1  0.3681660000000  0.5012800000000  0.4753050000000 1.0
C      1  0.5300700000000  0.4154190000000  0.4449410000000 1.0
C      1  0.5305340000000  0.4948400000000  0.6023440000000 1.0
C      1  0.5288560000000  0.5886500000000  0.4538770000000 1.0
C      1  0.4884530000000  0.4595100000000  0.5110670000000 1.0
C      1  0.4870130000000  0.5308200000000  0.5288540000000 1.0
C      1  0.4901460000000  0.5120530000000  0.4581620000000 1.0
C      1  0.4567320000000  0.4927490000000  0.3935030000000 1.0
C      1  0.4552080000000  0.4143230000000  0.5545370000000 1.0
C      1  0.4598160000000  0.5870270000000  0.5443070000000 1.0
C      1  0.4454520000000  0.4050420000000  0.4923570000000 1.0
C      1  0.4458790000000  0.5439180000000  0.5921860000000 1.0
C      1  0.4475510000000  0.5538860000000  0.4142920000000 1.0
C      1  0.5514940000000  0.5851230000000  0.5310540000000 1.0
C      1  0.5538150000000  0.4805050000000  0.4115700000000 1.0
C      1  0.5539120000000  0.4343900000000  0.5564410000000 1.0
C      1  0.4814230000000  0.4888260000000  0.5977480000000 1.0
C      1  0.4809010000000  0.5896190000000  0.4586250000000 1.0
C      1  0.4812180000000  0.4198960000000  0.4407760000000 1.0
C      1  0.5278360000000  0.4644230000000  0.4560210000000 1.0
C      1  0.5270340000000  0.4786110000000  0.5516580000000 1.0
C      1  0.5281110000000  0.5572140000000  0.4924580000000 1.0
C      1  0.4411280000000  0.5061740000000  0.4590240000000 1.0
C      1  0.4392840000000  0.4640530000000  0.5174000000000 1.0
C      1  0.4367090000000  0.5322590000000  0.5224080000000 1.0
C      1  0.4175470000000  0.4422560000000  0.5069400000000 1.0
C      1  0.4185740000000  0.5332490000000  0.5499160000000 1.0
C      1  0.4246210000000  0.5265420000000  0.4407490000000 1.0
C      1  0.4843900000000  0.4978000000000  0.5683260000000 1.0
C      1  0.4854670000000  0.5608070000000  0.4667590000000 1.0
C      1  0.4836730000000  0.4419060000000  0.4626460000000 1.0
C      1  0.3925560000000  0.4975110000000  0.4626830000000 1.0
C      1  0.3913830000000  0.4812300000000  0.5185340000000 1.0
C      1  0.3867250000000  0.5259200000000  0.5123750000000 1.0
C      1  0.4195800000000  0.4632560000000  0.4617020000000 1.0
C      1  0.4157380000000  0.4864460000000  0.5554130000000 1.0
C      1  0.4179580000000  0.5517770000000  0.4842480000000 1.0
C      1  0.4414440000000  0.5914240000000  0.4982550000000 1.0
C      1  0.4424810000000  0.4546430000000  0.4195440000000 1.0
C      1  0.4436870000000  0.4543470000000  0.5805450000000 1.0
C      1  0.5043870000000  0.4342500000000  0.4875750000000 1.0
C      1  0.5044850000000  0.5230210000000  0.5634810000000 1.0
C      1  0.5073670000000  0.5446140000000  0.4469770000000 1.0
C      1  0.5280070000000  0.5094020000000  0.5484820000000 1.0
C      1  0.5325780000000  0.5405820000000  0.4663760000000 1.0
C      1  0.5331570000000  0.4466100000000  0.4806620000000 1.0
C      1  0.5160770000000  0.4887930000000  0.3851640000000 1.0
C      1  0.5178770000000  0.4046580000000  0.5628390000000 1.0
C      1  0.5106270000000  0.6033060000000  0.5516300000000 1.0
C      1  0.4330060000000  0.5052440000000  0.4030230000000 1.0
C      1  0.4303360000000  0.4180470000000  0.5414070000000 1.0
C      1  0.4347380000000  0.5742490000000  0.5505210000000 1.0
C      1  0.4217230000000  0.4875120000000  0.5209120000000 1.0
C      1  0.4144070000000  0.5257580000000  0.4995380000000 1.0
C      1  0.4183560000000  0.4982760000000  0.4792980000000 1.0
C      1  0.5150570000000  0.4252610000000  0.5827300000000 1.0
C      1  0.5112970000000  0.6087410000000  0.5226080000000 1.0
C      1  0.5131360000000  0.4618600000000  0.3947430000000 1.0
C      1  0.5361240000000  0.4529070000000  0.5380400000000 1.0
C      1  0.5365770000000  0.5582450000000  0.5224880000000 1.0
C      1  0.5375160000000  0.4873890000000  0.4381160000000 1.0
C      1  0.5828180000000  0.4400570000000  0.5483110000000 1.0
C      1  0.5812370000000  0.5767470000000  0.5309650000000 1.0
C      1  0.5838130000000  0.4862570000000  0.4171620000000 1.0
C      1  0.4612200000000  0.5982990000000  0.5180770000000 1.0
C      1  0.4628530000000  0.4671260000000  0.4043270000000 1.0
C      1  0.4624140000000  0.4333390000000  0.5748920000000 1.0
C      1  0.5461870000000  0.4285750000000  0.4227360000000 1.0
C      1  0.5466800000000  0.4691200000000  0.5971800000000 1.0
C      1  0.5437460000000  0.5968160000000  0.4798940000000 1.0
C      1  0.5825960000000  0.4403790000000  0.4759330000000 1.0
C      1  0.5847520000000  0.5138080000000  0.5665590000000 1.0
C      1  0.5826340000000  0.5459860000000  0.4598760000000 1.0
C      1  0.5692830000000  0.5166010000000  0.5174780000000 1.0
C      1  0.5714090000000  0.4951870000000  0.4757390000000 1.0
C      1  0.5689960000000  0.4885450000000  0.5049970000000 1.0
C      1  0.4650970000000  0.5003610000000  0.4990280000000 1.0
C      1  0.5161830000000  0.5011940000000  0.4991620000000 1.0
END
