TITL C-3578202-4305-560 -7.45277899717258e-07 125000 -233.776687334375 0 0 40 (C1) n - 1
REM
REM in /home/bkarasulu/work/CARBON/AIRSS/Generating-Clusters/EDIP-Nigel-Params/with-SteepDescent/Higher-Symm/SD-CG/HFTN-CG
REM
REM
REM
REM
REM
REM ./C.cell (12c818d87b63d06a65506943cc24bca4)
REM
REM compiler GCC version 9.2.1 20190827 (Red Hat 9.2.1-1)
REM options -cpp -mtune=generic -march=x86-64 -g -O0 -fpre-include=/usr/include/finclude/math-vector-fortran.h
REM seed -1058910429 -1451460809 -485710132 284665628 -1103491881 -1784750118 1350782069 173102937 -838235015 -926361319 -1248311683 -687438010 1059557106 -1553030642 391035858 25828895 -2059053355 606059854 1554408763 -455384369 165602509 -1869024628 1656993867 -573445275 -1020887398 1384696837 -1492103782 273975328 -2120425794 -1971047325 -1283515669 1277647124 2058901487
REM
CELL 1.54180   50.00000   50.00000   50.00000   90.00000   90.00000   90.00000
LATT -1
SFAC C  
C      1  0.5032420000000  0.5488750000000  0.4523860000000 1.0
C      1  0.5284120000000  0.5377150000000  0.4593900000000 1.0
C      1  0.5420660000000  0.5475340000000  0.4824980000000 1.0
C      1  0.5470230000000  0.5400300000000  0.5096450000000 1.0
C      1  0.5305520000000  0.5516150000000  0.5302090000000 1.0
C      1  0.5087720000000  0.5402090000000  0.5450770000000 1.0
C      1  0.4821590000000  0.5504830000000  0.5417970000000 1.0
C      1  0.4591630000000  0.5405280000000  0.5279150000000 1.0
C      1  0.4542570000000  0.5500580000000  0.5016780000000 1.0
C      1  0.4569060000000  0.5394310000000  0.4755730000000 1.0
C      1  0.4764300000000  0.5497040000000  0.4578280000000 1.0
C      1  0.4517250000000  0.4976560000000  0.5032830000000 1.0
C      1  0.4559890000000  0.5103670000000  0.4762820000000 1.0
C      1  0.4673310000000  0.4964630000000  0.4532880000000 1.0
C      1  0.5054190000000  0.4958910000000  0.4462810000000 1.0
C      1  0.5290820000000  0.5084000000000  0.4577680000000 1.0
C      1  0.5449810000000  0.4952540000000  0.4788620000000 1.0
C      1  0.5494510000000  0.5111600000000  0.5124500000000 1.0
C      1  0.5349710000000  0.4982740000000  0.5351390000000 1.0
C      1  0.5101650000000  0.5109790000000  0.5472670000000 1.0
C      1  0.4839590000000  0.4970000000000  0.5498930000000 1.0
C      1  0.4568630000000  0.5115840000000  0.5290720000000 1.0
C      1  0.5349180000000  0.4688040000000  0.5341530000000 1.0
C      1  0.5101680000000  0.4582080000000  0.5431650000000 1.0
C      1  0.4838840000000  0.4680100000000  0.5471340000000 1.0
C      1  0.4640130000000  0.4591370000000  0.5288470000000 1.0
C      1  0.4530480000000  0.4684910000000  0.5043750000000 1.0
C      1  0.4610210000000  0.4571400000000  0.4795810000000 1.0
C      1  0.4713610000000  0.4677520000000  0.4551500000000 1.0
C      1  0.5007820000000  0.4675470000000  0.4499080000000 1.0
C      1  0.5189190000000  0.4525390000000  0.4695950000000 1.0
C      1  0.5430610000000  0.4663790000000  0.4824660000000 1.0
C      1  0.5459740000000  0.4591650000000  0.5098000000000 1.0
C      1  0.5047770000000  0.5300800000000  0.4992180000000 1.0
C      1  0.5069520000000  0.4309160000000  0.4848530000000 1.0
C      1  0.5051430000000  0.4786420000000  0.5023770000000 1.0
C      1  0.4951210000000  0.5039730000000  0.4962310000000 1.0
C      1  0.5002700000000  0.5769450000000  0.5134990000000 1.0
C      1  0.4972970000000  0.4508230000000  0.5020840000000 1.0
C      1  0.4976970000000  0.5572890000000  0.4960260000000 1.0
END
