TITL C-3577080-309-257 -1.74013327196723e-06 125000 -72.1718724521835 0 0 15 (C2v) n - 1
REM
REM in /home/bkarasulu/work/CARBON/AIRSS/Generating-Clusters/EDIP-Nigel-Params/with-SteepDescent/Higher-Symm/SD-CG/HFTN-CG
REM
REM
REM
REM
REM
REM ./C.cell (12c818d87b63d06a65506943cc24bca4)
REM
REM compiler GCC version 9.2.1 20190827 (Red Hat 9.2.1-1)
REM options -cpp -mtune=generic -march=x86-64 -g -O0 -fpre-include=/usr/include/finclude/math-vector-fortran.h
REM seed 1597084593 357100370 2130401071 -932933681 1416056035 -894827028 -107991934 -1800745989 1982430429 2030736018 1675955115 -1937428564 -1648766095 -339347323 857008379 915012672 -490564035 1895418644 -426530581 1900901552 2116234555 1399177556 2048691581 1931331739 -7140848 1695683092 -1965152707 357082121 1030650730 -1181821388 921518577 812361844 389219664
REM
CELL 1.54180   50.00000   50.00000   50.00000   90.00000   90.00000   90.00000
LATT -1
SFAC C  
C      1  0.5115410000000  0.5136660000000  0.4593090000000 1.0
C      1  0.5114210000000  0.4830790000000  0.5470740000000 1.0
C      1  0.5208850000000  0.5662950000000  0.5029280000000 1.0
C      1  0.5209380000000  0.4304580000000  0.5034840000000 1.0
C      1  0.4724810000000  0.4758520000000  0.5225830000000 1.0
C      1  0.4725220000000  0.5208620000000  0.4836830000000 1.0
C      1  0.4514080000000  0.5084400000000  0.4943800000000 1.0
C      1  0.4513900000000  0.4882570000000  0.5118220000000 1.0
C      1  0.5208140000000  0.4882610000000  0.5703670000000 1.0
C      1  0.5210090000000  0.5084920000000  0.4360440000000 1.0
C      1  0.5009880000000  0.4773940000000  0.5213030000000 1.0
C      1  0.5010250000000  0.5193430000000  0.4850490000000 1.0
C      1  0.5114760000000  0.5440080000000  0.4944180000000 1.0
C      1  0.5114860000000  0.4527370000000  0.5119660000000 1.0
C      1  0.5081960000000  0.4983710000000  0.5031870000000 1.0
END
