TITL C-3577078-809-92 -1.08090535965828e-06 125000 -773.025325440145 0 0 125 (C1) n - 1
REM
REM in /home/bkarasulu/work/CARBON/AIRSS/Generating-Clusters/EDIP-Nigel-Params/with-SteepDescent/Higher-Symm/SD-CG/HFTN-CG
REM
REM
REM
REM
REM
REM ./C.cell (12c818d87b63d06a65506943cc24bca4)
REM
REM compiler GCC version 9.2.1 20190827 (Red Hat 9.2.1-1)
REM options -cpp -mtune=generic -march=x86-64 -g -O0 -fpre-include=/usr/include/finclude/math-vector-fortran.h
REM seed 1645322342 -133108915 -694573935 183158834 1906133353 25828482 -246349386 -1623064274 -553318200 -386272717 1795003274 -787296394 1976714169 638788932 1685988592 362853743 1607083961 694433199 -1417218083 1358646975 -1764190671 949790408 1507411846 -1923961498 -125931681 1193154106 -1009423867 -628356329 1592923459 498650703 1206708286 24290171 -1281463769
REM
CELL 1.54180   50.00000   50.00000   50.00000   90.00000   90.00000   90.00000
LATT -1
SFAC C  
C      1  0.5832740000000  0.5254440000000  0.5457900000000 1.0
C      1  0.5871040000000  0.4521810000000  0.4986260000000 1.0
C      1  0.5793540000000  0.5238610000000  0.4671310000000 1.0
C      1  0.4888990000000  0.5343870000000  0.4579450000000 1.0
C      1  0.4855660000000  0.5096850000000  0.5460250000000 1.0
C      1  0.4837980000000  0.4523810000000  0.4824850000000 1.0
C      1  0.5120220000000  0.4070500000000  0.4817760000000 1.0
C      1  0.5092600000000  0.5621500000000  0.4196720000000 1.0
C      1  0.5093690000000  0.5332020000000  0.5868050000000 1.0
C      1  0.4228820000000  0.4816180000000  0.4512350000000 1.0
C      1  0.4217090000000  0.5513080000000  0.5078430000000 1.0
C      1  0.4236260000000  0.4697950000000  0.5441140000000 1.0
C      1  0.5382710000000  0.4293420000000  0.5146630000000 1.0
C      1  0.5410160000000  0.5315310000000  0.4240220000000 1.0
C      1  0.5362180000000  0.5489480000000  0.5525690000000 1.0
C      1  0.4466410000000  0.5026660000000  0.5762570000000 1.0
C      1  0.4396330000000  0.4364140000000  0.4632020000000 1.0
C      1  0.4437660000000  0.5601150000000  0.4649100000000 1.0
C      1  0.4901700000000  0.5838900000000  0.5318430000000 1.0
C      1  0.4909290000000  0.4268600000000  0.5542080000000 1.0
C      1  0.4878410000000  0.4875560000000  0.4035410000000 1.0
C      1  0.5171710000000  0.5919220000000  0.4900020000000 1.0
C      1  0.5177450000000  0.4532730000000  0.5888350000000 1.0
C      1  0.5092360000000  0.4433210000000  0.4128420000000 1.0
C      1  0.5079120000000  0.5789160000000  0.4420620000000 1.0
C      1  0.5123120000000  0.5054610000000  0.5933420000000 1.0
C      1  0.5058170000000  0.4128090000000  0.4547950000000 1.0
C      1  0.5031960000000  0.4699310000000  0.4946720000000 1.0
C      1  0.5089320000000  0.5155420000000  0.4686310000000 1.0
C      1  0.5046060000000  0.5133150000000  0.5248840000000 1.0
C      1  0.5511010000000  0.5048510000000  0.4266660000000 1.0
C      1  0.5636710000000  0.5752240000000  0.5459670000000 1.0
C      1  0.5626350000000  0.4260680000000  0.5344090000000 1.0
C      1  0.4110930000000  0.4689960000000  0.5172290000000 1.0
C      1  0.4162290000000  0.5044900000000  0.4690800000000 1.0
C      1  0.4155160000000  0.5244380000000  0.5205450000000 1.0
C      1  0.4374310000000  0.4968260000000  0.5477050000000 1.0
C      1  0.4384780000000  0.4658570000000  0.4694280000000 1.0
C      1  0.4402630000000  0.5373130000000  0.4859260000000 1.0
C      1  0.4136160000000  0.5260650000000  0.5497740000000 1.0
C      1  0.4196050000000  0.4446400000000  0.5040270000000 1.0
C      1  0.4201240000000  0.5257750000000  0.4503860000000 1.0
C      1  0.5424410000000  0.5886290000000  0.5337650000000 1.0
C      1  0.5465320000000  0.4311080000000  0.5585270000000 1.0
C      1  0.5376160000000  0.4843450000000  0.4125330000000 1.0
C      1  0.5451930000000  0.5251320000000  0.4997570000000 1.0
C      1  0.5447710000000  0.4816550000000  0.5255640000000 1.0
C      1  0.5501150000000  0.4871630000000  0.4964070000000 1.0
C      1  0.5710160000000  0.5510980000000  0.4611160000000 1.0
C      1  0.5670580000000  0.5150520000000  0.5690120000000 1.0
C      1  0.5690850000000  0.4378960000000  0.4771360000000 1.0
C      1  0.5320440000000  0.4658110000000  0.4523740000000 1.0
C      1  0.5329830000000  0.5483400000000  0.5208090000000 1.0
C      1  0.5303660000000  0.4556090000000  0.5323060000000 1.0
C      1  0.5384290000000  0.5199760000000  0.5608270000000 1.0
C      1  0.5419040000000  0.4390930000000  0.4876370000000 1.0
C      1  0.5485640000000  0.5519780000000  0.4431720000000 1.0
C      1  0.4686890000000  0.4567160000000  0.5905910000000 1.0
C      1  0.4616890000000  0.4422160000000  0.4153940000000 1.0
C      1  0.4685330000000  0.5991020000000  0.4900060000000 1.0
C      1  0.5152820000000  0.5684030000000  0.4705300000000 1.0
C      1  0.5260130000000  0.4813660000000  0.5775590000000 1.0
C      1  0.5116420000000  0.4417400000000  0.4434710000000 1.0
C      1  0.4686510000000  0.5250680000000  0.4390570000000 1.0
C      1  0.4547020000000  0.5509700000000  0.5448720000000 1.0
C      1  0.4670600000000  0.4374100000000  0.5027820000000 1.0
C      1  0.4933230000000  0.4500970000000  0.6026310000000 1.0
C      1  0.4849770000000  0.4333130000000  0.4023290000000 1.0
C      1  0.4948510000000  0.6088130000000  0.4873650000000 1.0
C      1  0.5858560000000  0.5038950000000  0.5255190000000 1.0
C      1  0.5799140000000  0.4795110000000  0.4891370000000 1.0
C      1  0.5767080000000  0.5228120000000  0.4979970000000 1.0
C      1  0.5599450000000  0.4851630000000  0.5685810000000 1.0
C      1  0.5632480000000  0.4548540000000  0.4520210000000 1.0
C      1  0.5733210000000  0.5683800000000  0.4836700000000 1.0
C      1  0.4613900000000  0.5853600000000  0.4644680000000 1.0
C      1  0.4719510000000  0.4862580000000  0.5840320000000 1.0
C      1  0.4641450000000  0.4327060000000  0.4443670000000 1.0
C      1  0.4624670000000  0.4992510000000  0.4533000000000 1.0
C      1  0.4590210000000  0.5322480000000  0.5194270000000 1.0
C      1  0.4583100000000  0.4617500000000  0.5193760000000 1.0
C      1  0.5710330000000  0.4794910000000  0.5385630000000 1.0
C      1  0.5793050000000  0.4779810000000  0.4593510000000 1.0
C      1  0.5810470000000  0.5510410000000  0.5045720000000 1.0
C      1  0.4394430000000  0.5711620000000  0.5255290000000 1.0
C      1  0.4404310000000  0.4460720000000  0.5494190000000 1.0
C      1  0.4376670000000  0.4873110000000  0.4265300000000 1.0
C      1  0.5305220000000  0.5051940000000  0.5360960000000 1.0
C      1  0.5311860000000  0.4665550000000  0.4828250000000 1.0
C      1  0.5315320000000  0.5359960000000  0.4738240000000 1.0
C      1  0.5186580000000  0.4328890000000  0.5677630000000 1.0
C      1  0.5136610000000  0.4713330000000  0.4035280000000 1.0
C      1  0.5178910000000  0.5841210000000  0.5185670000000 1.0
C      1  0.4610590000000  0.5044350000000  0.5304200000000 1.0
C      1  0.4464100000000  0.4817450000000  0.4956790000000 1.0
C      1  0.4631490000000  0.5057250000000  0.4850500000000 1.0
C      1  0.4861480000000  0.5575000000000  0.4748330000000 1.0
C      1  0.4915270000000  0.4858320000000  0.5605920000000 1.0
C      1  0.4849820000000  0.4529170000000  0.4539750000000 1.0
C      1  0.4817840000000  0.5883080000000  0.4445680000000 1.0
C      1  0.4876110000000  0.4982200000000  0.6054630000000 1.0
C      1  0.4788680000000  0.4073330000000  0.4473210000000 1.0
C      1  0.5028600000000  0.5428120000000  0.5219170000000 1.0
C      1  0.5036490000000  0.4565050000000  0.5217030000000 1.0
C      1  0.5126070000000  0.4948480000000  0.4457900000000 1.0
C      1  0.4855320000000  0.4817200000000  0.4470920000000 1.0
C      1  0.4817040000000  0.5429900000000  0.5008950000000 1.0
C      1  0.4828090000000  0.4667540000000  0.5377960000000 1.0
C      1  0.5148780000000  0.5358210000000  0.4115150000000 1.0
C      1  0.5110720000000  0.5543340000000  0.5678620000000 1.0
C      1  0.5147220000000  0.4109200000000  0.5097420000000 1.0
C      1  0.4661480000000  0.5824480000000  0.5138450000000 1.0
C      1  0.4642200000000  0.4391960000000  0.5666780000000 1.0
C      1  0.4598390000000  0.4723040000000  0.4124850000000 1.0
C      1  0.5808470000000  0.4498430000000  0.5284820000000 1.0
C      1  0.5676290000000  0.5025180000000  0.4507440000000 1.0
C      1  0.5755720000000  0.5519210000000  0.5331550000000 1.0
C      1  0.4934450000000  0.5145550000000  0.4182190000000 1.0
C      1  0.4861960000000  0.5614410000000  0.5511750000000 1.0
C      1  0.4893640000000  0.4202330000000  0.5232400000000 1.0
C      1  0.4400930000000  0.4279860000000  0.4921270000000 1.0
C      1  0.4423830000000  0.5418160000000  0.4419330000000 1.0
C      1  0.4368700000000  0.5360770000000  0.5657070000000 1.0
C      1  0.4948880000000  0.5009360000000  0.4943010000000 1.0
C      1  0.4123490000000  0.4987000000000  0.5022620000000 1.0
END
