TITL C-3578207-9274-681 -1.25186699603654e-06 125000 -924.161844274327 0 0 145 (C1) n - 1
REM
REM in /home/bkarasulu/work/CARBON/AIRSS/Generating-Clusters/EDIP-Nigel-Params/with-SteepDescent/Higher-Symm/SD-CG/HFTN-CG
REM
REM
REM
REM
REM
REM ./C.cell (12c818d87b63d06a65506943cc24bca4)
REM
REM compiler GCC version 9.2.1 20190827 (Red Hat 9.2.1-1)
REM options -cpp -mtune=generic -march=x86-64 -g -O0 -fpre-include=/usr/include/finclude/math-vector-fortran.h
REM seed -1627274075 2127169783 -1359078995 1381394436 -756894083 -235229505 -434205452 -856158271 294984279 1892390006 1424372479 1128047116 -663513311 -973797145 -1364563381 1905099605 -99077268 88724384 -1967349653 -1416534131 736833088 1877128730 1879966888 -201547499 607733386 -689348248 -1938763698 -1904122524 -1177978320 194939455 1959970101 1872237549 1868809102
REM
CELL 1.54180   50.00000   50.00000   50.00000   90.00000   90.00000   90.00000
LATT -1
SFAC C  
C      1  0.4941210000000  0.5954840000000  0.4992980000000 1.0
C      1  0.5415850000000  0.5884650000000  0.5094480000000 1.0
C      1  0.5905380000000  0.5099510000000  0.4952470000000 1.0
C      1  0.5912140000000  0.4610740000000  0.5079540000000 1.0
C      1  0.5221510000000  0.4049800000000  0.4957260000000 1.0
C      1  0.4415800000000  0.4218340000000  0.5026030000000 1.0
C      1  0.4006310000000  0.4722700000000  0.4885340000000 1.0
C      1  0.4262240000000  0.5533140000000  0.5037830000000 1.0
C      1  0.4110600000000  0.5119700000000  0.5310870000000 1.0
C      1  0.4347140000000  0.5599170000000  0.4748850000000 1.0
C      1  0.5036340000000  0.5898530000000  0.5444680000000 1.0
C      1  0.5665860000000  0.5490470000000  0.4726260000000 1.0
C      1  0.5888780000000  0.5017770000000  0.5421010000000 1.0
C      1  0.5553110000000  0.4276250000000  0.4646880000000 1.0
C      1  0.5115010000000  0.4111580000000  0.5231620000000 1.0
C      1  0.4365480000000  0.4372940000000  0.4759690000000 1.0
C      1  0.5446170000000  0.4371510000000  0.4194670000000 1.0
C      1  0.4967640000000  0.4332570000000  0.5659200000000 1.0
C      1  0.4431650000000  0.4508760000000  0.4236980000000 1.0
C      1  0.4272250000000  0.5094730000000  0.5760270000000 1.0
C      1  0.4582880000000  0.5513350000000  0.4344490000000 1.0
C      1  0.5087690000000  0.5788310000000  0.5897720000000 1.0
C      1  0.5571820000000  0.5423340000000  0.4248690000000 1.0
C      1  0.5765790000000  0.4954500000000  0.5869480000000 1.0
C      1  0.5694440000000  0.4914060000000  0.4250810000000 1.0
C      1  0.5518960000000  0.4525090000000  0.5728740000000 1.0
C      1  0.4957370000000  0.4246770000000  0.4245300000000 1.0
C      1  0.4504510000000  0.4555630000000  0.5681510000000 1.0
C      1  0.4311000000000  0.5002770000000  0.4286490000000 1.0
C      1  0.4450550000000  0.5559390000000  0.5807780000000 1.0
C      1  0.5050970000000  0.5689640000000  0.4294400000000 1.0
C      1  0.5541580000000  0.5567280000000  0.5820320000000 1.0
C      1  0.5145850000000  0.5285800000000  0.4066150000000 1.0
C      1  0.5321670000000  0.5159670000000  0.5780800000000 1.0
C      1  0.5303200000000  0.4817690000000  0.4067000000000 1.0
C      1  0.5130110000000  0.4705870000000  0.5836010000000 1.0
C      1  0.4838510000000  0.4686800000000  0.4066530000000 1.0
C      1  0.4702310000000  0.4913810000000  0.5863330000000 1.0
C      1  0.4670350000000  0.5148300000000  0.4069560000000 1.0
C      1  0.4872630000000  0.5353730000000  0.5810570000000 1.0
C      1  0.4409530000000  0.4789420000000  0.4096320000000 1.0
C      1  0.4430870000000  0.5285750000000  0.5937510000000 1.0
C      1  0.4810690000000  0.5559930000000  0.4159260000000 1.0
C      1  0.5284080000000  0.5586850000000  0.5987820000000 1.0
C      1  0.5586410000000  0.5156950000000  0.4085580000000 1.0
C      1  0.5557800000000  0.4755150000000  0.5931510000000 1.0
C      1  0.5170180000000  0.4376370000000  0.4064730000000 1.0
C      1  0.4757060000000  0.4474630000000  0.5830420000000 1.0
C      1  0.4536710000000  0.4807300000000  0.5101510000000 1.0
C      1  0.4463260000000  0.5189030000000  0.4842850000000 1.0
C      1  0.4796160000000  0.5466450000000  0.5109310000000 1.0
C      1  0.5179200000000  0.5449560000000  0.4798210000000 1.0
C      1  0.5422120000000  0.5169360000000  0.5069530000000 1.0
C      1  0.5489890000000  0.4770650000000  0.4818420000000 1.0
C      1  0.5194340000000  0.4471530000000  0.5098830000000 1.0
C      1  0.4828790000000  0.4555430000000  0.4797200000000 1.0
C      1  0.4652420000000  0.4346080000000  0.4650110000000 1.0
C      1  0.4196070000000  0.4834090000000  0.5385590000000 1.0
C      1  0.4200530000000  0.5404410000000  0.4576920000000 1.0
C      1  0.4781040000000  0.5781680000000  0.5507330000000 1.0
C      1  0.5397330000000  0.5608620000000  0.4660060000000 1.0
C      1  0.5749760000000  0.5269210000000  0.5477380000000 1.0
C      1  0.5743620000000  0.4491000000000  0.4546000000000 1.0
C      1  0.5348100000000  0.4191090000000  0.5392840000000 1.0
C      1  0.4654870000000  0.4878990000000  0.3966970000000 1.0
C      1  0.4698510000000  0.5178830000000  0.5967980000000 1.0
C      1  0.4874200000000  0.5334620000000  0.3981220000000 1.0
C      1  0.5147630000000  0.5337870000000  0.5934010000000 1.0
C      1  0.5327540000000  0.5087720000000  0.3969720000000 1.0
C      1  0.5311060000000  0.4901920000000  0.5939260000000 1.0
C      1  0.5100880000000  0.4642500000000  0.3976400000000 1.0
C      1  0.4869840000000  0.4706340000000  0.5962650000000 1.0
C      1  0.4090900000000  0.5298260000000  0.5054030000000 1.0
C      1  0.4688140000000  0.5823650000000  0.5025080000000 1.0
C      1  0.5131360000000  0.5826450000000  0.5174780000000 1.0
C      1  0.5695480000000  0.5321440000000  0.4983430000000 1.0
C      1  0.5823530000000  0.4898650000000  0.5160100000000 1.0
C      1  0.5495110000000  0.4153200000000  0.4931320000000 1.0
C      1  0.4710550000000  0.4155980000000  0.5064180000000 1.0
C      1  0.4307130000000  0.4661150000000  0.4859310000000 1.0
C      1  0.4919500000000  0.5425020000000  0.4623190000000 1.0
C      1  0.5264750000000  0.5309700000000  0.5280610000000 1.0
C      1  0.5377830000000  0.5001480000000  0.4640030000000 1.0
C      1  0.5286950000000  0.4721220000000  0.5246960000000 1.0
C      1  0.5067230000000  0.4593670000000  0.4639510000000 1.0
C      1  0.4736530000000  0.4660540000000  0.5272320000000 1.0
C      1  0.4555120000000  0.4942790000000  0.4648420000000 1.0
C      1  0.4689660000000  0.5266140000000  0.5313390000000 1.0
C      1  0.5785430000000  0.5073070000000  0.4480060000000 1.0
C      1  0.5749610000000  0.4569730000000  0.5555150000000 1.0
C      1  0.5131630000000  0.4103000000000  0.4446080000000 1.0
C      1  0.4518930000000  0.4337710000000  0.5480340000000 1.0
C      1  0.4168840000000  0.4822920000000  0.4470370000000 1.0
C      1  0.4282010000000  0.5526280000000  0.5560000000000 1.0
C      1  0.4896500000000  0.5803090000000  0.4533580000000 1.0
C      1  0.5461370000000  0.5723720000000  0.5585240000000 1.0
C      1  0.4850670000000  0.4786980000000  0.5530990000000 1.0
C      1  0.4739420000000  0.4960060000000  0.4391530000000 1.0
C      1  0.4860730000000  0.5173280000000  0.5551020000000 1.0
C      1  0.4956160000000  0.5209570000000  0.4392280000000 1.0
C      1  0.5167020000000  0.5138510000000  0.5508440000000 1.0
C      1  0.5216940000000  0.5004980000000  0.4388340000000 1.0
C      1  0.5152790000000  0.4841110000000  0.5482100000000 1.0
C      1  0.5021040000000  0.4768780000000  0.4393250000000 1.0
C      1  0.4227930000000  0.4536550000000  0.4447270000000 1.0
C      1  0.4136050000000  0.5270840000000  0.5565590000000 1.0
C      1  0.4581840000000  0.5694790000000  0.4574500000000 1.0
C      1  0.5224770000000  0.5878420000000  0.5657810000000 1.0
C      1  0.5759810000000  0.5365530000000  0.4473490000000 1.0
C      1  0.5884790000000  0.4823660000000  0.5635900000000 1.0
C      1  0.5418080000000  0.4163020000000  0.4405640000000 1.0
C      1  0.4798700000000  0.4201600000000  0.5443390000000 1.0
C      1  0.5305950000000  0.4526560000000  0.4805610000000 1.0
C      1  0.4877980000000  0.4455900000000  0.5087220000000 1.0
C      1  0.4728660000000  0.4831230000000  0.4858560000000 1.0
C      1  0.4466720000000  0.5102470000000  0.5163180000000 1.0
C      1  0.4762380000000  0.5294250000000  0.4860530000000 1.0
C      1  0.5098690000000  0.5518050000000  0.5117910000000 1.0
C      1  0.5230560000000  0.5155050000000  0.4841840000000 1.0
C      1  0.5500970000000  0.4880490000000  0.5107290000000 1.0
C      1  0.5277580000000  0.4354210000000  0.5627300000000 1.0
C      1  0.4691390000000  0.4383210000000  0.4349690000000 1.0
C      1  0.4338480000000  0.4816580000000  0.5636370000000 1.0
C      1  0.4360510000000  0.5306520000000  0.4345200000000 1.0
C      1  0.4754030000000  0.5656040000000  0.5782720000000 1.0
C      1  0.5321700000000  0.5560020000000  0.4366900000000 1.0
C      1  0.5623520000000  0.5272930000000  0.5758630000000 1.0
C      1  0.5615840000000  0.4612190000000  0.4304070000000 1.0
C      1  0.5913350000000  0.4944140000000  0.4701340000000 1.0
C      1  0.5770980000000  0.4450570000000  0.5282800000000 1.0
C      1  0.5049230000000  0.4089510000000  0.4726430000000 1.0
C      1  0.4323110000000  0.4355500000000  0.5262610000000 1.0
C      1  0.4003140000000  0.4926910000000  0.4683630000000 1.0
C      1  0.4355570000000  0.5636640000000  0.5296780000000 1.0
C      1  0.5067900000000  0.5955310000000  0.4733120000000 1.0
C      1  0.5571050000000  0.5710400000000  0.5306470000000 1.0
C      1  0.5783630000000  0.4682530000000  0.4767940000000 1.0
C      1  0.5562560000000  0.4259480000000  0.5201740000000 1.0
C      1  0.4768740000000  0.4094620000000  0.4774000000000 1.0
C      1  0.4161400000000  0.4602830000000  0.5214560000000 1.0
C      1  0.4077360000000  0.5204600000000  0.4768430000000 1.0
C      1  0.4585100000000  0.5804250000000  0.5291170000000 1.0
C      1  0.5362580000000  0.5884460000000  0.4775670000000 1.0
C      1  0.5734910000000  0.5467410000000  0.5250510000000 1.0
C      1  0.4941730000000  0.5049820000000  0.4908900000000 1.0
END
