TITL C-3577080-309-139 -3.73734239216989e-07 125000 -326.435092123739 0 0 54 (C1) n - 1
REM
REM in /home/bkarasulu/work/CARBON/AIRSS/Generating-Clusters/EDIP-Nigel-Params/with-SteepDescent/Higher-Symm/SD-CG/HFTN-CG
REM
REM
REM
REM
REM
REM ./C.cell (12c818d87b63d06a65506943cc24bca4)
REM
REM compiler GCC version 9.2.1 20190827 (Red Hat 9.2.1-1)
REM options -cpp -mtune=generic -march=x86-64 -g -O0 -fpre-include=/usr/include/finclude/math-vector-fortran.h
REM seed 2096160084 -820383937 -96862986 1411323005 616394021 -690852995 -435256862 -1123154413 1301879226 -1019081103 -1770982438 -546964238 -1336024466 819483598 -286161535 -809448793 -649323457 2131677423 -1926892487 1261629937 503971358 973280123 1377442421 -43723563 1501243076 -1673606707 -283722725 230516729 882405160 -1818698915 -1681033222 1577269729 -710033470
REM
CELL 1.54180   50.00000   50.00000   50.00000   90.00000   90.00000   90.00000
LATT -1
SFAC C  
C      1  0.4294350000000  0.4939780000000  0.5461680000000 1.0
C      1  0.4593730000000  0.5525320000000  0.5347100000000 1.0
C      1  0.4843790000000  0.5669280000000  0.5410150000000 1.0
C      1  0.5387210000000  0.5315490000000  0.5303320000000 1.0
C      1  0.5603790000000  0.5114280000000  0.5293500000000 1.0
C      1  0.5545670000000  0.4831620000000  0.5223350000000 1.0
C      1  0.5371630000000  0.4643010000000  0.5358640000000 1.0
C      1  0.4854830000000  0.4393890000000  0.5245930000000 1.0
C      1  0.4385240000000  0.4659450000000  0.5454710000000 1.0
C      1  0.5350860000000  0.5078400000000  0.4292260000000 1.0
C      1  0.5349180000000  0.4813080000000  0.4376780000000 1.0
C      1  0.5139560000000  0.4659410000000  0.4280980000000 1.0
C      1  0.4881810000000  0.4633210000000  0.4379200000000 1.0
C      1  0.4695690000000  0.4806770000000  0.4270710000000 1.0
C      1  0.4641910000000  0.5068330000000  0.4284260000000 1.0
C      1  0.4746190000000  0.5289480000000  0.4413650000000 1.0
C      1  0.4991680000000  0.5377910000000  0.4319280000000 1.0
C      1  0.5247380000000  0.5311530000000  0.4403840000000 1.0
C      1  0.4649070000000  0.4697360000000  0.5574470000000 1.0
C      1  0.4526720000000  0.5057180000000  0.5593030000000 1.0
C      1  0.4668310000000  0.5265260000000  0.5459230000000 1.0
C      1  0.4974450000000  0.5463680000000  0.5570190000000 1.0
C      1  0.5239730000000  0.5351560000000  0.5552570000000 1.0
C      1  0.5270150000000  0.5144200000000  0.5734270000000 1.0
C      1  0.5167640000000  0.4898130000000  0.5711840000000 1.0
C      1  0.5135080000000  0.4718320000000  0.5505080000000 1.0
C      1  0.4883830000000  0.4580080000000  0.5456040000000 1.0
C      1  0.5005090000000  0.5593740000000  0.4957560000000 1.0
C      1  0.5424760000000  0.5530090000000  0.4822410000000 1.0
C      1  0.5691730000000  0.5120370000000  0.4859740000000 1.0
C      1  0.5629380000000  0.4648380000000  0.4751430000000 1.0
C      1  0.5204230000000  0.4400230000000  0.4953860000000 1.0
C      1  0.4800110000000  0.4322900000000  0.4755010000000 1.0
C      1  0.4476640000000  0.4604990000000  0.4949130000000 1.0
C      1  0.4369530000000  0.5094620000000  0.4973540000000 1.0
C      1  0.4563190000000  0.5502720000000  0.4816240000000 1.0
C      1  0.4873270000000  0.4598030000000  0.4677500000000 1.0
C      1  0.4655360000000  0.4761140000000  0.4805610000000 1.0
C      1  0.4596550000000  0.5042710000000  0.4822830000000 1.0
C      1  0.4730150000000  0.5288780000000  0.4713750000000 1.0
C      1  0.5001510000000  0.5342540000000  0.4834840000000 1.0
C      1  0.5271280000000  0.5308530000000  0.4703540000000 1.0
C      1  0.5422990000000  0.5063780000000  0.4787640000000 1.0
C      1  0.5384270000000  0.4788170000000  0.4674070000000 1.0
C      1  0.5148990000000  0.4642640000000  0.4799820000000 1.0
C      1  0.4243920000000  0.5043250000000  0.5205840000000 1.0
C      1  0.4513480000000  0.5557610000000  0.5078670000000 1.0
C      1  0.4979380000000  0.5747130000000  0.5178220000000 1.0
C      1  0.5418100000000  0.5511550000000  0.5099810000000 1.0
C      1  0.5796630000000  0.5200740000000  0.5101900000000 1.0
C      1  0.5697410000000  0.4720340000000  0.5010060000000 1.0
C      1  0.5339810000000  0.4420030000000  0.5196840000000 1.0
C      1  0.4943080000000  0.4284740000000  0.4999290000000 1.0
C      1  0.4379660000000  0.4554250000000  0.5194810000000 1.0
END
