TITL C-3578199-7832-358 -2.00334353853568e-06 125000 -706.924181628292 0 0 115 (C1) n - 1
REM
REM in /home/bkarasulu/work/CARBON/AIRSS/Generating-Clusters/EDIP-Nigel-Params/with-SteepDescent/Higher-Symm/SD-CG/HFTN-CG
REM
REM
REM
REM
REM
REM ./C.cell (12c818d87b63d06a65506943cc24bca4)
REM
REM compiler GCC version 9.2.1 20190827 (Red Hat 9.2.1-1)
REM options -cpp -mtune=generic -march=x86-64 -g -O0 -fpre-include=/usr/include/finclude/math-vector-fortran.h
REM seed -1880858524 1589969943 -2109445131 -1423596178 2042752219 1213380813 241605479 549619265 -2109352198 1454290665 830778064 673178462 -691390507 198080051 1830327062 -1193610930 1416325863 -1184627197 -647408892 -1749993878 -1048784759 -158261241 1941067624 710849600 -198211984 -1028158017 2052029962 -1375732742 -705030184 -1788590177 -2138899836 1681205991 75337892
REM
CELL 1.54180   50.00000   50.00000   50.00000   90.00000   90.00000   90.00000
LATT -1
SFAC C  
C      1  0.5440230000000  0.4335970000000  0.5317170000000 1.0
C      1  0.4195780000000  0.4968040000000  0.5313130000000 1.0
C      1  0.5373700000000  0.5728940000000  0.5350650000000 1.0
C      1  0.5699630000000  0.4935670000000  0.4445950000000 1.0
C      1  0.4634360000000  0.4478390000000  0.4436340000000 1.0
C      1  0.4742010000000  0.5530270000000  0.4466650000000 1.0
C      1  0.4970120000000  0.5472480000000  0.5483550000000 1.0
C      1  0.5434010000000  0.4795270000000  0.5458600000000 1.0
C      1  0.4601800000000  0.4739180000000  0.5469780000000 1.0
C      1  0.4218690000000  0.4729530000000  0.5145000000000 1.0
C      1  0.5155590000000  0.5810520000000  0.5167460000000 1.0
C      1  0.5659720000000  0.4458720000000  0.5169620000000 1.0
C      1  0.4838630000000  0.4240330000000  0.4494090000000 1.0
C      1  0.4437250000000  0.5515750000000  0.4473580000000 1.0
C      1  0.5808820000000  0.5202390000000  0.4407280000000 1.0
C      1  0.5125050000000  0.5272620000000  0.4651340000000 1.0
C      1  0.5340260000000  0.4702770000000  0.4818750000000 1.0
C      1  0.4584720000000  0.4967150000000  0.4714930000000 1.0
C      1  0.5469600000000  0.4640130000000  0.5883040000000 1.0
C      1  0.4436960000000  0.4805620000000  0.5884840000000 1.0
C      1  0.5096500000000  0.5574550000000  0.5902960000000 1.0
C      1  0.4896780000000  0.5062720000000  0.4300790000000 1.0
C      1  0.5162610000000  0.5175860000000  0.4199850000000 1.0
C      1  0.5002620000000  0.4815000000000  0.4408930000000 1.0
C      1  0.4367490000000  0.5059800000000  0.4254910000000 1.0
C      1  0.5366620000000  0.5624390000000  0.4219920000000 1.0
C      1  0.5277660000000  0.4421430000000  0.4294660000000 1.0
C      1  0.5532950000000  0.5447330000000  0.4409600000000 1.0
C      1  0.5131880000000  0.4279890000000  0.4496600000000 1.0
C      1  0.4332610000000  0.5241890000000  0.4478250000000 1.0
C      1  0.4283050000000  0.4780150000000  0.4318610000000 1.0
C      1  0.5157810000000  0.5779420000000  0.4373210000000 1.0
C      1  0.5545430000000  0.4499620000000  0.4388010000000 1.0
C      1  0.4383470000000  0.4285070000000  0.4851890000000 1.0
C      1  0.4688580000000  0.5883280000000  0.4874980000000 1.0
C      1  0.5963980000000  0.4879060000000  0.4855020000000 1.0
C      1  0.5012340000000  0.4816060000000  0.5937850000000 1.0
C      1  0.4843400000000  0.5073690000000  0.5938570000000 1.0
C      1  0.5147540000000  0.5089410000000  0.5942100000000 1.0
C      1  0.5110970000000  0.5716410000000  0.4661540000000 1.0
C      1  0.5575320000000  0.4560200000000  0.4694860000000 1.0
C      1  0.4262100000000  0.4690140000000  0.4608040000000 1.0
C      1  0.5667810000000  0.5573870000000  0.4671150000000 1.0
C      1  0.5280520000000  0.4108010000000  0.4657910000000 1.0
C      1  0.4091670000000  0.5240140000000  0.4629210000000 1.0
C      1  0.4447410000000  0.5659940000000  0.5236210000000 1.0
C      1  0.5845670000000  0.5167910000000  0.5226650000000 1.0
C      1  0.4686900000000  0.4198200000000  0.5246580000000 1.0
C      1  0.4825870000000  0.5716140000000  0.4692940000000 1.0
C      1  0.5790010000000  0.4773230000000  0.4667070000000 1.0
C      1  0.4384060000000  0.4428050000000  0.4610130000000 1.0
C      1  0.5337970000000  0.4514660000000  0.5525530000000 1.0
C      1  0.4406020000000  0.4966100000000  0.5522320000000 1.0
C      1  0.5260980000000  0.5528950000000  0.5539670000000 1.0
C      1  0.4869150000000  0.4509500000000  0.4836410000000 1.0
C      1  0.4569520000000  0.5316300000000  0.4839050000000 1.0
C      1  0.5536970000000  0.5175480000000  0.4776390000000 1.0
C      1  0.5399200000000  0.4145820000000  0.4907700000000 1.0
C      1  0.4172340000000  0.5121180000000  0.4872700000000 1.0
C      1  0.5497120000000  0.5588740000000  0.4919960000000 1.0
C      1  0.5219550000000  0.4277880000000  0.5128100000000 1.0
C      1  0.4187100000000  0.5221080000000  0.5160650000000 1.0
C      1  0.5593430000000  0.5595250000000  0.5204880000000 1.0
C      1  0.5241380000000  0.5040760000000  0.5431550000000 1.0
C      1  0.4924850000000  0.4779710000000  0.5462380000000 1.0
C      1  0.4845580000000  0.5185010000000  0.5464930000000 1.0
C      1  0.4466150000000  0.5731190000000  0.4949970000000 1.0
C      1  0.5855630000000  0.5137580000000  0.4918330000000 1.0
C      1  0.4615340000000  0.4174330000000  0.4959240000000 1.0
C      1  0.5415980000000  0.5270140000000  0.5562520000000 1.0
C      1  0.5033410000000  0.4497760000000  0.5565060000000 1.0
C      1  0.4548170000000  0.5230030000000  0.5550600000000 1.0
C      1  0.5260610000000  0.5103260000000  0.5114250000000 1.0
C      1  0.5026560000000  0.4730360000000  0.5186730000000 1.0
C      1  0.4810040000000  0.5145720000000  0.5168010000000 1.0
C      1  0.4967720000000  0.4273410000000  0.5340920000000 1.0
C      1  0.4403760000000  0.5375510000000  0.5306240000000 1.0
C      1  0.5632930000000  0.5337150000000  0.5340990000000 1.0
C      1  0.4871370000000  0.5422560000000  0.5021350000000 1.0
C      1  0.5468600000000  0.4925050000000  0.4975440000000 1.0
C      1  0.4636050000000  0.4689550000000  0.4993080000000 1.0
C      1  0.4790500000000  0.4697230000000  0.4584170000000 1.0
C      1  0.4843910000000  0.5243210000000  0.4546330000000 1.0
C      1  0.5347120000000  0.5201860000000  0.4464130000000 1.0
C      1  0.5278360000000  0.5790930000000  0.4892600000000 1.0
C      1  0.5634400000000  0.4335410000000  0.4893870000000 1.0
C      1  0.4193920000000  0.4832560000000  0.4865420000000 1.0
C      1  0.4457150000000  0.4335530000000  0.5667600000000 1.0
C      1  0.4681330000000  0.5794470000000  0.5656810000000 1.0
C      1  0.5855910000000  0.4888910000000  0.5635180000000 1.0
C      1  0.5182510000000  0.4687080000000  0.4223320000000 1.0
C      1  0.4639530000000  0.4971280000000  0.4140930000000 1.0
C      1  0.5142570000000  0.5449960000000  0.4082190000000 1.0
C      1  0.5590930000000  0.4832610000000  0.5701630000000 1.0
C      1  0.4546280000000  0.4594560000000  0.5718220000000 1.0
C      1  0.4864610000000  0.5595740000000  0.5726080000000 1.0
C      1  0.5880080000000  0.5351630000000  0.4664020000000 1.0
C      1  0.4815770000000  0.4132500000000  0.4767060000000 1.0
C      1  0.4327270000000  0.5601350000000  0.4735600000000 1.0
C      1  0.5276430000000  0.5346470000000  0.5919190000000 1.0
C      1  0.5186320000000  0.4586280000000  0.5913630000000 1.0
C      1  0.4555880000000  0.5068070000000  0.5906810000000 1.0
C      1  0.4675220000000  0.5789690000000  0.5371960000000 1.0
C      1  0.5858940000000  0.4901480000000  0.5350940000000 1.0
C      1  0.4452060000000  0.4315120000000  0.5384810000000 1.0
C      1  0.4532360000000  0.4653960000000  0.4187170000000 1.0
C      1  0.4923180000000  0.5635980000000  0.4224050000000 1.0
C      1  0.5553190000000  0.4767670000000  0.4258200000000 1.0
C      1  0.4906410000000  0.5641510000000  0.5240720000000 1.0
C      1  0.5624100000000  0.4766470000000  0.5218940000000 1.0
C      1  0.4473670000000  0.4587700000000  0.5236770000000 1.0
C      1  0.5179040000000  0.5362650000000  0.4924650000000 1.0
C      1  0.5134930000000  0.4545090000000  0.4982460000000 1.0
C      1  0.4554270000000  0.5008260000000  0.5059240000000 1.0
C      1  0.5012360000000  0.4974840000000  0.5059410000000 1.0
END
