TITL C-3578198-8939-659 -2.33669968295105e-06 125000 -1053.61216538327 0 0 171 (C1) n - 1
REM
REM in /home/bkarasulu/work/CARBON/AIRSS/Generating-Clusters/EDIP-Nigel-Params/with-SteepDescent/Higher-Symm/SD-CG/HFTN-CG
REM
REM
REM
REM
REM
REM ./C.cell (12c818d87b63d06a65506943cc24bca4)
REM
REM compiler GCC version 9.2.1 20190827 (Red Hat 9.2.1-1)
REM options -cpp -mtune=generic -march=x86-64 -g -O0 -fpre-include=/usr/include/finclude/math-vector-fortran.h
REM seed -268928209 -1021442264 -722018163 -1662939146 945420928 386913970 1673802803 946609930 103873138 -908994377 897666213 -738679738 1099890319 1477174434 -1326425085 427232682 1759632656 -724130347 -484674774 -957727580 879527509 134483815 1197294659 1611938070 1796850944 746766763 903180577 -305660650 -1055016036 2131136890 -2009509323 -1216955242 250042317
REM
CELL 1.54180   50.00000   50.00000   50.00000   90.00000   90.00000   90.00000
LATT -1
SFAC C  
C      1  0.4937360000000  0.4891780000000  0.5713070000000 1.0
C      1  0.4905860000000  0.5367850000000  0.5597520000000 1.0
C      1  0.4891470000000  0.5649180000000  0.5206100000000 1.0
C      1  0.4954220000000  0.5621210000000  0.4743490000000 1.0
C      1  0.4896440000000  0.5335960000000  0.4378520000000 1.0
C      1  0.4951710000000  0.4850710000000  0.4310130000000 1.0
C      1  0.4898600000000  0.4453010000000  0.4569450000000 1.0
C      1  0.4948360000000  0.4326390000000  0.5026190000000 1.0
C      1  0.4878720000000  0.4498390000000  0.5458940000000 1.0
C      1  0.5679170000000  0.5694330000000  0.5478590000000 1.0
C      1  0.5622640000000  0.5861990000000  0.4889630000000 1.0
C      1  0.5535540000000  0.5660450000000  0.4393500000000 1.0
C      1  0.5680380000000  0.5056850000000  0.4147570000000 1.0
C      1  0.5580810000000  0.4516770000000  0.4251640000000 1.0
C      1  0.5657050000000  0.4161320000000  0.4806190000000 1.0
C      1  0.5520640000000  0.4205360000000  0.5338320000000 1.0
C      1  0.5675690000000  0.4699650000000  0.5752880000000 1.0
C      1  0.5621820000000  0.5248370000000  0.5868710000000 1.0
C      1  0.5055020000000  0.4864210000000  0.6170260000000 1.0
C      1  0.5024640000000  0.5705200000000  0.5978170000000 1.0
C      1  0.5080440000000  0.6123760000000  0.5340790000000 1.0
C      1  0.5018550000000  0.6077540000000  0.4491570000000 1.0
C      1  0.5032790000000  0.5524880000000  0.3899600000000 1.0
C      1  0.5053300000000  0.4696860000000  0.3873850000000 1.0
C      1  0.5055420000000  0.3990210000000  0.4300750000000 1.0
C      1  0.5030950000000  0.3828620000000  0.5118970000000 1.0
C      1  0.5014350000000  0.4127020000000  0.5856890000000 1.0
C      1  0.4890410000000  0.3947350000000  0.5332850000000 1.0
C      1  0.4892160000000  0.4367240000000  0.5940990000000 1.0
C      1  0.4921400000000  0.5101430000000  0.6101130000000 1.0
C      1  0.4882530000000  0.5806110000000  0.5758830000000 1.0
C      1  0.4928580000000  0.6076290000000  0.5109090000000 1.0
C      1  0.4902990000000  0.5880760000000  0.4329820000000 1.0
C      1  0.4911600000000  0.5273390000000  0.3939110000000 1.0
C      1  0.4920760000000  0.4506800000000  0.4032230000000 1.0
C      1  0.4916970000000  0.4013090000000  0.4545190000000 1.0
C      1  0.5478990000000  0.5274290000000  0.5155110000000 1.0
C      1  0.5353330000000  0.5282120000000  0.4891670000000 1.0
C      1  0.5521590000000  0.5192940000000  0.4638240000000 1.0
C      1  0.5343540000000  0.4921610000000  0.4638670000000 1.0
C      1  0.5491390000000  0.4657220000000  0.4738250000000 1.0
C      1  0.5337530000000  0.4673980000000  0.5003600000000 1.0
C      1  0.5507120000000  0.4721530000000  0.5251870000000 1.0
C      1  0.5320260000000  0.4895670000000  0.5429970000000 1.0
C      1  0.5412250000000  0.5169310000000  0.5421850000000 1.0
C      1  0.4975160000000  0.5211410000000  0.5359830000000 1.0
C      1  0.4926320000000  0.5364560000000  0.5122990000000 1.0
C      1  0.5054990000000  0.5348420000000  0.4857080000000 1.0
C      1  0.4930070000000  0.5182600000000  0.4643000000000 1.0
C      1  0.5044270000000  0.4916230000000  0.4595120000000 1.0
C      1  0.4923620000000  0.4695730000000  0.4749300000000 1.0
C      1  0.5040630000000  0.4618600000000  0.5009290000000 1.0
C      1  0.4911980000000  0.4718850000000  0.5257730000000 1.0
C      1  0.5031520000000  0.4926970000000  0.5424250000000 1.0
C      1  0.4182960000000  0.5329500000000  0.4116750000000 1.0
C      1  0.4213900000000  0.4784920000000  0.4133340000000 1.0
C      1  0.4191490000000  0.4217630000000  0.4521700000000 1.0
C      1  0.4213710000000  0.4142120000000  0.5055480000000 1.0
C      1  0.4184540000000  0.4434720000000  0.5665190000000 1.0
C      1  0.4213840000000  0.4935100000000  0.5925150000000 1.0
C      1  0.4187530000000  0.5467330000000  0.5751190000000 1.0
C      1  0.4195780000000  0.5890160000000  0.5187310000000 1.0
C      1  0.4216270000000  0.5804790000000  0.4657430000000 1.0
C      1  0.5039500000000  0.4596890000000  0.5794120000000 1.0
C      1  0.5048760000000  0.5231850000000  0.5855200000000 1.0
C      1  0.5020730000000  0.5691980000000  0.5503590000000 1.0
C      1  0.5057860000000  0.5862510000000  0.4930950000000 1.0
C      1  0.5047450000000  0.5621320000000  0.4396270000000 1.0
C      1  0.5065810000000  0.5093360000000  0.4132170000000 1.0
C      1  0.5060740000000  0.4495070000000  0.4301160000000 1.0
C      1  0.5061100000000  0.4164510000000  0.4770550000000 1.0
C      1  0.5020710000000  0.4222690000000  0.5358200000000 1.0
C      1  0.4626250000000  0.5120390000000  0.6123600000000 1.0
C      1  0.4584100000000  0.5812690000000  0.5773850000000 1.0
C      1  0.4634080000000  0.6112280000000  0.5081610000000 1.0
C      1  0.4607890000000  0.5859180000000  0.4336570000000 1.0
C      1  0.4625300000000  0.5240470000000  0.3893370000000 1.0
C      1  0.4621950000000  0.4493700000000  0.4034350000000 1.0
C      1  0.4627810000000  0.3969540000000  0.4566060000000 1.0
C      1  0.4592140000000  0.3950430000000  0.5329270000000 1.0
C      1  0.4596660000000  0.4382440000000  0.5951890000000 1.0
C      1  0.4553140000000  0.3911750000000  0.4830280000000 1.0
C      1  0.4476190000000  0.4050600000000  0.5571220000000 1.0
C      1  0.4525750000000  0.4626990000000  0.6073860000000 1.0
C      1  0.4535130000000  0.5382890000000  0.6063920000000 1.0
C      1  0.4485350000000  0.5970040000000  0.5558400000000 1.0
C      1  0.4565800000000  0.6079240000000  0.4807760000000 1.0
C      1  0.4497780000000  0.5707050000000  0.4111390000000 1.0
C      1  0.4555710000000  0.4969200000000  0.3871430000000 1.0
C      1  0.4508540000000  0.4251410000000  0.4148970000000 1.0
C      1  0.4607770000000  0.5367300000000  0.5614600000000 1.0
C      1  0.4600510000000  0.5669120000000  0.5240400000000 1.0
C      1  0.4646490000000  0.5620510000000  0.4748180000000 1.0
C      1  0.4601390000000  0.5416300000000  0.4358520000000 1.0
C      1  0.4647030000000  0.4867010000000  0.4314820000000 1.0
C      1  0.4610000000000  0.4457710000000  0.4478320000000 1.0
C      1  0.4645750000000  0.4328760000000  0.5022110000000 1.0
C      1  0.4588910000000  0.4469010000000  0.5475380000000 1.0
C      1  0.4643400000000  0.4889240000000  0.5702480000000 1.0
C      1  0.5619050000000  0.4603960000000  0.3985540000000 1.0
C      1  0.5612950000000  0.4140920000000  0.4534010000000 1.0
C      1  0.5585320000000  0.3951050000000  0.5234260000000 1.0
C      1  0.5598940000000  0.4435090000000  0.5718420000000 1.0
C      1  0.5574370000000  0.5055100000000  0.6066830000000 1.0
C      1  0.5576960000000  0.5695130000000  0.5736650000000 1.0
C      1  0.5617660000000  0.6003790000000  0.5131180000000 1.0
C      1  0.5570020000000  0.5938830000000  0.4416840000000 1.0
C      1  0.5613830000000  0.5319720000000  0.4091210000000 1.0
C      1  0.5184280000000  0.6029490000000  0.4712600000000 1.0
C      1  0.5189430000000  0.5557330000000  0.4132230000000 1.0
C      1  0.5220670000000  0.4904590000000  0.3959570000000 1.0
C      1  0.5206300000000  0.4227860000000  0.4286760000000 1.0
C      1  0.5200180000000  0.3946760000000  0.4925530000000 1.0
C      1  0.5165760000000  0.4212090000000  0.5631190000000 1.0
C      1  0.5222790000000  0.4713430000000  0.6003850000000 1.0
C      1  0.5189740000000  0.5478210000000  0.5962300000000 1.0
C      1  0.5233420000000  0.5910390000000  0.5443270000000 1.0
C      1  0.5733490000000  0.4974030000000  0.4443060000000 1.0
C      1  0.5670080000000  0.4675810000000  0.4480800000000 1.0
C      1  0.5707170000000  0.4441990000000  0.4928000000000 1.0
C      1  0.5642820000000  0.4444560000000  0.5226580000000 1.0
C      1  0.5754750000000  0.4872340000000  0.5507160000000 1.0
C      1  0.5671150000000  0.5174680000000  0.5572670000000 1.0
C      1  0.5763290000000  0.5423120000000  0.5374610000000 1.0
C      1  0.5767870000000  0.5604360000000  0.4816940000000 1.0
C      1  0.5674390000000  0.5476040000000  0.4569060000000 1.0
C      1  0.4175950000000  0.4454880000000  0.4673510000000 1.0
C      1  0.4190730000000  0.4410700000000  0.4967410000000 1.0
C      1  0.4167050000000  0.4664570000000  0.5497430000000 1.0
C      1  0.4176720000000  0.4951140000000  0.5641740000000 1.0
C      1  0.4157440000000  0.5258310000000  0.5559810000000 1.0
C      1  0.4163610000000  0.5617670000000  0.5113720000000 1.0
C      1  0.4179710000000  0.5576020000000  0.4818160000000 1.0
C      1  0.4163840000000  0.5219910000000  0.4374730000000 1.0
C      1  0.4185200000000  0.4921970000000  0.4378810000000 1.0
C      1  0.5476000000000  0.5555960000000  0.4135410000000 1.0
C      1  0.5515290000000  0.4867220000000  0.3990300000000 1.0
C      1  0.5496710000000  0.4243370000000  0.4304230000000 1.0
C      1  0.5496190000000  0.3968450000000  0.4966360000000 1.0
C      1  0.5456070000000  0.4220000000000  0.5616100000000 1.0
C      1  0.5480970000000  0.4832740000000  0.5927990000000 1.0
C      1  0.5480180000000  0.5500150000000  0.5908130000000 1.0
C      1  0.5490210000000  0.5836820000000  0.5312970000000 1.0
C      1  0.5473750000000  0.5995220000000  0.4675950000000 1.0
C      1  0.6054840000000  0.4668450000000  0.5167940000000 1.0
C      1  0.6021290000000  0.4864300000000  0.5363940000000 1.0
C      1  0.6110280000000  0.5116300000000  0.5285880000000 1.0
C      1  0.6004670000000  0.5363720000000  0.5212320000000 1.0
C      1  0.5958730000000  0.5404440000000  0.4926890000000 1.0
C      1  0.6048840000000  0.5209670000000  0.4747010000000 1.0
C      1  0.6001410000000  0.4990230000000  0.4582110000000 1.0
C      1  0.6044200000000  0.4743220000000  0.4706630000000 1.0
C      1  0.5982370000000  0.4569540000000  0.4916930000000 1.0
C      1  0.4468730000000  0.5519540000000  0.5817580000000 1.0
C      1  0.4472410000000  0.5928700000000  0.5272260000000 1.0
C      1  0.4503280000000  0.5853660000000  0.4635620000000 1.0
C      1  0.4460000000000  0.5413030000000  0.4084230000000 1.0
C      1  0.4500730000000  0.4776380000000  0.4076750000000 1.0
C      1  0.4468110000000  0.4192250000000  0.4432870000000 1.0
C      1  0.4497790000000  0.4073790000000  0.5060710000000 1.0
C      1  0.4453630000000  0.4318970000000  0.5681860000000 1.0
C      1  0.4496060000000  0.4891860000000  0.5963630000000 1.0
C      1  0.4434590000000  0.4619720000000  0.4660620000000 1.0
C      1  0.4449690000000  0.4558870000000  0.5026780000000 1.0
C      1  0.4419650000000  0.4663010000000  0.5335490000000 1.0
C      1  0.4508460000000  0.4938180000000  0.5440920000000 1.0
C      1  0.4419980000000  0.5247320000000  0.5418240000000 1.0
C      1  0.4418930000000  0.5449610000000  0.5170090000000 1.0
C      1  0.4435460000000  0.5413750000000  0.4808800000000 1.0
C      1  0.4420410000000  0.5262090000000  0.4541370000000 1.0
C      1  0.4445710000000  0.4899580000000  0.4531960000000 1.0
END
