TITL C-3578195-8548-117 4.5662589020676e-08 125000 -1101.86584812478 0 0 174 (C1) n - 1
REM
REM in /home/bkarasulu/work/CARBON/AIRSS/Generating-Clusters/EDIP-Nigel-Params/with-SteepDescent/Higher-Symm/SD-CG/HFTN-CG
REM
REM
REM
REM
REM
REM ./C.cell (12c818d87b63d06a65506943cc24bca4)
REM
REM compiler GCC version 9.2.1 20190827 (Red Hat 9.2.1-1)
REM options -cpp -mtune=generic -march=x86-64 -g -O0 -fpre-include=/usr/include/finclude/math-vector-fortran.h
REM seed -1966103729 435172995 -2068899549 654310798 597746543 168570600 -1530415891 -1152625171 -734253375 -551859107 -1765131105 1767327635 -204332167 -123873830 810590361 420871913 154452504 430941030 1045251450 -2031086707 -2069886177 22730858 1332188509 -289149976 822850863 459437971 -2037038854 -1669704078 2093578556 -804201240 699415790 959375781 -1884018428
REM
CELL 1.54180   50.00000   50.00000   50.00000   90.00000   90.00000   90.00000
LATT -1
SFAC C  
C      1  0.4480500000000  0.4426500000000  0.4351120000000 1.0
C      1  0.5143370000000  0.4270240000000  0.4453150000000 1.0
C      1  0.5731950000000  0.4608680000000  0.4364750000000 1.0
C      1  0.5701370000000  0.5335970000000  0.4371810000000 1.0
C      1  0.5214480000000  0.5775540000000  0.4347390000000 1.0
C      1  0.4526210000000  0.5653520000000  0.4341280000000 1.0
C      1  0.4180890000000  0.5052660000000  0.4334290000000 1.0
C      1  0.5939750000000  0.5361340000000  0.5285110000000 1.0
C      1  0.5262750000000  0.6004950000000  0.5261810000000 1.0
C      1  0.4405500000000  0.5862300000000  0.5314060000000 1.0
C      1  0.3943520000000  0.5046930000000  0.5247830000000 1.0
C      1  0.4256080000000  0.4268280000000  0.5270220000000 1.0
C      1  0.5201730000000  0.3976210000000  0.5288570000000 1.0
C      1  0.5964550000000  0.4505960000000  0.5290350000000 1.0
C      1  0.4478990000000  0.5152060000000  0.3770320000000 1.0
C      1  0.4599870000000  0.4691170000000  0.3791550000000 1.0
C      1  0.5037410000000  0.4482470000000  0.3822740000000 1.0
C      1  0.5408500000000  0.4606940000000  0.3836080000000 1.0
C      1  0.5401040000000  0.5087940000000  0.3822400000000 1.0
C      1  0.5205710000000  0.5426510000000  0.3780300000000 1.0
C      1  0.4749490000000  0.5542160000000  0.3773190000000 1.0
C      1  0.4684550000000  0.5055380000000  0.5023170000000 1.0
C      1  0.4770480000000  0.4762340000000  0.4973490000000 1.0
C      1  0.5046160000000  0.4619700000000  0.4972780000000 1.0
C      1  0.5317120000000  0.4767680000000  0.4970580000000 1.0
C      1  0.5284520000000  0.5057530000000  0.5025220000000 1.0
C      1  0.5158100000000  0.5318100000000  0.4966370000000 1.0
C      1  0.4847410000000  0.5309980000000  0.4970750000000 1.0
C      1  0.5238080000000  0.5505300000000  0.5192960000000 1.0
C      1  0.4752290000000  0.5485350000000  0.5192020000000 1.0
C      1  0.4427900000000  0.5090960000000  0.5181660000000 1.0
C      1  0.4594160000000  0.4633010000000  0.5181670000000 1.0
C      1  0.5048940000000  0.4421200000000  0.5182170000000 1.0
C      1  0.5502640000000  0.4640740000000  0.5177090000000 1.0
C      1  0.5470430000000  0.5132470000000  0.5228870000000 1.0
C      1  0.4126070000000  0.5464650000000  0.5278350000000 1.0
C      1  0.4020130000000  0.4576970000000  0.5317410000000 1.0
C      1  0.4729180000000  0.4086130000000  0.5304120000000 1.0
C      1  0.5633700000000  0.4174590000000  0.5291350000000 1.0
C      1  0.6016560000000  0.4985080000000  0.5347370000000 1.0
C      1  0.5663690000000  0.5772160000000  0.5277140000000 1.0
C      1  0.4780800000000  0.5979970000000  0.5305990000000 1.0
C      1  0.5491310000000  0.4852030000000  0.3950240000000 1.0
C      1  0.5353860000000  0.5309380000000  0.3980600000000 1.0
C      1  0.5001220000000  0.5596400000000  0.3873680000000 1.0
C      1  0.4530910000000  0.5403630000000  0.3871500000000 1.0
C      1  0.4438350000000  0.4899440000000  0.3876660000000 1.0
C      1  0.4766760000000  0.4501190000000  0.3907920000000 1.0
C      1  0.5239530000000  0.4490900000000  0.4022070000000 1.0
C      1  0.5186610000000  0.5440840000000  0.6007260000000 1.0
C      1  0.4914950000000  0.5367410000000  0.5964230000000 1.0
C      1  0.4669900000000  0.5019350000000  0.6080970000000 1.0
C      1  0.4656900000000  0.4723090000000  0.6055780000000 1.0
C      1  0.4925300000000  0.4604880000000  0.6051640000000 1.0
C      1  0.5280230000000  0.4762080000000  0.6057540000000 1.0
C      1  0.5404500000000  0.5015580000000  0.6023420000000 1.0
C      1  0.4667870000000  0.5702910000000  0.5703940000000 1.0
C      1  0.4260950000000  0.5207950000000  0.5704070000000 1.0
C      1  0.4350200000000  0.4528330000000  0.5686410000000 1.0
C      1  0.5033520000000  0.4296710000000  0.5642190000000 1.0
C      1  0.5550440000000  0.4469710000000  0.5725420000000 1.0
C      1  0.5758410000000  0.5171570000000  0.5712190000000 1.0
C      1  0.5386930000000  0.5673280000000  0.5686060000000 1.0
C      1  0.5692130000000  0.5801980000000  0.4712460000000 1.0
C      1  0.4824430000000  0.6021040000000  0.4699810000000 1.0
C      1  0.4082740000000  0.5522190000000  0.4700280000000 1.0
C      1  0.4026580000000  0.4619530000000  0.4692780000000 1.0
C      1  0.4695650000000  0.4061250000000  0.4731030000000 1.0
C      1  0.5707100000000  0.4122480000000  0.4729650000000 1.0
C      1  0.5973190000000  0.4939070000000  0.4712930000000 1.0
C      1  0.5354450000000  0.5000130000000  0.5487740000000 1.0
C      1  0.5145680000000  0.5328170000000  0.5448200000000 1.0
C      1  0.4827160000000  0.5315260000000  0.5447150000000 1.0
C      1  0.4579420000000  0.5069580000000  0.5444120000000 1.0
C      1  0.4642740000000  0.4768990000000  0.5460180000000 1.0
C      1  0.5097970000000  0.4542180000000  0.5452180000000 1.0
C      1  0.5383130000000  0.4683040000000  0.5446990000000 1.0
C      1  0.5846210000000  0.5611190000000  0.4862490000000 1.0
C      1  0.5043560000000  0.6095380000000  0.4873550000000 1.0
C      1  0.4180350000000  0.5741850000000  0.4868080000000 1.0
C      1  0.3899830000000  0.4819400000000  0.4865850000000 1.0
C      1  0.4453060000000  0.4066620000000  0.4882520000000 1.0
C      1  0.5441320000000  0.4078610000000  0.4847190000000 1.0
C      1  0.6076820000000  0.4730460000000  0.4891030000000 1.0
C      1  0.4646300000000  0.5761260000000  0.5125210000000 1.0
C      1  0.4148340000000  0.5211910000000  0.5125360000000 1.0
C      1  0.4329380000000  0.4508430000000  0.5100120000000 1.0
C      1  0.4981420000000  0.4123870000000  0.5149010000000 1.0
C      1  0.5721910000000  0.4428480000000  0.5147380000000 1.0
C      1  0.5757570000000  0.5157220000000  0.5120000000000 1.0
C      1  0.5394040000000  0.5776770000000  0.5136990000000 1.0
C      1  0.4126000000000  0.4966280000000  0.5625020000000 1.0
C      1  0.4492870000000  0.4289330000000  0.5648280000000 1.0
C      1  0.5246770000000  0.4091310000000  0.5563000000000 1.0
C      1  0.5752280000000  0.4677510000000  0.5670220000000 1.0
C      1  0.5819520000000  0.5412260000000  0.5553460000000 1.0
C      1  0.5161570000000  0.5850360000000  0.5639210000000 1.0
C      1  0.4405250000000  0.5710090000000  0.5573250000000 1.0
C      1  0.4569380000000  0.5062520000000  0.4649170000000 1.0
C      1  0.4687330000000  0.4774360000000  0.4675410000000 1.0
C      1  0.4935040000000  0.4756390000000  0.4502140000000 1.0
C      1  0.5385360000000  0.4714380000000  0.4678300000000 1.0
C      1  0.5387430000000  0.4954550000000  0.4482220000000 1.0
C      1  0.5243890000000  0.5384590000000  0.4678040000000 1.0
C      1  0.4755240000000  0.5319990000000  0.4673610000000 1.0
C      1  0.4501490000000  0.4716310000000  0.5815600000000 1.0
C      1  0.5080530000000  0.4387920000000  0.5927080000000 1.0
C      1  0.5351210000000  0.4504060000000  0.5952030000000 1.0
C      1  0.5468170000000  0.5136190000000  0.5752640000000 1.0
C      1  0.5294810000000  0.5401610000000  0.5733660000000 1.0
C      1  0.4736690000000  0.5414840000000  0.5730090000000 1.0
C      1  0.4535910000000  0.5182010000000  0.5821150000000 1.0
C      1  0.4266440000000  0.4462150000000  0.4796490000000 1.0
C      1  0.4956220000000  0.4045500000000  0.4856100000000 1.0
C      1  0.5793750000000  0.4391990000000  0.4834210000000 1.0
C      1  0.5807370000000  0.5173040000000  0.4805220000000 1.0
C      1  0.5410520000000  0.5847550000000  0.4815600000000 1.0
C      1  0.4611100000000  0.5830860000000  0.4802820000000 1.0
C      1  0.4085720000000  0.5232900000000  0.4806450000000 1.0
C      1  0.5809220000000  0.5062680000000  0.4264080000000 1.0
C      1  0.5500910000000  0.5715500000000  0.4241550000000 1.0
C      1  0.4770670000000  0.5815120000000  0.4239910000000 1.0
C      1  0.4211570000000  0.5343540000000  0.4237650000000 1.0
C      1  0.4262300000000  0.4614080000000  0.4236720000000 1.0
C      1  0.4877510000000  0.4223230000000  0.4310440000000 1.0
C      1  0.5630610000000  0.4329740000000  0.4274470000000 1.0
C      1  0.4204530000000  0.5710380000000  0.5151380000000 1.0
C      1  0.3896000000000  0.4790420000000  0.5154380000000 1.0
C      1  0.4465980000000  0.4093410000000  0.5170090000000 1.0
C      1  0.5452330000000  0.4006670000000  0.5133150000000 1.0
C      1  0.6053810000000  0.4744930000000  0.5180800000000 1.0
C      1  0.5876430000000  0.5624710000000  0.5144210000000 1.0
C      1  0.5017550000000  0.6085660000000  0.5159000000000 1.0
C      1  0.3835980000000  0.5081960000000  0.4768500000000 1.0
C      1  0.4222180000000  0.4173660000000  0.4760340000000 1.0
C      1  0.5193830000000  0.4067440000000  0.4684260000000 1.0
C      1  0.6077820000000  0.4461430000000  0.4794720000000 1.0
C      1  0.5973220000000  0.5402680000000  0.4731490000000 1.0
C      1  0.5310110000000  0.6121300000000  0.4776210000000 1.0
C      1  0.4343360000000  0.5946480000000  0.4761610000000 1.0
C      1  0.5643890000000  0.5653880000000  0.5542900000000 1.0
C      1  0.4879850000000  0.5861920000000  0.5566250000000 1.0
C      1  0.4264580000000  0.5451170000000  0.5531600000000 1.0
C      1  0.4139550000000  0.4687530000000  0.5559230000000 1.0
C      1  0.4745670000000  0.4190480000000  0.5573470000000 1.0
C      1  0.5520050000000  0.4209040000000  0.5564690000000 1.0
C      1  0.5880730000000  0.4925410000000  0.5606420000000 1.0
C      1  0.5640770000000  0.4577030000000  0.4645890000000 1.0
C      1  0.5513090000000  0.5216610000000  0.4601070000000 1.0
C      1  0.5237400000000  0.5676350000000  0.4637020000000 1.0
C      1  0.4617840000000  0.5584020000000  0.4621000000000 1.0
C      1  0.4276360000000  0.5079030000000  0.4622710000000 1.0
C      1  0.4501180000000  0.4542730000000  0.4625690000000 1.0
C      1  0.5129140000000  0.4551410000000  0.4599440000000 1.0
C      1  0.4740850000000  0.4451660000000  0.4192150000000 1.0
C      1  0.5340580000000  0.4306080000000  0.4220830000000 1.0
C      1  0.5580300000000  0.4864500000000  0.4243590000000 1.0
C      1  0.5549890000000  0.5448560000000  0.4132200000000 1.0
C      1  0.4997460000000  0.5653400000000  0.4157810000000 1.0
C      1  0.4479330000000  0.5415750000000  0.4154580000000 1.0
C      1  0.4358140000000  0.4874330000000  0.4153530000000 1.0
C      1  0.5715640000000  0.5718130000000  0.4440170000000 1.0
C      1  0.4905700000000  0.5993760000000  0.4425920000000 1.0
C      1  0.4158680000000  0.5560630000000  0.4424650000000 1.0
C      1  0.4045590000000  0.4699060000000  0.4415340000000 1.0
C      1  0.4662470000000  0.4100390000000  0.4452840000000 1.0
C      1  0.5708380000000  0.4125470000000  0.4450420000000 1.0
C      1  0.5983110000000  0.4896450000000  0.4430050000000 1.0
C      1  0.5001740000000  0.4944080000000  0.5733870000000 1.0
C      1  0.4926840000000  0.4773980000000  0.5520700000000 1.0
C      1  0.5013390000000  0.5270450000000  0.4523380000000 1.0
C      1  0.4962560000000  0.5064700000000  0.5999940000000 1.0
C      1  0.5275660000000  0.5219010000000  0.6174130000000 1.0
C      1  0.5092060000000  0.5000280000000  0.4433570000000 1.0
END
