TITL C-3578205-846-397 -2.60745845050743e-07 125000 -956.789080995053 0 0 152 (C1) n - 1
REM
REM in /home/bkarasulu/work/CARBON/AIRSS/Generating-Clusters/EDIP-Nigel-Params/with-SteepDescent/Higher-Symm/SD-CG/HFTN-CG
REM
REM
REM
REM
REM
REM ./C.cell (12c818d87b63d06a65506943cc24bca4)
REM
REM compiler GCC version 9.2.1 20190827 (Red Hat 9.2.1-1)
REM options -cpp -mtune=generic -march=x86-64 -g -O0 -fpre-include=/usr/include/finclude/math-vector-fortran.h
REM seed 1181560609 185677365 858990530 583402207 -412806406 -1267233349 -1691290893 1711210000 1046738653 -736561272 -312561986 -809184598 153080472 54390578 -558274758 1060801525 -1804321784 -1860342250 1263733366 -2056922289 -919308407 -1285630466 -431932494 -1342689979 -881633046 -188381467 1234878762 1750165768 1919577819 -1299355597 964486325 1771613066 -1948357243
REM
CELL 1.54180   50.00000   50.00000   50.00000   90.00000   90.00000   90.00000
LATT -1
SFAC C  
C      1  0.5476360000000  0.5075870000000  0.5677420000000 1.0
C      1  0.4341450000000  0.5096000000000  0.5719460000000 1.0
C      1  0.4043780000000  0.5114920000000  0.4639490000000 1.0
C      1  0.5102210000000  0.5146990000000  0.3915540000000 1.0
C      1  0.6047760000000  0.5140050000000  0.4778300000000 1.0
C      1  0.4804380000000  0.4637830000000  0.4050540000000 1.0
C      1  0.5834630000000  0.4553700000000  0.4565610000000 1.0
C      1  0.5670810000000  0.4543840000000  0.5651060000000 1.0
C      1  0.4570300000000  0.4628410000000  0.5868600000000 1.0
C      1  0.3999880000000  0.4408150000000  0.4866570000000 1.0
C      1  0.4239490000000  0.4950780000000  0.5502360000000 1.0
C      1  0.4127880000000  0.4970680000000  0.4402370000000 1.0
C      1  0.5298740000000  0.4994220000000  0.4042300000000 1.0
C      1  0.6035790000000  0.4967330000000  0.4999530000000 1.0
C      1  0.5339560000000  0.4942930000000  0.5922760000000 1.0
C      1  0.4821670000000  0.4716560000000  0.4346890000000 1.0
C      1  0.5544250000000  0.4635220000000  0.4664000000000 1.0
C      1  0.5547010000000  0.4842350000000  0.5442450000000 1.0
C      1  0.4772630000000  0.4766310000000  0.5667330000000 1.0
C      1  0.4339510000000  0.4682530000000  0.5044090000000 1.0
C      1  0.4983070000000  0.5363580000000  0.4043560000000 1.0
C      1  0.6007690000000  0.5410860000000  0.4702760000000 1.0
C      1  0.5612560000000  0.5333700000000  0.5779870000000 1.0
C      1  0.4418800000000  0.5346760000000  0.5820430000000 1.0
C      1  0.3993850000000  0.5401100000000  0.4646640000000 1.0
C      1  0.4327900000000  0.5547970000000  0.5623840000000 1.0
C      1  0.4220500000000  0.5551390000000  0.4527760000000 1.0
C      1  0.5158160000000  0.5583930000000  0.4106670000000 1.0
C      1  0.5918380000000  0.5579220000000  0.4929250000000 1.0
C      1  0.5381400000000  0.5523970000000  0.5827210000000 1.0
C      1  0.4782430000000  0.5972050000000  0.4860460000000 1.0
C      1  0.5065220000000  0.5968620000000  0.4767630000000 1.0
C      1  0.5253020000000  0.5976760000000  0.5000440000000 1.0
C      1  0.5082450000000  0.5962230000000  0.5248120000000 1.0
C      1  0.4794070000000  0.5964180000000  0.5159000000000 1.0
C      1  0.5978320000000  0.4487580000000  0.4808930000000 1.0
C      1  0.5418210000000  0.4450740000000  0.5775260000000 1.0
C      1  0.4322610000000  0.4519950000000  0.5753760000000 1.0
C      1  0.4053390000000  0.4501650000000  0.4606030000000 1.0
C      1  0.5073230000000  0.4551110000000  0.3974860000000 1.0
C      1  0.5280440000000  0.4660160000000  0.5929120000000 1.0
C      1  0.4190160000000  0.4668940000000  0.5537960000000 1.0
C      1  0.4136850000000  0.4681790000000  0.4388820000000 1.0
C      1  0.5321640000000  0.4706030000000  0.3987060000000 1.0
C      1  0.6065740000000  0.4674930000000  0.5013710000000 1.0
C      1  0.5157040000000  0.3999760000000  0.5210280000000 1.0
C      1  0.4863410000000  0.4009540000000  0.5251860000000 1.0
C      1  0.4722570000000  0.4004300000000  0.4983840000000 1.0
C      1  0.4937520000000  0.4011860000000  0.4772750000000 1.0
C      1  0.5203100000000  0.3998800000000  0.4917500000000 1.0
C      1  0.4887890000000  0.4449470000000  0.5278440000000 1.0
C      1  0.4770900000000  0.4446980000000  0.5013540000000 1.0
C      1  0.4953490000000  0.4511120000000  0.4806990000000 1.0
C      1  0.5228320000000  0.4485900000000  0.4932320000000 1.0
C      1  0.5194270000000  0.4483400000000  0.5248600000000 1.0
C      1  0.5313460000000  0.4220060000000  0.5349530000000 1.0
C      1  0.4747650000000  0.4159270000000  0.5499210000000 1.0
C      1  0.4561300000000  0.4257900000000  0.4954320000000 1.0
C      1  0.4916620000000  0.4276970000000  0.4604500000000 1.0
C      1  0.5372610000000  0.4237580000000  0.4835230000000 1.0
C      1  0.5093170000000  0.5043980000000  0.6059110000000 1.0
C      1  0.4109120000000  0.5037960000000  0.5243810000000 1.0
C      1  0.4296290000000  0.5061370000000  0.4177910000000 1.0
C      1  0.5523490000000  0.5076210000000  0.4216200000000 1.0
C      1  0.6038960000000  0.5053480000000  0.5278070000000 1.0
C      1  0.5128310000000  0.5383870000000  0.5727510000000 1.0
C      1  0.4311530000000  0.5412680000000  0.5354980000000 1.0
C      1  0.4468230000000  0.5372600000000  0.4511210000000 1.0
C      1  0.5364840000000  0.5520930000000  0.4313750000000 1.0
C      1  0.5745500000000  0.5414570000000  0.5113230000000 1.0
C      1  0.5559590000000  0.5213320000000  0.4973590000000 1.0
C      1  0.5236320000000  0.5181430000000  0.5525330000000 1.0
C      1  0.4570280000000  0.5226560000000  0.5273790000000 1.0
C      1  0.4465480000000  0.5154620000000  0.4733930000000 1.0
C      1  0.5170300000000  0.5282020000000  0.4558330000000 1.0
C      1  0.5068290000000  0.4907510000000  0.5492670000000 1.0
C      1  0.4551920000000  0.4849260000000  0.5210810000000 1.0
C      1  0.4593630000000  0.4862610000000  0.4627440000000 1.0
C      1  0.5329790000000  0.4799210000000  0.4497780000000 1.0
C      1  0.5537220000000  0.4885030000000  0.5114020000000 1.0
C      1  0.4310630000000  0.4616010000000  0.4158700000000 1.0
C      1  0.5545710000000  0.4598580000000  0.4166190000000 1.0
C      1  0.6012320000000  0.4609840000000  0.5300680000000 1.0
C      1  0.5040070000000  0.4604310000000  0.6076550000000 1.0
C      1  0.4005090000000  0.4579570000000  0.5314520000000 1.0
C      1  0.4699300000000  0.5428970000000  0.4096430000000 1.0
C      1  0.5841090000000  0.5496480000000  0.4463690000000 1.0
C      1  0.5800150000000  0.5454090000000  0.5581960000000 1.0
C      1  0.4694750000000  0.5427510000000  0.5925690000000 1.0
C      1  0.4013060000000  0.5459380000000  0.4938430000000 1.0
C      1  0.4950330000000  0.4281900000000  0.5686200000000 1.0
C      1  0.4363650000000  0.4327080000000  0.5180300000000 1.0
C      1  0.4648750000000  0.4327630000000  0.4464750000000 1.0
C      1  0.5403000000000  0.4242760000000  0.4528660000000 1.0
C      1  0.5611960000000  0.4245330000000  0.5275040000000 1.0
C      1  0.4736640000000  0.5675520000000  0.4269220000000 1.0
C      1  0.5710570000000  0.5764720000000  0.4544740000000 1.0
C      1  0.5647200000000  0.5694820000000  0.5477790000000 1.0
C      1  0.4756580000000  0.5680730000000  0.5766970000000 1.0
C      1  0.4180320000000  0.5704360000000  0.4977500000000 1.0
C      1  0.5462090000000  0.5278390000000  0.4683920000000 1.0
C      1  0.5304210000000  0.5339150000000  0.5237740000000 1.0
C      1  0.4839540000000  0.5380320000000  0.5362730000000 1.0
C      1  0.4603890000000  0.5310460000000  0.4970430000000 1.0
C      1  0.4953770000000  0.5445650000000  0.4674380000000 1.0
C      1  0.5156270000000  0.4960570000000  0.4707080000000 1.0
C      1  0.5249120000000  0.4914480000000  0.5010620000000 1.0
C      1  0.5031810000000  0.4898390000000  0.5197760000000 1.0
C      1  0.4791970000000  0.4915820000000  0.5050980000000 1.0
C      1  0.4864130000000  0.4817630000000  0.4775180000000 1.0
C      1  0.5421340000000  0.5762950000000  0.4464430000000 1.0
C      1  0.5527760000000  0.5591330000000  0.5222370000000 1.0
C      1  0.4957740000000  0.5573580000000  0.5574360000000 1.0
C      1  0.4413140000000  0.5607000000000  0.5141320000000 1.0
C      1  0.4702430000000  0.5570790000000  0.4546790000000 1.0
C      1  0.5637280000000  0.4611120000000  0.4957650000000 1.0
C      1  0.5285810000000  0.4682970000000  0.5488710000000 1.0
C      1  0.4673670000000  0.4644840000000  0.5412860000000 1.0
C      1  0.4389020000000  0.4646670000000  0.4740680000000 1.0
C      1  0.5120120000000  0.4605920000000  0.4355720000000 1.0
C      1  0.4296060000000  0.5777310000000  0.4714190000000 1.0
C      1  0.5004520000000  0.5801190000000  0.4239040000000 1.0
C      1  0.5742190000000  0.5804390000000  0.4838080000000 1.0
C      1  0.5408400000000  0.5755540000000  0.5638370000000 1.0
C      1  0.4527500000000  0.5771110000000  0.5596670000000 1.0
C      1  0.5637850000000  0.4384360000000  0.4379670000000 1.0
C      1  0.5767420000000  0.4464430000000  0.5397100000000 1.0
C      1  0.4839450000000  0.4464100000000  0.5906340000000 1.0
C      1  0.4065620000000  0.4347200000000  0.5136430000000 1.0
C      1  0.4575030000000  0.4463440000000  0.4186920000000 1.0
C      1  0.6079700000000  0.4838820000000  0.5456640000000 1.0
C      1  0.4953580000000  0.4843140000000  0.6201800000000 1.0
C      1  0.4055950000000  0.4789650000000  0.5103600000000 1.0
C      1  0.4340330000000  0.4848720000000  0.3997650000000 1.0
C      1  0.5650490000000  0.4839370000000  0.4283990000000 1.0
C      1  0.4463050000000  0.4355760000000  0.4686080000000 1.0
C      1  0.5142650000000  0.4316180000000  0.4421680000000 1.0
C      1  0.5625750000000  0.4292290000000  0.4990670000000 1.0
C      1  0.5241020000000  0.4248050000000  0.5640090000000 1.0
C      1  0.4499930000000  0.4364110000000  0.5454760000000 1.0
C      1  0.4510840000000  0.5248830000000  0.4246170000000 1.0
C      1  0.5584090000000  0.5318070000000  0.4401060000000 1.0
C      1  0.5868060000000  0.5281190000000  0.5345000000000 1.0
C      1  0.4945430000000  0.5250430000000  0.5915460000000 1.0
C      1  0.4179400000000  0.5200800000000  0.4991270000000 1.0
C      1  0.5158290000000  0.5773270000000  0.5470400000000 1.0
C      1  0.4576820000000  0.5809470000000  0.5297600000000 1.0
C      1  0.4593940000000  0.5780440000000  0.4728540000000 1.0
C      1  0.5162710000000  0.5907890000000  0.4488410000000 1.0
C      1  0.5489820000000  0.5794400000000  0.5002400000000 1.0
C      1  0.4893610000000  0.5325510000000  0.4921240000000 1.0
C      1  0.5030940000000  0.5422820000000  0.5150730000000 1.0
END
