TITL C-3578204-4308-369 -1.24318975799115e-06 125000 -353.395183452023 0 0 61 (C1) n - 1
REM
REM in /home/bkarasulu/work/CARBON/AIRSS/Generating-Clusters/EDIP-Nigel-Params/with-SteepDescent/Higher-Symm/SD-CG/HFTN-CG
REM
REM
REM
REM
REM
REM ./C.cell (12c818d87b63d06a65506943cc24bca4)
REM
REM compiler GCC version 9.2.1 20190827 (Red Hat 9.2.1-1)
REM options -cpp -mtune=generic -march=x86-64 -g -O0 -fpre-include=/usr/include/finclude/math-vector-fortran.h
REM seed 1515239961 -1154084539 984329018 -963655717 -850010945 -654073928 -165465849 1179971271 -1066809706 1132831955 1773723798 -325529257 417254773 1147905294 616671587 -1232090983 -1461359570 -1558284117 -1080395361 -1566435568 -241181006 1697700559 177962391 -444800868 1022042356 -1456278596 1949205078 469881624 -1599902006 -379422275 1953507154 -200239991 1325204943
REM
CELL 1.54180   50.00000   50.00000   50.00000   90.00000   90.00000   90.00000
LATT -1
SFAC C  
C      1  0.5601710000000  0.4647360000000  0.4857610000000 1.0
C      1  0.4975380000000  0.4263280000000  0.4799220000000 1.0
C      1  0.4285010000000  0.4791230000000  0.4775950000000 1.0
C      1  0.4711560000000  0.5595840000000  0.4843790000000 1.0
C      1  0.5452660000000  0.5544260000000  0.4767140000000 1.0
C      1  0.5677380000000  0.5383330000000  0.5115470000000 1.0
C      1  0.5004980000000  0.5705510000000  0.5229180000000 1.0
C      1  0.4229080000000  0.5118640000000  0.5122910000000 1.0
C      1  0.4683000000000  0.4360710000000  0.5178440000000 1.0
C      1  0.5420840000000  0.4447590000000  0.5220210000000 1.0
C      1  0.5364340000000  0.5476990000000  0.5129320000000 1.0
C      1  0.5596340000000  0.4678720000000  0.5160790000000 1.0
C      1  0.4994200000000  0.4409070000000  0.5147220000000 1.0
C      1  0.4326270000000  0.4822740000000  0.5098610000000 1.0
C      1  0.4758180000000  0.5533050000000  0.5167860000000 1.0
C      1  0.5298960000000  0.4556030000000  0.4870680000000 1.0
C      1  0.5582020000000  0.5280320000000  0.4843840000000 1.0
C      1  0.5027380000000  0.5581490000000  0.4887830000000 1.0
C      1  0.4340090000000  0.5098870000000  0.4826590000000 1.0
C      1  0.4719380000000  0.4408400000000  0.4865570000000 1.0
C      1  0.4709580000000  0.5140000000000  0.5495800000000 1.0
C      1  0.5249950000000  0.5237650000000  0.5541420000000 1.0
C      1  0.5442030000000  0.5016470000000  0.5489760000000 1.0
C      1  0.4986660000000  0.4746360000000  0.5493350000000 1.0
C      1  0.4705760000000  0.4836940000000  0.5462920000000 1.0
C      1  0.4772180000000  0.4826720000000  0.4513430000000 1.0
C      1  0.5073830000000  0.4771570000000  0.4522280000000 1.0
C      1  0.5226760000000  0.5009010000000  0.4431690000000 1.0
C      1  0.5049600000000  0.5233480000000  0.4538870000000 1.0
C      1  0.4752580000000  0.5140450000000  0.4537570000000 1.0
C      1  0.5329590000000  0.5086580000000  0.4913340000000 1.0
C      1  0.5135510000000  0.4811100000000  0.4829100000000 1.0
C      1  0.4719030000000  0.4710600000000  0.4796160000000 1.0
C      1  0.4638520000000  0.5159440000000  0.4813020000000 1.0
C      1  0.5102270000000  0.5282380000000  0.4830740000000 1.0
C      1  0.5371700000000  0.4885590000000  0.5213360000000 1.0
C      1  0.5151990000000  0.5265870000000  0.5270140000000 1.0
C      1  0.4849670000000  0.5242190000000  0.5244270000000 1.0
C      1  0.4630840000000  0.4799470000000  0.5161800000000 1.0
C      1  0.5075280000000  0.4724970000000  0.5213760000000 1.0
C      1  0.5334020000000  0.5499450000000  0.5605810000000 1.0
C      1  0.5713280000000  0.5086980000000  0.5527430000000 1.0
C      1  0.5080560000000  0.4513080000000  0.5618570000000 1.0
C      1  0.4518540000000  0.4641940000000  0.5580620000000 1.0
C      1  0.4469940000000  0.5267890000000  0.5550800000000 1.0
C      1  0.5150920000000  0.4508580000000  0.4422780000000 1.0
C      1  0.5493910000000  0.5001270000000  0.4513520000000 1.0
C      1  0.5103650000000  0.5483180000000  0.4397400000000 1.0
C      1  0.4587370000000  0.5346130000000  0.4406180000000 1.0
C      1  0.4561970000000  0.4695560000000  0.4358150000000 1.0
C      1  0.5300590000000  0.5600040000000  0.4543080000000 1.0
C      1  0.5646120000000  0.4871050000000  0.4694520000000 1.0
C      1  0.5205610000000  0.4368590000000  0.4659360000000 1.0
C      1  0.4364500000000  0.4657650000000  0.4542950000000 1.0
C      1  0.4575860000000  0.5542130000000  0.4599900000000 1.0
C      1  0.5286980000000  0.4423350000000  0.5463510000000 1.0
C      1  0.5790100000000  0.5212740000000  0.5302070000000 1.0
C      1  0.5175750000000  0.5667590000000  0.5454310000000 1.0
C      1  0.4324970000000  0.5277910000000  0.5326280000000 1.0
C      1  0.4517340000000  0.4441650000000  0.5392430000000 1.0
C      1  0.4806290000000  0.5019090000000  0.5022410000000 1.0
END
