TITL C-3577088-510-463 4.64879669021825e-07 125000 -225.891612220015 0 0 38 (C1) n - 1
REM
REM in /home/bkarasulu/work/CARBON/AIRSS/Generating-Clusters/EDIP-Nigel-Params/with-SteepDescent/Higher-Symm/SD-CG/HFTN-CG
REM
REM
REM
REM
REM
REM ./C.cell (12c818d87b63d06a65506943cc24bca4)
REM
REM compiler GCC version 9.2.1 20190827 (Red Hat 9.2.1-1)
REM options -cpp -mtune=generic -march=x86-64 -g -O0 -fpre-include=/usr/include/finclude/math-vector-fortran.h
REM seed -406780953 1822868791 -491323189 -2131329916 -1071700808 -1590552459 -350531609 1201446189 1554822303 2064018061 -70634744 301812529 -827655820 1102259563 -1642907111 1781854371 28531132 1708013535 -1895517476 -1621613860 162513265 16843285 1926424802 -394975156 -1879809419 -1609045978 -664543353 -84097438 1088262396 -1228245015 -1402086472 505992993 464125843
REM
CELL 1.54180   50.00000   50.00000   50.00000   90.00000   90.00000   90.00000
LATT -1
SFAC C  
C      1  0.5134860000000  0.4189580000000  0.4921190000000 1.0
C      1  0.5670820000000  0.4721790000000  0.5077120000000 1.0
C      1  0.5278830000000  0.5746890000000  0.4907630000000 1.0
C      1  0.4616370000000  0.5661610000000  0.4961580000000 1.0
C      1  0.4305550000000  0.4862200000000  0.4959410000000 1.0
C      1  0.5004950000000  0.4185630000000  0.5168300000000 1.0
C      1  0.5617120000000  0.4833100000000  0.5327020000000 1.0
C      1  0.5488360000000  0.5607510000000  0.5035910000000 1.0
C      1  0.4645470000000  0.5591860000000  0.5230260000000 1.0
C      1  0.4343590000000  0.4593300000000  0.5041760000000 1.0
C      1  0.4417110000000  0.4924300000000  0.4710140000000 1.0
C      1  0.5155260000000  0.4448600000000  0.4814280000000 1.0
C      1  0.5670770000000  0.4896880000000  0.4846620000000 1.0
C      1  0.5138740000000  0.5546150000000  0.4765870000000 1.0
C      1  0.4473080000000  0.5493570000000  0.4773020000000 1.0
C      1  0.4572960000000  0.4613150000000  0.5208810000000 1.0
C      1  0.5143910000000  0.4317260000000  0.5381310000000 1.0
C      1  0.5372150000000  0.4966580000000  0.5343110000000 1.0
C      1  0.5438470000000  0.5507140000000  0.5301540000000 1.0
C      1  0.4800170000000  0.5404790000000  0.5350530000000 1.0
C      1  0.5406170000000  0.4842880000000  0.4748320000000 1.0
C      1  0.5312660000000  0.5313330000000  0.4715390000000 1.0
C      1  0.4690680000000  0.5322270000000  0.4691350000000 1.0
C      1  0.4674790000000  0.5032640000000  0.4678680000000 1.0
C      1  0.4904180000000  0.4600890000000  0.4837720000000 1.0
C      1  0.5162770000000  0.4802180000000  0.5203220000000 1.0
C      1  0.5378700000000  0.5234760000000  0.5238050000000 1.0
C      1  0.4946640000000  0.5279130000000  0.5145900000000 1.0
C      1  0.4640760000000  0.4897610000000  0.5245160000000 1.0
C      1  0.5037030000000  0.4580800000000  0.5358140000000 1.0
C      1  0.4832490000000  0.4492390000000  0.5121560000000 1.0
C      1  0.4891960000000  0.5440180000000  0.4894020000000 1.0
C      1  0.5531760000000  0.5351090000000  0.4900990000000 1.0
C      1  0.5325400000000  0.4653070000000  0.4966100000000 1.0
C      1  0.4403940000000  0.5035290000000  0.5163800000000 1.0
C      1  0.5192730000000  0.5035610000000  0.4713090000000 1.0
C      1  0.4909870000000  0.4981880000000  0.5113810000000 1.0
C      1  0.4915810000000  0.4910040000000  0.4814320000000 1.0
END
