TITL C-3578207-9274-467 1.09454477343369e-06 125000 -22.7741214219028 0 0 5 (Cs) n - 1
REM
REM in /home/bkarasulu/work/CARBON/AIRSS/Generating-Clusters/EDIP-Nigel-Params/with-SteepDescent/Higher-Symm/SD-CG/HFTN-CG
REM
REM
REM
REM
REM
REM ./C.cell (12c818d87b63d06a65506943cc24bca4)
REM
REM compiler GCC version 9.2.1 20190827 (Red Hat 9.2.1-1)
REM options -cpp -mtune=generic -march=x86-64 -g -O0 -fpre-include=/usr/include/finclude/math-vector-fortran.h
REM seed -156731997 -582437929 -1762316649 -794869210 -1532158378 391725958 -2137038864 -1134089045 -1380209933 -43968480 -1084167307 658272269 -1610745500 1663985079 1864910201 -1084346066 -2097039783 719270949 -884379331 1089104153 1350590953 -1726076976 -866490704 828161885 1155937212 -1913917922 1109571737 -219505439 -1341423054 -414029444 1323287252 -1557250582 1063332629
REM
CELL 1.54180   50.00000   50.00000   50.00000   90.00000   90.00000   90.00000
LATT -1
SFAC C  
C      1  0.5171370000000  0.5087800000000  0.4881600000000 1.0
C      1  0.4888420000000  0.5195250000000  0.4854890000000 1.0
C      1  0.4773450000000  0.4909320000000  0.4920660000000 1.0
C      1  0.5063540000000  0.4804960000000  0.4855360000000 1.0
C      1  0.4943630000000  0.4985980000000  0.5175540000000 1.0
END
