TITL C-3578209-2550-196 -5.3009920721762e-07 125000 -563.684989332516 0 0 90 (C1) n - 1
REM
REM in /home/bkarasulu/work/CARBON/AIRSS/Generating-Clusters/EDIP-Nigel-Params/with-SteepDescent/Higher-Symm/SD-CG/HFTN-CG
REM
REM
REM
REM
REM
REM ./C.cell (12c818d87b63d06a65506943cc24bca4)
REM
REM compiler GCC version 9.2.1 20190827 (Red Hat 9.2.1-1)
REM options -cpp -mtune=generic -march=x86-64 -g -O0 -fpre-include=/usr/include/finclude/math-vector-fortran.h
REM seed -1119270252 1210341097 1222872436 667920491 620143013 -488050345 -1097506459 -544256124 96594793 1672370389 2126431397 938468433 -1466943928 1079045542 1533828871 -1702362402 -1097919868 -1663319991 1058690899 909539067 -389055502 1437660501 451802454 -1974655993 2007775605 362058917 -583625339 1052346791 -218288833 -338279591 -2048328216 1602822503 1758920667
REM
CELL 1.54180   50.00000   50.00000   50.00000   90.00000   90.00000   90.00000
LATT -1
SFAC C  
C      1  0.5091880000000  0.4958610000000  0.4837470000000 1.0
C      1  0.4936930000000  0.5226600000000  0.4793570000000 1.0
C      1  0.4669960000000  0.5144900000000  0.4903710000000 1.0
C      1  0.4714220000000  0.5120320000000  0.5208640000000 1.0
C      1  0.4982330000000  0.5282680000000  0.5251950000000 1.0
C      1  0.5200830000000  0.5087320000000  0.5277200000000 1.0
C      1  0.5340110000000  0.5021790000000  0.5011030000000 1.0
C      1  0.5706570000000  0.4893290000000  0.5315670000000 1.0
C      1  0.5651720000000  0.4970770000000  0.4481370000000 1.0
C      1  0.5032740000000  0.5034050000000  0.4102940000000 1.0
C      1  0.4361280000000  0.5151120000000  0.4355960000000 1.0
C      1  0.4184380000000  0.5088790000000  0.5070240000000 1.0
C      1  0.4474870000000  0.5102060000000  0.5741080000000 1.0
C      1  0.5187770000000  0.4949110000000  0.5817360000000 1.0
C      1  0.4514560000000  0.4796770000000  0.5311350000000 1.0
C      1  0.4769000000000  0.4789770000000  0.5503910000000 1.0
C      1  0.5025440000000  0.4835100000000  0.5315380000000 1.0
C      1  0.5541890000000  0.4795640000000  0.5101110000000 1.0
C      1  0.5106430000000  0.4825610000000  0.4556370000000 1.0
C      1  0.4804490000000  0.4812560000000  0.4459330000000 1.0
C      1  0.4564420000000  0.4891440000000  0.4699380000000 1.0
C      1  0.5089290000000  0.3697700000000  0.5321330000000 1.0
C      1  0.5225160000000  0.3939920000000  0.5334680000000 1.0
C      1  0.5445360000000  0.3948840000000  0.5163700000000 1.0
C      1  0.5432080000000  0.3960520000000  0.4885290000000 1.0
C      1  0.5342650000000  0.3723010000000  0.4771690000000 1.0
C      1  0.5187910000000  0.3530170000000  0.4877300000000 1.0
C      1  0.5075650000000  0.3518990000000  0.5120930000000 1.0
C      1  0.5670880000000  0.4546830000000  0.4719430000000 1.0
C      1  0.5259620000000  0.4550030000000  0.4458010000000 1.0
C      1  0.4771510000000  0.4520450000000  0.4395600000000 1.0
C      1  0.4467080000000  0.4604200000000  0.4785370000000 1.0
C      1  0.4430110000000  0.4507900000000  0.5290530000000 1.0
C      1  0.4811440000000  0.4499020000000  0.5593580000000 1.0
C      1  0.5289510000000  0.4590810000000  0.5468020000000 1.0
C      1  0.5559470000000  0.5425510000000  0.5137940000000 1.0
C      1  0.5397580000000  0.5403570000000  0.4659820000000 1.0
C      1  0.5021990000000  0.5498160000000  0.4375270000000 1.0
C      1  0.4598970000000  0.5554200000000  0.4624650000000 1.0
C      1  0.4477690000000  0.5544160000000  0.5139940000000 1.0
C      1  0.4745210000000  0.5498250000000  0.5553220000000 1.0
C      1  0.5255270000000  0.5469030000000  0.5546760000000 1.0
C      1  0.4557320000000  0.5352120000000  0.5359760000000 1.0
C      1  0.4991230000000  0.5350630000000  0.5637320000000 1.0
C      1  0.5482150000000  0.5310840000000  0.5418040000000 1.0
C      1  0.5524600000000  0.5239080000000  0.4885480000000 1.0
C      1  0.5214790000000  0.5298120000000  0.4456470000000 1.0
C      1  0.4774410000000  0.5368670000000  0.4471880000000 1.0
C      1  0.4484430000000  0.5395990000000  0.4868340000000 1.0
C      1  0.4753590000000  0.4133500000000  0.5277090000000 1.0
C      1  0.5062110000000  0.4188970000000  0.5304660000000 1.0
C      1  0.5196670000000  0.4359980000000  0.5069290000000 1.0
C      1  0.5289620000000  0.4210730000000  0.4803860000000 1.0
C      1  0.5029880000000  0.4161920000000  0.4638410000000 1.0
C      1  0.4804770000000  0.4292090000000  0.4799940000000 1.0
C      1  0.4625180000000  0.4154880000000  0.5006230000000 1.0
C      1  0.4425380000000  0.4397090000000  0.5017550000000 1.0
C      1  0.4611090000000  0.4332020000000  0.5452430000000 1.0
C      1  0.5082860000000  0.4383030000000  0.5540370000000 1.0
C      1  0.5404090000000  0.4544110000000  0.5198080000000 1.0
C      1  0.5447740000000  0.4406140000000  0.4637050000000 1.0
C      1  0.5030010000000  0.4359350000000  0.4403670000000 1.0
C      1  0.4609020000000  0.4412420000000  0.4611950000000 1.0
C      1  0.5562740000000  0.5025940000000  0.5511220000000 1.0
C      1  0.5721470000000  0.5035080000000  0.4743680000000 1.0
C      1  0.5258810000000  0.5099130000000  0.4252290000000 1.0
C      1  0.4621870000000  0.5207820000000  0.4271390000000 1.0
C      1  0.4238410000000  0.5220070000000  0.4825430000000 1.0
C      1  0.4347160000000  0.5203440000000  0.5511920000000 1.0
C      1  0.4962490000000  0.5110350000000  0.5812020000000 1.0
C      1  0.4796650000000  0.5768130000000  0.4690700000000 1.0
C      1  0.4682620000000  0.5763040000000  0.5164350000000 1.0
C      1  0.4856600000000  0.5727760000000  0.5408730000000 1.0
C      1  0.5164420000000  0.5666730000000  0.5350180000000 1.0
C      1  0.5377550000000  0.5671970000000  0.5107020000000 1.0
C      1  0.5295060000000  0.5664500000000  0.4733260000000 1.0
C      1  0.5064550000000  0.5734810000000  0.4547470000000 1.0
C      1  0.4779940000000  0.4972650000000  0.4206500000000 1.0
C      1  0.4315860000000  0.5034840000000  0.4604740000000 1.0
C      1  0.4277550000000  0.4992120000000  0.5319670000000 1.0
C      1  0.4719730000000  0.4962750000000  0.5746420000000 1.0
C      1  0.5351840000000  0.4851170000000  0.5617050000000 1.0
C      1  0.5723710000000  0.4770220000000  0.4874200000000 1.0
C      1  0.5426160000000  0.4879340000000  0.4337910000000 1.0
C      1  0.5067020000000  0.6158400000000  0.5142740000000 1.0
C      1  0.4936590000000  0.4781460000000  0.5028120000000 1.0
C      1  0.4903170000000  0.5727020000000  0.4965520000000 1.0
C      1  0.5114830000000  0.5937020000000  0.5005510000000 1.0
C      1  0.4969070000000  0.4502610000000  0.4953920000000 1.0
C      1  0.5024490000000  0.5439150000000  0.4994180000000 1.0
END
