TITL C-3577087-600-753 -6.26089006787852e-07 125000 -341.41191179409 0 0 56 (C2) n - 1
REM
REM in /home/bkarasulu/work/CARBON/AIRSS/Generating-Clusters/EDIP-Nigel-Params/with-SteepDescent/Higher-Symm/SD-CG/HFTN-CG
REM
REM
REM
REM
REM
REM ./C.cell (12c818d87b63d06a65506943cc24bca4)
REM
REM compiler GCC version 9.2.1 20190827 (Red Hat 9.2.1-1)
REM options -cpp -mtune=generic -march=x86-64 -g -O0 -fpre-include=/usr/include/finclude/math-vector-fortran.h
REM seed 1823279557 278313380 -707165598 -244169912 -1555172797 -1955518213 -398884112 32641205 1318903393 1208426086 1974885127 1403427860 1903049235 -1094087547 -2012064055 142261002 -1349286346 -868094116 -632380705 554388501 -1148376033 775855117 -102627191 -1669072412 -570686564 -2064604523 201244718 -1450591392 697215705 -457766657 1897671750 -353287941 1634800844
REM
CELL 1.54180   50.00000   50.00000   50.00000   90.00000   90.00000   90.00000
LATT -1
SFAC C  
C      1  0.4327460000000  0.5045430000000  0.4862020000000 1.0
C      1  0.4327470000000  0.4954310000000  0.5137940000000 1.0
C      1  0.5666950000000  0.5045520000000  0.4861620000000 1.0
C      1  0.5666960000000  0.4954740000000  0.5138420000000 1.0
C      1  0.5328490000000  0.4411130000000  0.4786110000000 1.0
C      1  0.5328250000000  0.5589000000000  0.5213910000000 1.0
C      1  0.4667960000000  0.4413200000000  0.4782220000000 1.0
C      1  0.4667720000000  0.5586670000000  0.5217760000000 1.0
C      1  0.4860350000000  0.5241830000000  0.5593780000000 1.0
C      1  0.4860480000000  0.4758120000000  0.4406210000000 1.0
C      1  0.5131330000000  0.5242060000000  0.5589350000000 1.0
C      1  0.5131460000000  0.4757990000000  0.4410660000000 1.0
C      1  0.4442410000000  0.4835320000000  0.4689170000000 1.0
C      1  0.4442320000000  0.5164460000000  0.5310790000000 1.0
C      1  0.5548810000000  0.4835490000000  0.4691920000000 1.0
C      1  0.5548720000000  0.5164720000000  0.5308120000000 1.0
C      1  0.4739930000000  0.4641480000000  0.5190620000000 1.0
C      1  0.4739810000000  0.5358420000000  0.4809360000000 1.0
C      1  0.5264010000000  0.4625560000000  0.5204370000000 1.0
C      1  0.5263870000000  0.5374540000000  0.4795650000000 1.0
C      1  0.4863430000000  0.4503680000000  0.4962070000000 1.0
C      1  0.4863230000000  0.5496270000000  0.5037920000000 1.0
C      1  0.5142820000000  0.4461280000000  0.4988670000000 1.0
C      1  0.5142610000000  0.5538780000000  0.5011340000000 1.0
C      1  0.4708390000000  0.4473880000000  0.5445080000000 1.0
C      1  0.4708210000000  0.5526000000000  0.4554900000000 1.0
C      1  0.5308250000000  0.4473210000000  0.5462620000000 1.0
C      1  0.5308070000000  0.5526910000000  0.4537400000000 1.0
C      1  0.5543610000000  0.4585370000000  0.4852510000000 1.0
C      1  0.5543430000000  0.5414840000000  0.5147530000000 1.0
C      1  0.4445360000000  0.4581830000000  0.4847340000000 1.0
C      1  0.4445180000000  0.5417950000000  0.5152620000000 1.0
C      1  0.5574860000000  0.5334640000000  0.4842450000000 1.0
C      1  0.5574980000000  0.4665580000000  0.5157580000000 1.0
C      1  0.4425630000000  0.5331260000000  0.4846460000000 1.0
C      1  0.4425750000000  0.4668520000000  0.5153500000000 1.0
C      1  0.4855780000000  0.5096010000000  0.4740670000000 1.0
C      1  0.4855800000000  0.4903930000000  0.5259320000000 1.0
C      1  0.5144470000000  0.5106690000000  0.4733800000000 1.0
C      1  0.5144500000000  0.4893370000000  0.5266210000000 1.0
C      1  0.4857380000000  0.5416070000000  0.4325340000000 1.0
C      1  0.4857500000000  0.4583870000000  0.5674650000000 1.0
C      1  0.5149130000000  0.5414210000000  0.4316830000000 1.0
C      1  0.5149250000000  0.4585850000000  0.5683180000000 1.0
C      1  0.4443500000000  0.5393190000000  0.4482290000000 1.0
C      1  0.4443620000000  0.4606590000000  0.5517680000000 1.0
C      1  0.5563890000000  0.5381690000000  0.4469680000000 1.0
C      1  0.5564010000000  0.4618530000000  0.5530350000000 1.0
C      1  0.5417600000000  0.5152740000000  0.4339970000000 1.0
C      1  0.5417610000000  0.4847420000000  0.5660050000000 1.0
C      1  0.4582900000000  0.5161750000000  0.4347220000000 1.0
C      1  0.4582930000000  0.4838090000000  0.5652760000000 1.0
C      1  0.5308690000000  0.4949220000000  0.4535930000000 1.0
C      1  0.5308640000000  0.5050900000000  0.5464090000000 1.0
C      1  0.4687140000000  0.4949120000000  0.4537460000000 1.0
C      1  0.4687090000000  0.5050760000000  0.5462520000000 1.0
END
