TITL C-3578199-7832-381 1.9440839852609e-06 125000 -1252.19721484283 0 0 198 (C1) n - 1
REM
REM in /home/bkarasulu/work/CARBON/AIRSS/Generating-Clusters/EDIP-Nigel-Params/with-SteepDescent/Higher-Symm/SD-CG/HFTN-CG
REM
REM
REM
REM
REM
REM ./C.cell (12c818d87b63d06a65506943cc24bca4)
REM
REM compiler GCC version 9.2.1 20190827 (Red Hat 9.2.1-1)
REM options -cpp -mtune=generic -march=x86-64 -g -O0 -fpre-include=/usr/include/finclude/math-vector-fortran.h
REM seed -1587455891 -1901810111 1634431586 516690916 1582946951 823079060 -981088303 -1042527494 431869110 748556450 2120283865 2035279371 -389522721 -1990801580 1097870226 -328895576 -1249233817 -228429251 -326690322 -1048357923 -1486329301 -1101139941 -1538434211 1746071557 2097410874 385353616 -2114895687 1598719505 1833137513 226818463 105326377 -1827564057 1379315272
REM
CELL 1.54180   50.00000   50.00000   50.00000   90.00000   90.00000   90.00000
LATT -1
SFAC C  
C      1  0.5584910000000  0.5815040000000  0.4516560000000 1.0
C      1  0.4742680000000  0.6058130000000  0.4492650000000 1.0
C      1  0.4112110000000  0.5398460000000  0.4493830000000 1.0
C      1  0.4028510000000  0.4469670000000  0.4474870000000 1.0
C      1  0.4812220000000  0.4038460000000  0.4600610000000 1.0
C      1  0.5645030000000  0.4256340000000  0.4531850000000 1.0
C      1  0.5990390000000  0.5059060000000  0.4478400000000 1.0
C      1  0.4271300000000  0.4404980000000  0.5443860000000 1.0
C      1  0.4990950000000  0.3934850000000  0.5506080000000 1.0
C      1  0.5788840000000  0.4383830000000  0.5441280000000 1.0
C      1  0.6128300000000  0.5200400000000  0.5386310000000 1.0
C      1  0.5470880000000  0.5866620000000  0.5460680000000 1.0
C      1  0.4550700000000  0.5922270000000  0.5453370000000 1.0
C      1  0.3910770000000  0.5258550000000  0.5399500000000 1.0
C      1  0.4284570000000  0.4203340000000  0.5233520000000 1.0
C      1  0.5149290000000  0.3916050000000  0.5248940000000 1.0
C      1  0.5956940000000  0.4436640000000  0.5195880000000 1.0
C      1  0.6039960000000  0.5364380000000  0.5162850000000 1.0
C      1  0.5345310000000  0.5993840000000  0.5210840000000 1.0
C      1  0.4407640000000  0.5902740000000  0.5189460000000 1.0
C      1  0.3843660000000  0.5152900000000  0.5124920000000 1.0
C      1  0.5838000000000  0.4547600000000  0.5679390000000 1.0
C      1  0.5651750000000  0.5214980000000  0.5617550000000 1.0
C      1  0.5256190000000  0.5749250000000  0.5653160000000 1.0
C      1  0.4507870000000  0.5680630000000  0.5634350000000 1.0
C      1  0.4378370000000  0.5056050000000  0.5480770000000 1.0
C      1  0.4412210000000  0.4409020000000  0.5704750000000 1.0
C      1  0.5150710000000  0.4034040000000  0.5740570000000 1.0
C      1  0.5117860000000  0.4439250000000  0.4968380000000 1.0
C      1  0.5543150000000  0.4840490000000  0.4921550000000 1.0
C      1  0.5487840000000  0.5321370000000  0.4912560000000 1.0
C      1  0.5066960000000  0.5582730000000  0.4886560000000 1.0
C      1  0.4573590000000  0.5428780000000  0.4885140000000 1.0
C      1  0.4354420000000  0.4951070000000  0.4890920000000 1.0
C      1  0.4636580000000  0.4507370000000  0.4928660000000 1.0
C      1  0.4451640000000  0.4648330000000  0.4191200000000 1.0
C      1  0.4904580000000  0.4455610000000  0.4078400000000 1.0
C      1  0.5358100000000  0.4552600000000  0.4242660000000 1.0
C      1  0.5580900000000  0.5001250000000  0.4086680000000 1.0
C      1  0.5353510000000  0.5524810000000  0.4025380000000 1.0
C      1  0.4879040000000  0.5582660000000  0.4199530000000 1.0
C      1  0.4504070000000  0.5293350000000  0.4029020000000 1.0
C      1  0.6057730000000  0.4886680000000  0.4919840000000 1.0
C      1  0.5751820000000  0.5745040000000  0.4961580000000 1.0
C      1  0.4884850000000  0.6068100000000  0.4949870000000 1.0
C      1  0.4070240000000  0.5610700000000  0.4920060000000 1.0
C      1  0.3933780000000  0.4663880000000  0.4895640000000 1.0
C      1  0.4636550000000  0.3930810000000  0.5025690000000 1.0
C      1  0.5609770000000  0.4095580000000  0.4976680000000 1.0
C      1  0.5565980000000  0.4572660000000  0.5041280000000 1.0
C      1  0.5696720000000  0.5108180000000  0.5039100000000 1.0
C      1  0.5348150000000  0.5588780000000  0.5043550000000 1.0
C      1  0.4791340000000  0.5649480000000  0.5017140000000 1.0
C      1  0.4317350000000  0.5255820000000  0.4998100000000 1.0
C      1  0.4353280000000  0.4616140000000  0.5027230000000 1.0
C      1  0.4854900000000  0.4307200000000  0.5060410000000 1.0
C      1  0.4735160000000  0.4142800000000  0.5976060000000 1.0
C      1  0.5390820000000  0.4407380000000  0.5840390000000 1.0
C      1  0.5985240000000  0.4958270000000  0.5884410000000 1.0
C      1  0.5624050000000  0.5600740000000  0.5901470000000 1.0
C      1  0.4862410000000  0.5845990000000  0.5901870000000 1.0
C      1  0.4222530000000  0.5359600000000  0.5849430000000 1.0
C      1  0.4214060000000  0.4874620000000  0.5845290000000 1.0
C      1  0.6078620000000  0.5287500000000  0.4632170000000 1.0
C      1  0.5466430000000  0.6024680000000  0.4682670000000 1.0
C      1  0.4521330000000  0.5978650000000  0.4649210000000 1.0
C      1  0.3904390000000  0.5241120000000  0.4622760000000 1.0
C      1  0.4155640000000  0.4302870000000  0.4672520000000 1.0
C      1  0.5031230000000  0.3892090000000  0.4739540000000 1.0
C      1  0.5867000000000  0.4375350000000  0.4675440000000 1.0
C      1  0.4746670000000  0.4855370000000  0.6196520000000 1.0
C      1  0.4921360000000  0.4685770000000  0.6332080000000 1.0
C      1  0.5164490000000  0.4641160000000  0.6202240000000 1.0
C      1  0.5319500000000  0.4889860000000  0.6120020000000 1.0
C      1  0.5200700000000  0.5164050000000  0.6120220000000 1.0
C      1  0.5019000000000  0.5244420000000  0.6317050000000 1.0
C      1  0.4784920000000  0.5119380000000  0.6274490000000 1.0
C      1  0.5014730000000  0.5298530000000  0.4856550000000 1.0
C      1  0.4757860000000  0.5217940000000  0.4937920000000 1.0
C      1  0.4642650000000  0.4970520000000  0.4886800000000 1.0
C      1  0.4779230000000  0.4750470000000  0.4983740000000 1.0
C      1  0.5054800000000  0.4713880000000  0.4946840000000 1.0
C      1  0.5267520000000  0.4898330000000  0.4981790000000 1.0
C      1  0.5241140000000  0.5170490000000  0.4946210000000 1.0
C      1  0.5719330000000  0.5677510000000  0.5437340000000 1.0
C      1  0.4865910000000  0.5909360000000  0.5415830000000 1.0
C      1  0.4141260000000  0.5478440000000  0.5392160000000 1.0
C      1  0.4050000000000  0.4796120000000  0.5345200000000 1.0
C      1  0.4723820000000  0.4100840000000  0.5478400000000 1.0
C      1  0.5557200000000  0.4191480000000  0.5446090000000 1.0
C      1  0.6032110000000  0.4910130000000  0.5403240000000 1.0
C      1  0.5173380000000  0.4085300000000  0.4302840000000 1.0
C      1  0.5841060000000  0.4615620000000  0.4250300000000 1.0
C      1  0.5824330000000  0.5454590000000  0.4251650000000 1.0
C      1  0.5209890000000  0.5956440000000  0.4259570000000 1.0
C      1  0.4421040000000  0.5725510000000  0.4242880000000 1.0
C      1  0.4043600000000  0.5026950000000  0.4194180000000 1.0
C      1  0.4496590000000  0.4195100000000  0.4330970000000 1.0
C      1  0.4603030000000  0.4924260000000  0.4249030000000 1.0
C      1  0.4824420000000  0.4728270000000  0.4416370000000 1.0
C      1  0.5147330000000  0.4771610000000  0.4273920000000 1.0
C      1  0.5248000000000  0.4968860000000  0.4482830000000 1.0
C      1  0.5258120000000  0.5242280000000  0.4344600000000 1.0
C      1  0.4969540000000  0.5305460000000  0.4274580000000 1.0
C      1  0.4786130000000  0.5169950000000  0.4456640000000 1.0
C      1  0.4923080000000  0.4692500000000  0.3903880000000 1.0
C      1  0.5174340000000  0.4812300000000  0.3858760000000 1.0
C      1  0.5317290000000  0.5030600000000  0.3961480000000 1.0
C      1  0.5214850000000  0.5289290000000  0.3906100000000 1.0
C      1  0.4942910000000  0.5283450000000  0.3835470000000 1.0
C      1  0.4700390000000  0.5146570000000  0.3879320000000 1.0
C      1  0.4691290000000  0.4860000000000  0.3882010000000 1.0
C      1  0.4381750000000  0.4142570000000  0.4586300000000 1.0
C      1  0.5254710000000  0.4018390000000  0.4588450000000 1.0
C      1  0.5911260000000  0.4610820000000  0.4520850000000 1.0
C      1  0.5929420000000  0.5500360000000  0.4509030000000 1.0
C      1  0.5215270000000  0.6063120000000  0.4531320000000 1.0
C      1  0.4361820000000  0.5791630000000  0.4508910000000 1.0
C      1  0.3947110000000  0.4984700000000  0.4467640000000 1.0
C      1  0.5012210000000  0.4171070000000  0.5973790000000 1.0
C      1  0.5619040000000  0.4575660000000  0.5874930000000 1.0
C      1  0.5723910000000  0.5053280000000  0.5860730000000 1.0
C      1  0.5346920000000  0.5600300000000  0.5893060000000 1.0
C      1  0.4726050000000  0.5610300000000  0.5834190000000 1.0
C      1  0.4350230000000  0.5119330000000  0.5783690000000 1.0
C      1  0.4435980000000  0.4684680000000  0.5843500000000 1.0
C      1  0.5137480000000  0.5730440000000  0.4104780000000 1.0
C      1  0.4592020000000  0.5568170000000  0.4085970000000 1.0
C      1  0.4230870000000  0.5192940000000  0.4061820000000 1.0
C      1  0.4622040000000  0.4404780000000  0.4179450000000 1.0
C      1  0.5173030000000  0.4327570000000  0.4139920000000 1.0
C      1  0.5607220000000  0.4691540000000  0.4119350000000 1.0
C      1  0.5603440000000  0.5340410000000  0.4117140000000 1.0
C      1  0.5345050000000  0.5181900000000  0.5613250000000 1.0
C      1  0.5032650000000  0.5438110000000  0.5432330000000 1.0
C      1  0.4811080000000  0.5058660000000  0.5455470000000 1.0
C      1  0.4663100000000  0.4808380000000  0.5402530000000 1.0
C      1  0.4901070000000  0.4609420000000  0.5481280000000 1.0
C      1  0.5178780000000  0.4721550000000  0.5376950000000 1.0
C      1  0.5331810000000  0.4875430000000  0.5629380000000 1.0
C      1  0.5362760000000  0.5597480000000  0.4456840000000 1.0
C      1  0.4805440000000  0.5686760000000  0.4476360000000 1.0
C      1  0.4350680000000  0.5221810000000  0.4433070000000 1.0
C      1  0.4366690000000  0.4639100000000  0.4480320000000 1.0
C      1  0.4915110000000  0.4305970000000  0.4491530000000 1.0
C      1  0.5438290000000  0.4491080000000  0.4527100000000 1.0
C      1  0.5678060000000  0.5076820000000  0.4453770000000 1.0
C      1  0.5408820000000  0.4169390000000  0.5692780000000 1.0
C      1  0.6017740000000  0.4780200000000  0.5671620000000 1.0
C      1  0.5737490000000  0.5499000000000  0.5666960000000 1.0
C      1  0.5011580000000  0.5908990000000  0.5676200000000 1.0
C      1  0.4239570000000  0.5564830000000  0.5661680000000 1.0
C      1  0.4003510000000  0.5000630000000  0.5548310000000 1.0
C      1  0.4593360000000  0.4178030000000  0.5739070000000 1.0
C      1  0.4920500000000  0.4611640000000  0.5784320000000 1.0
C      1  0.5122660000000  0.4458110000000  0.5962100000000 1.0
C      1  0.5506550000000  0.4847850000000  0.5885880000000 1.0
C      1  0.5214690000000  0.5331370000000  0.5864500000000 1.0
C      1  0.4927870000000  0.5376980000000  0.5744290000000 1.0
C      1  0.4788050000000  0.5098590000000  0.5742090000000 1.0
C      1  0.4719510000000  0.4812140000000  0.5897780000000 1.0
C      1  0.4960300000000  0.6118410000000  0.4668870000000 1.0
C      1  0.4206450000000  0.5611300000000  0.4660980000000 1.0
C      1  0.3935130000000  0.4710010000000  0.4604880000000 1.0
C      1  0.4589240000000  0.4087240000000  0.4779630000000 1.0
C      1  0.5538300000000  0.4032750000000  0.4691600000000 1.0
C      1  0.6060180000000  0.4821200000000  0.4634900000000 1.0
C      1  0.5790320000000  0.5688120000000  0.4677260000000 1.0
C      1  0.5768050000000  0.4361270000000  0.4964860000000 1.0
C      1  0.6057720000000  0.5189430000000  0.4915710000000 1.0
C      1  0.5516530000000  0.5932390000000  0.4964990000000 1.0
C      1  0.4593640000000  0.5977420000000  0.4942350000000 1.0
C      1  0.3950340000000  0.5330390000000  0.4907730000000 1.0
C      1  0.4123600000000  0.4414510000000  0.4952550000000 1.0
C      1  0.4945380000000  0.3934570000000  0.5022210000000 1.0
C      1  0.4178670000000  0.5701210000000  0.5177620000000 1.0
C      1  0.3963540000000  0.4883240000000  0.5089680000000 1.0
C      1  0.4507220000000  0.4015430000000  0.5274580000000 1.0
C      1  0.5413020000000  0.4088250000000  0.5208990000000 1.0
C      1  0.6069070000000  0.4723200000000  0.5167540000000 1.0
C      1  0.5834130000000  0.5581670000000  0.5185500000000 1.0
C      1  0.5043640000000  0.6040800000000  0.5197900000000 1.0
C      1  0.5090190000000  0.5699630000000  0.4609350000000 1.0
C      1  0.4602540000000  0.5426130000000  0.4576590000000 1.0
C      1  0.4316560000000  0.4933480000000  0.4587420000000 1.0
C      1  0.4640860000000  0.4498780000000  0.4614730000000 1.0
C      1  0.5174490000000  0.4391210000000  0.4667800000000 1.0
C      1  0.5532930000000  0.4818910000000  0.4614220000000 1.0
C      1  0.5530580000000  0.5341670000000  0.4598400000000 1.0
C      1  0.4312680000000  0.4661810000000  0.5323260000000 1.0
C      1  0.4839310000000  0.4344810000000  0.5353080000000 1.0
C      1  0.5332080000000  0.4469300000000  0.5191970000000 1.0
C      1  0.5762560000000  0.5078910000000  0.5353570000000 1.0
C      1  0.5316840000000  0.5526270000000  0.5345920000000 1.0
C      1  0.4842280000000  0.5626200000000  0.5308320000000 1.0
C      1  0.4344000000000  0.5286270000000  0.5295740000000 1.0
C      1  0.5091580000000  0.5070210000000  0.5344410000000 1.0
C      1  0.4964370000000  0.4945800000000  0.4599690000000 1.0
END
