TITL C-3577078-809-437 -1.90682533393809e-06 125000 -1059.5448271251 0 0 170 (C1) n - 1
REM
REM in /home/bkarasulu/work/CARBON/AIRSS/Generating-Clusters/EDIP-Nigel-Params/with-SteepDescent/Higher-Symm/SD-CG/HFTN-CG
REM
REM
REM
REM
REM
REM ./C.cell (12c818d87b63d06a65506943cc24bca4)
REM
REM compiler GCC version 9.2.1 20190827 (Red Hat 9.2.1-1)
REM options -cpp -mtune=generic -march=x86-64 -g -O0 -fpre-include=/usr/include/finclude/math-vector-fortran.h
REM seed 1668574453 -1926874097 -514124712 1543101089 -1985189653 1410202520 -1257962000 -1994098142 1938463477 433266672 -933849846 -857423388 677218113 -118981955 1892229011 612613699 -1933919582 -116786066 485289644 -1011507064 1565031149 -1497878914 1790000745 1803258425 -505321508 -234622801 -56716793 1993832669 -353032841 835363878 -983259165 47811289 1625232404
REM
CELL 1.54180   50.00000   50.00000   50.00000   90.00000   90.00000   90.00000
LATT -1
SFAC C  
C      1  0.5875830000000  0.5472180000000  0.5342780000000 1.0
C      1  0.5840160000000  0.4624720000000  0.5426070000000 1.0
C      1  0.5358870000000  0.4085480000000  0.5215920000000 1.0
C      1  0.4323410000000  0.4154240000000  0.5287180000000 1.0
C      1  0.3978660000000  0.4707180000000  0.5336150000000 1.0
C      1  0.4089620000000  0.5457170000000  0.5400190000000 1.0
C      1  0.5236610000000  0.5934840000000  0.5162000000000 1.0
C      1  0.5161430000000  0.4324010000000  0.4129330000000 1.0
C      1  0.4374830000000  0.4384280000000  0.4341870000000 1.0
C      1  0.4274190000000  0.5171280000000  0.4150700000000 1.0
C      1  0.4635730000000  0.5606630000000  0.4157890000000 1.0
C      1  0.5180720000000  0.5693740000000  0.4200030000000 1.0
C      1  0.5859450000000  0.5332710000000  0.4351260000000 1.0
C      1  0.5628690000000  0.4580060000000  0.4152770000000 1.0
C      1  0.3917120000000  0.5409190000000  0.4717730000000 1.0
C      1  0.4669840000000  0.5940110000000  0.4890470000000 1.0
C      1  0.5525350000000  0.5826100000000  0.4763810000000 1.0
C      1  0.6013490000000  0.5064950000000  0.4846370000000 1.0
C      1  0.5632270000000  0.4214870000000  0.4817610000000 1.0
C      1  0.4840910000000  0.4017370000000  0.4688880000000 1.0
C      1  0.4121710000000  0.4575330000000  0.4867510000000 1.0
C      1  0.4934090000000  0.5559050000000  0.4079010000000 1.0
C      1  0.5396130000000  0.5492000000000  0.4158920000000 1.0
C      1  0.5703710000000  0.4880190000000  0.4119620000000 1.0
C      1  0.5365470000000  0.4529100000000  0.4035080000000 1.0
C      1  0.4852740000000  0.4380230000000  0.4066980000000 1.0
C      1  0.4335400000000  0.4867890000000  0.4116770000000 1.0
C      1  0.4516230000000  0.5337330000000  0.4060540000000 1.0
C      1  0.5666670000000  0.4916510000000  0.5146350000000 1.0
C      1  0.5299980000000  0.4485550000000  0.5043970000000 1.0
C      1  0.4834430000000  0.4412500000000  0.5103870000000 1.0
C      1  0.4413870000000  0.4831140000000  0.5137670000000 1.0
C      1  0.4459800000000  0.5332310000000  0.5182900000000 1.0
C      1  0.4921080000000  0.5647460000000  0.5283930000000 1.0
C      1  0.5436020000000  0.5493920000000  0.5080980000000 1.0
C      1  0.4820570000000  0.4546360000000  0.5975250000000 1.0
C      1  0.4765920000000  0.4872780000000  0.5952300000000 1.0
C      1  0.4592030000000  0.5123710000000  0.6042150000000 1.0
C      1  0.4774470000000  0.5371050000000  0.6041300000000 1.0
C      1  0.5053460000000  0.5276260000000  0.5948650000000 1.0
C      1  0.5373280000000  0.5291890000000  0.6065350000000 1.0
C      1  0.5444500000000  0.5009990000000  0.6163000000000 1.0
C      1  0.4623930000000  0.4458960000000  0.4896550000000 1.0
C      1  0.4318320000000  0.4988110000000  0.4906220000000 1.0
C      1  0.4554280000000  0.5521340000000  0.4974070000000 1.0
C      1  0.5071000000000  0.5627700000000  0.4787340000000 1.0
C      1  0.5599850000000  0.5363940000000  0.4872710000000 1.0
C      1  0.5641160000000  0.4733220000000  0.4908040000000 1.0
C      1  0.5181760000000  0.4362860000000  0.4788240000000 1.0
C      1  0.3843760000000  0.5130590000000  0.4719690000000 1.0
C      1  0.4357960000000  0.5892300000000  0.4856660000000 1.0
C      1  0.5374220000000  0.6005990000000  0.4579340000000 1.0
C      1  0.6164400000000  0.5302530000000  0.4756910000000 1.0
C      1  0.5916900000000  0.4337640000000  0.4750340000000 1.0
C      1  0.5041050000000  0.3963090000000  0.4468680000000 1.0
C      1  0.4113630000000  0.4277540000000  0.4805630000000 1.0
C      1  0.4358870000000  0.4684500000000  0.4386530000000 1.0
C      1  0.4229400000000  0.5198370000000  0.4441560000000 1.0
C      1  0.4626730000000  0.5664780000000  0.4476190000000 1.0
C      1  0.5646340000000  0.5521290000000  0.4300410000000 1.0
C      1  0.5777620000000  0.5041320000000  0.4384880000000 1.0
C      1  0.5587350000000  0.4542660000000  0.4440780000000 1.0
C      1  0.4653060000000  0.4304150000000  0.4287580000000 1.0
C      1  0.5608790000000  0.4497460000000  0.5557720000000 1.0
C      1  0.5079100000000  0.4009480000000  0.5261950000000 1.0
C      1  0.4241970000000  0.4345300000000  0.5497310000000 1.0
C      1  0.4213000000000  0.4903230000000  0.5379160000000 1.0
C      1  0.4382950000000  0.5497870000000  0.5421390000000 1.0
C      1  0.5373210000000  0.5895260000000  0.5417700000000 1.0
C      1  0.5894450000000  0.5190690000000  0.5406050000000 1.0
C      1  0.5380400000000  0.5031660000000  0.5559090000000 1.0
C      1  0.5122960000000  0.4615330000000  0.5655590000000 1.0
C      1  0.4842920000000  0.4633700000000  0.5540150000000 1.0
C      1  0.4697050000000  0.4890590000000  0.5652260000000 1.0
C      1  0.4760170000000  0.5179930000000  0.5546530000000 1.0
C      1  0.5019380000000  0.5328190000000  0.5642750000000 1.0
C      1  0.5278200000000  0.5299200000000  0.5499720000000 1.0
C      1  0.4836440000000  0.4166310000000  0.5261130000000 1.0
C      1  0.3991930000000  0.4454470000000  0.5453230000000 1.0
C      1  0.4064800000000  0.5173170000000  0.5307050000000 1.0
C      1  0.4447510000000  0.5784320000000  0.5330740000000 1.0
C      1  0.5650440000000  0.5633820000000  0.5435580000000 1.0
C      1  0.5912010000000  0.4902930000000  0.5450170000000 1.0
C      1  0.5504200000000  0.4285030000000  0.5382760000000 1.0
C      1  0.4626150000000  0.4803090000000  0.4472560000000 1.0
C      1  0.4530680000000  0.5108050000000  0.4508020000000 1.0
C      1  0.4751890000000  0.5399790000000  0.4531660000000 1.0
C      1  0.5010520000000  0.5339570000000  0.4394150000000 1.0
C      1  0.5510570000000  0.5056530000000  0.4480780000000 1.0
C      1  0.5396540000000  0.4786800000000  0.4481950000000 1.0
C      1  0.4939350000000  0.4608470000000  0.4370270000000 1.0
C      1  0.6035490000000  0.5447080000000  0.4545910000000 1.0
C      1  0.5860910000000  0.4567370000000  0.4568950000000 1.0
C      1  0.5245170000000  0.4148210000000  0.4359890000000 1.0
C      1  0.4306750000000  0.4197140000000  0.4583050000000 1.0
C      1  0.4022990000000  0.5000700000000  0.4531400000000 1.0
C      1  0.4365210000000  0.5654240000000  0.4651760000000 1.0
C      1  0.5155460000000  0.5874230000000  0.4433480000000 1.0
C      1  0.6075190000000  0.5570700000000  0.5177660000000 1.0
C      1  0.5986230000000  0.4478890000000  0.5238410000000 1.0
C      1  0.5477780000000  0.3987950000000  0.4958700000000 1.0
C      1  0.4582580000000  0.4053320000000  0.5282390000000 1.0
C      1  0.3904320000000  0.4711680000000  0.5046460000000 1.0
C      1  0.4013690000000  0.5653210000000  0.5201960000000 1.0
C      1  0.5246320000000  0.6183180000000  0.5031780000000 1.0
C      1  0.5356810000000  0.4770580000000  0.4782980000000 1.0
C      1  0.4994970000000  0.4552390000000  0.4654350000000 1.0
C      1  0.4761980000000  0.4705940000000  0.4762800000000 1.0
C      1  0.4560350000000  0.5098440000000  0.4795660000000 1.0
C      1  0.4741210000000  0.5340830000000  0.4829760000000 1.0
C      1  0.5198170000000  0.5438860000000  0.4597020000000 1.0
C      1  0.5388840000000  0.5223850000000  0.4702260000000 1.0
C      1  0.4150200000000  0.5212800000000  0.5021570000000 1.0
C      1  0.4676480000000  0.5753320000000  0.5140710000000 1.0
C      1  0.5306270000000  0.5728590000000  0.4955370000000 1.0
C      1  0.5802250000000  0.5172270000000  0.5030430000000 1.0
C      1  0.5602630000000  0.4441770000000  0.5040220000000 1.0
C      1  0.5054950000000  0.4095150000000  0.4885330000000 1.0
C      1  0.4373360000000  0.4566930000000  0.5023680000000 1.0
C      1  0.5699710000000  0.5586670000000  0.4674280000000 1.0
C      1  0.5882790000000  0.4872840000000  0.4639680000000 1.0
C      1  0.5424360000000  0.4295200000000  0.4575970000000 1.0
C      1  0.4622330000000  0.4233320000000  0.4664830000000 1.0
C      1  0.4174420000000  0.4766770000000  0.4622460000000 1.0
C      1  0.4147530000000  0.5465850000000  0.4561060000000 1.0
C      1  0.4848550000000  0.5820410000000  0.4658490000000 1.0
C      1  0.5301330000000  0.4770480000000  0.3886310000000 1.0
C      1  0.4808730000000  0.4665060000000  0.3950540000000 1.0
C      1  0.4602200000000  0.4876620000000  0.3987740000000 1.0
C      1  0.4718340000000  0.5150240000000  0.3965830000000 1.0
C      1  0.4997470000000  0.5280730000000  0.3968820000000 1.0
C      1  0.5296650000000  0.5243730000000  0.4031290000000 1.0
C      1  0.5467700000000  0.4999730000000  0.3965610000000 1.0
C      1  0.4535850000000  0.5361190000000  0.5661880000000 1.0
C      1  0.4959250000000  0.5631440000000  0.5596230000000 1.0
C      1  0.5453450000000  0.5512430000000  0.5625520000000 1.0
C      1  0.5627150000000  0.5076070000000  0.5736240000000 1.0
C      1  0.5474740000000  0.4595590000000  0.5819700000000 1.0
C      1  0.4681500000000  0.4438850000000  0.5724760000000 1.0
C      1  0.4369170000000  0.4873140000000  0.5661060000000 1.0
C      1  0.5246410000000  0.5746150000000  0.5649620000000 1.0
C      1  0.5573960000000  0.5352790000000  0.5856880000000 1.0
C      1  0.5595320000000  0.4860190000000  0.5942640000000 1.0
C      1  0.5113690000000  0.4498050000000  0.5925460000000 1.0
C      1  0.4401960000000  0.4491500000000  0.5691870000000 1.0
C      1  0.4380010000000  0.5149570000000  0.5827760000000 1.0
C      1  0.4691780000000  0.5566400000000  0.5825630000000 1.0
C      1  0.4224440000000  0.5841620000000  0.5139950000000 1.0
C      1  0.5284240000000  0.6201100000000  0.4762970000000 1.0
C      1  0.6219850000000  0.5468120000000  0.4975850000000 1.0
C      1  0.6046190000000  0.4408710000000  0.4986510000000 1.0
C      1  0.5258870000000  0.3899740000000  0.4785180000000 1.0
C      1  0.4170080000000  0.4139590000000  0.5049450000000 1.0
C      1  0.3837580000000  0.4988120000000  0.4973870000000 1.0
C      1  0.5247760000000  0.5300870000000  0.5197280000000 1.0
C      1  0.5386720000000  0.4939780000000  0.5261920000000 1.0
C      1  0.5185270000000  0.4723970000000  0.5186820000000 1.0
C      1  0.4891800000000  0.4672430000000  0.5242250000000 1.0
C      1  0.4707370000000  0.4895060000000  0.5159660000000 1.0
C      1  0.4732740000000  0.5181860000000  0.5250690000000 1.0
C      1  0.4964660000000  0.5386340000000  0.5142710000000 1.0
C      1  0.5078320000000  0.4928820000000  0.6449810000000 1.0
C      1  0.5136570000000  0.4816360000000  0.4284830000000 1.0
C      1  0.5034870000000  0.4842280000000  0.3914630000000 1.0
C      1  0.5188370000000  0.4875480000000  0.6213350000000 1.0
C      1  0.5167820000000  0.4891280000000  0.5706080000000 1.0
C      1  0.5229380000000  0.5023610000000  0.4861790000000 1.0
C      1  0.4976080000000  0.4989670000000  0.4718070000000 1.0
C      1  0.5046830000000  0.4976140000000  0.5962690000000 1.0
C      1  0.4998120000000  0.5043020000000  0.4427290000000 1.0
END
