TITL C-3577085-527-638 5.24194943938939e-07 125000 -135.963723851424 0 0 26 (D2) n - 1
REM
REM in /home/bkarasulu/work/CARBON/AIRSS/Generating-Clusters/EDIP-Nigel-Params/with-SteepDescent/Higher-Symm/SD-CG/HFTN-CG
REM
REM
REM
REM
REM
REM ./C.cell (12c818d87b63d06a65506943cc24bca4)
REM
REM compiler GCC version 9.2.1 20190827 (Red Hat 9.2.1-1)
REM options -cpp -mtune=generic -march=x86-64 -g -O0 -fpre-include=/usr/include/finclude/math-vector-fortran.h
REM seed -1693216436 2115197034 1047924461 -1426827100 1738680694 1583340026 1121932099 -1271857686 -1560555266 -655923306 697977166 -868082663 -339638376 -1373558316 1875334426 189075010 -1550811248 -1445700285 -693271422 -756506489 -1298043233 2114270584 -1500929060 -739284998 992077072 212999035 2023804053 -380224195 1254228142 -853772422 1906572549 -1462858771 -1921151160
REM
CELL 1.54180   50.00000   50.00000   50.00000   90.00000   90.00000   90.00000
LATT -1
SFAC C  
C      1  0.5452580000000  0.5049170000000  0.5255990000000 1.0
C      1  0.5453460000000  0.4950910000000  0.4745690000000 1.0
C      1  0.4471950000000  0.4950320000000  0.5254220000000 1.0
C      1  0.4472810000000  0.5049590000000  0.4744100000000 1.0
C      1  0.4509760000000  0.5101040000000  0.4260170000000 1.0
C      1  0.4507240000000  0.4898880000000  0.5738270000000 1.0
C      1  0.5418170000000  0.4900430000000  0.4261530000000 1.0
C      1  0.5415620000000  0.5099660000000  0.5740030000000 1.0
C      1  0.4615730000000  0.4879010000000  0.5476810000000 1.0
C      1  0.4617350000000  0.5120930000000  0.4522000000000 1.0
C      1  0.5308030000000  0.5120050000000  0.5478230000000 1.0
C      1  0.5309690000000  0.4880010000000  0.4522950000000 1.0
C      1  0.5095770000000  0.4957390000000  0.5573210000000 1.0
C      1  0.5097730000000  0.5042630000000  0.4427250000000 1.0
C      1  0.4827670000000  0.5041480000000  0.5572830000000 1.0
C      1  0.4829640000000  0.4958500000000  0.4426710000000 1.0
C      1  0.5440640000000  0.5469480000000  0.6113480000000 1.0
C      1  0.5444540000000  0.4530600000000  0.3888160000000 1.0
C      1  0.4480950000000  0.4528320000000  0.6110910000000 1.0
C      1  0.4484680000000  0.5471600000000  0.3887450000000 1.0
C      1  0.4504670000000  0.4695240000000  0.5918480000000 1.0
C      1  0.4507770000000  0.5304680000000  0.4079960000000 1.0
C      1  0.5417580000000  0.5302940000000  0.5920640000000 1.0
C      1  0.5420790000000  0.4697140000000  0.4080920000000 1.0
C      1  0.4422280000000  0.4999950000000  0.4999070000000 1.0
C      1  0.5503120000000  0.5000050000000  0.5000930000000 1.0
END
