TITL C-3577076-40-164 8.06101767709383e-07 125000 -595.699904725871 0 0 102 (Ci) n - 1
REM
REM in /home/bkarasulu/work/CARBON/AIRSS/Generating-Clusters/EDIP-Nigel-Params/with-SteepDescent/Higher-Symm/SD-CG/HFTN-CG
REM
REM
REM
REM
REM
REM ./C.cell (12c818d87b63d06a65506943cc24bca4)
REM
REM compiler GCC version 9.2.1 20190827 (Red Hat 9.2.1-1)
REM options -cpp -mtune=generic -march=x86-64 -g -O0 -fpre-include=/usr/include/finclude/math-vector-fortran.h
REM seed 496519298 1038952497 -1381558218 -296316908 -1101704635 -1483156159 2003079713 -289457714 1776500756 -1191628494 -834960377 358947390 1665780702 -1361108544 -383424779 -507835846 -1688275518 -774987271 2031724764 -662461916 1980956628 -2021410268 1046027068 1799822035 -1288455487 413046487 -1790311730 -360863140 1975677913 -414248124 -168983918 -1904379248 1184819454
REM
CELL 1.54180   50.00000   50.00000   50.00000   90.00000   90.00000   90.00000
LATT -1
SFAC C  
C      1  0.5305670000000  0.4876230000000  0.5881340000000 1.0
C      1  0.5334310000000  0.5153410000000  0.4216190000000 1.0
C      1  0.4669590000000  0.4846590000000  0.5783810000000 1.0
C      1  0.4698230000000  0.5123770000000  0.4118660000000 1.0
C      1  0.5331320000000  0.5143450000000  0.5766100000000 1.0
C      1  0.5299640000000  0.4879290000000  0.4117580000000 1.0
C      1  0.4704260000000  0.5120710000000  0.5882420000000 1.0
C      1  0.4672580000000  0.4856550000000  0.4233900000000 1.0
C      1  0.5473850000000  0.5264710000000  0.5149830000000 1.0
C      1  0.5537620000000  0.4703360000000  0.4873560000000 1.0
C      1  0.4466280000000  0.5296640000000  0.5126440000000 1.0
C      1  0.4530050000000  0.4735290000000  0.4850170000000 1.0
C      1  0.5532460000000  0.4693040000000  0.5181400000000 1.0
C      1  0.5479200000000  0.5283550000000  0.4841840000000 1.0
C      1  0.4524700000000  0.4716450000000  0.5158160000000 1.0
C      1  0.4471440000000  0.5306960000000  0.4818600000000 1.0
C      1  0.4380020000000  0.5564850000000  0.5230810000000 1.0
C      1  0.4328810000000  0.4483010000000  0.4744180000000 1.0
C      1  0.5675100000000  0.5516990000000  0.5255820000000 1.0
C      1  0.5623880000000  0.4435150000000  0.4769190000000 1.0
C      1  0.4377450000000  0.4438660000000  0.5254770000000 1.0
C      1  0.4392070000000  0.5587120000000  0.4736630000000 1.0
C      1  0.5611840000000  0.4412880000000  0.5263370000000 1.0
C      1  0.5626450000000  0.5561340000000  0.4745230000000 1.0
C      1  0.4334340000000  0.5127480000000  0.5841120000000 1.0
C      1  0.4382490000000  0.4830190000000  0.4218290000000 1.0
C      1  0.5621410000000  0.5169810000000  0.5781710000000 1.0
C      1  0.5669560000000  0.4872520000000  0.4158880000000 1.0
C      1  0.4377460000000  0.4833240000000  0.5808960000000 1.0
C      1  0.4323630000000  0.5118340000000  0.4167180000000 1.0
C      1  0.5680270000000  0.4881660000000  0.5832820000000 1.0
C      1  0.5626450000000  0.5166760000000  0.4191040000000 1.0
C      1  0.4762460000000  0.4914360000000  0.4751190000000 1.0
C      1  0.4718390000000  0.5194580000000  0.5249790000000 1.0
C      1  0.5285510000000  0.4805420000000  0.4750210000000 1.0
C      1  0.5241440000000  0.5085640000000  0.5248810000000 1.0
C      1  0.4723170000000  0.5194690000000  0.4701400000000 1.0
C      1  0.4738440000000  0.4904030000000  0.5282830000000 1.0
C      1  0.5265460000000  0.5095970000000  0.4717170000000 1.0
C      1  0.5280730000000  0.4805310000000  0.5298600000000 1.0
C      1  0.5192940000000  0.5529410000000  0.4744830000000 1.0
C      1  0.5137610000000  0.4398240000000  0.5288930000000 1.0
C      1  0.4866290000000  0.5601760000000  0.4711070000000 1.0
C      1  0.4810970000000  0.4470590000000  0.5255170000000 1.0
C      1  0.5147250000000  0.4386340000000  0.4723730000000 1.0
C      1  0.5237680000000  0.5524000000000  0.5299950000000 1.0
C      1  0.4766220000000  0.4476000000000  0.4700050000000 1.0
C      1  0.4856650000000  0.5613660000000  0.5276270000000 1.0
C      1  0.5901400000000  0.4839570000000  0.5374160000000 1.0
C      1  0.5850580000000  0.5150190000000  0.4646990000000 1.0
C      1  0.4153320000000  0.4849810000000  0.5353010000000 1.0
C      1  0.4102500000000  0.5160430000000  0.4625840000000 1.0
C      1  0.5842950000000  0.5117570000000  0.5329690000000 1.0
C      1  0.5870520000000  0.4862570000000  0.4637210000000 1.0
C      1  0.4133380000000  0.5137430000000  0.5362790000000 1.0
C      1  0.4160960000000  0.4882430000000  0.4670310000000 1.0
C      1  0.4858930000000  0.5305210000000  0.5722750000000 1.0
C      1  0.4863810000000  0.4640730000000  0.4224690000000 1.0
C      1  0.5140090000000  0.5359270000000  0.5775310000000 1.0
C      1  0.5144970000000  0.4694790000000  0.4277250000000 1.0
C      1  0.4860580000000  0.4629550000000  0.5786650000000 1.0
C      1  0.4858890000000  0.5324910000000  0.4247470000000 1.0
C      1  0.5145010000000  0.4675090000000  0.5752530000000 1.0
C      1  0.5143320000000  0.5370450000000  0.4213350000000 1.0
C      1  0.5407590000000  0.5715510000000  0.4872940000000 1.0
C      1  0.5382280000000  0.4276510000000  0.5152060000000 1.0
C      1  0.4621620000000  0.5723490000000  0.4847940000000 1.0
C      1  0.4596310000000  0.4284490000000  0.5127060000000 1.0
C      1  0.5392630000000  0.4284690000000  0.4855900000000 1.0
C      1  0.5441110000000  0.5701400000000  0.5170030000000 1.0
C      1  0.4562790000000  0.4298600000000  0.4829970000000 1.0
C      1  0.4611270000000  0.5715310000000  0.5144100000000 1.0
C      1  0.4245450000000  0.4720910000000  0.4448730000000 1.0
C      1  0.4205660000000  0.5234430000000  0.5615620000000 1.0
C      1  0.5798240000000  0.4765570000000  0.4384380000000 1.0
C      1  0.5758450000000  0.5279090000000  0.5551270000000 1.0
C      1  0.4180370000000  0.5240370000000  0.4371120000000 1.0
C      1  0.4227550000000  0.4734560000000  0.5594870000000 1.0
C      1  0.5776350000000  0.5265440000000  0.4405130000000 1.0
C      1  0.5823540000000  0.4759630000000  0.5628880000000 1.0
C      1  0.5919860000000  0.4629270000000  0.5165420000000 1.0
C      1  0.5909750000000  0.5331040000000  0.4858420000000 1.0
C      1  0.4094150000000  0.4668960000000  0.5141580000000 1.0
C      1  0.4084050000000  0.5370730000000  0.4834580000000 1.0
C      1  0.5961940000000  0.5279300000000  0.5129170000000 1.0
C      1  0.5929500000000  0.4665070000000  0.4856060000000 1.0
C      1  0.4074400000000  0.5334930000000  0.5143940000000 1.0
C      1  0.4041960000000  0.4720700000000  0.4870830000000 1.0
C      1  0.5202110000000  0.5594250000000  0.5601980000000 1.0
C      1  0.5272960000000  0.4453010000000  0.4358220000000 1.0
C      1  0.4730940000000  0.5546990000000  0.5641780000000 1.0
C      1  0.4801800000000  0.4405750000000  0.4398020000000 1.0
C      1  0.5267470000000  0.4438630000000  0.5654830000000 1.0
C      1  0.5200360000000  0.5603480000000  0.4376860000000 1.0
C      1  0.4803540000000  0.4396520000000  0.5623140000000 1.0
C      1  0.4736430000000  0.5561370000000  0.4345170000000 1.0
C      1  0.4935930000000  0.5727890000000  0.5547270000000 1.0
C      1  0.5067970000000  0.4272110000000  0.4452730000000 1.0
C      1  0.4945630000000  0.5735810000000  0.4443260000000 1.0
C      1  0.5058270000000  0.4264190000000  0.5556740000000 1.0
C      1  0.5009260000000  0.4970580000000  0.4571020000000 1.0
C      1  0.4994640000000  0.5029420000000  0.5428980000000 1.0
END
