TITL C-3577089-586-655 8.05521658012428e-08 125000 -294.492908148507 0 0 49 (C1) n - 1
REM
REM in /home/bkarasulu/work/CARBON/AIRSS/Generating-Clusters/EDIP-Nigel-Params/with-SteepDescent/Higher-Symm/SD-CG/HFTN-CG
REM
REM
REM
REM
REM
REM ./C.cell (12c818d87b63d06a65506943cc24bca4)
REM
REM compiler GCC version 9.2.1 20190827 (Red Hat 9.2.1-1)
REM options -cpp -mtune=generic -march=x86-64 -g -O0 -fpre-include=/usr/include/finclude/math-vector-fortran.h
REM seed 1495306608 1128570416 446109650 -1128487389 -1013741422 726294948 1733725140 1768199687 2136571546 1509456891 -555137946 -1175445248 -954626153 -1653892601 -2067076568 1332138848 -615120981 -123741049 -1667747926 -846736175 -525897449 1972996048 -66161111 -1111435960 -770741256 1719696856 -616516911 2087740677 -1276247603 -1174180438 988376883 1468105099 985260715
REM
CELL 1.54180   50.00000   50.00000   50.00000   90.00000   90.00000   90.00000
LATT -1
SFAC C  
C      1  0.4478640000000  0.4726040000000  0.5275410000000 1.0
C      1  0.5613400000000  0.4625200000000  0.5266010000000 1.0
C      1  0.4999060000000  0.5626970000000  0.5289940000000 1.0
C      1  0.4387080000000  0.5307460000000  0.5257450000000 1.0
C      1  0.5507100000000  0.5302330000000  0.5241420000000 1.0
C      1  0.4961200000000  0.4363320000000  0.5311230000000 1.0
C      1  0.4595590000000  0.5387160000000  0.5073260000000 1.0
C      1  0.4868140000000  0.4443270000000  0.5050810000000 1.0
C      1  0.5469020000000  0.5085180000000  0.5052610000000 1.0
C      1  0.4677490000000  0.4661850000000  0.5064130000000 1.0
C      1  0.4781040000000  0.5606800000000  0.5082560000000 1.0
C      1  0.5652910000000  0.4860330000000  0.5059670000000 1.0
C      1  0.4632690000000  0.5361490000000  0.5653610000000 1.0
C      1  0.4852820000000  0.4536070000000  0.5642240000000 1.0
C      1  0.5391370000000  0.5047560000000  0.5610260000000 1.0
C      1  0.4624990000000  0.4701900000000  0.5638030000000 1.0
C      1  0.4885130000000  0.5466670000000  0.5627240000000 1.0
C      1  0.5500770000000  0.4795840000000  0.5593260000000 1.0
C      1  0.4953870000000  0.5621020000000  0.4848980000000 1.0
C      1  0.4543400000000  0.4775020000000  0.4841640000000 1.0
C      1  0.5628990000000  0.4665160000000  0.4828610000000 1.0
C      1  0.5078680000000  0.4439470000000  0.4842850000000 1.0
C      1  0.4460330000000  0.5337250000000  0.4822490000000 1.0
C      1  0.5412640000000  0.5243290000000  0.4813330000000 1.0
C      1  0.5568650000000  0.4429350000000  0.5012780000000 1.0
C      1  0.5208730000000  0.5678060000000  0.4970880000000 1.0
C      1  0.4309640000000  0.4890190000000  0.4966680000000 1.0
C      1  0.5433390000000  0.5510560000000  0.4932340000000 1.0
C      1  0.5316930000000  0.4327760000000  0.4940130000000 1.0
C      1  0.4246680000000  0.5162240000000  0.4926610000000 1.0
C      1  0.5184900000000  0.5157640000000  0.4358250000000 1.0
C      1  0.4695480000000  0.5187560000000  0.4311970000000 1.0
C      1  0.5016910000000  0.4710300000000  0.4375310000000 1.0
C      1  0.5185020000000  0.4897090000000  0.4245480000000 1.0
C      1  0.4746320000000  0.4832750000000  0.4393980000000 1.0
C      1  0.4954620000000  0.5310560000000  0.4265340000000 1.0
C      1  0.4663890000000  0.5231540000000  0.4620450000000 1.0
C      1  0.5129440000000  0.4684720000000  0.4662310000000 1.0
C      1  0.5156690000000  0.5174730000000  0.4663590000000 1.0
C      1  0.4732620000000  0.4937330000000  0.4677450000000 1.0
C      1  0.4934820000000  0.5389030000000  0.4646290000000 1.0
C      1  0.5414860000000  0.4717590000000  0.4654810000000 1.0
C      1  0.5072970000000  0.4574600000000  0.5465850000000 1.0
C      1  0.5343810000000  0.5289310000000  0.5479240000000 1.0
C      1  0.4475130000000  0.5185140000000  0.5504760000000 1.0
C      1  0.5068760000000  0.5372010000000  0.5431030000000 1.0
C      1  0.5347420000000  0.4566160000000  0.5535900000000 1.0
C      1  0.4593910000000  0.4923390000000  0.5461930000000 1.0
C      1  0.5016000000000  0.4931930000000  0.4779780000000 1.0
END
