TITL C-3577088-510-625 -4.12061539877342e-06 125000 -434.832061073252 0 0 72 (S8) n - 1
REM
REM in /home/bkarasulu/work/CARBON/AIRSS/Generating-Clusters/EDIP-Nigel-Params/with-SteepDescent/Higher-Symm/SD-CG/HFTN-CG
REM
REM
REM
REM
REM
REM ./C.cell (12c818d87b63d06a65506943cc24bca4)
REM
REM compiler GCC version 9.2.1 20190827 (Red Hat 9.2.1-1)
REM options -cpp -mtune=generic -march=x86-64 -g -O0 -fpre-include=/usr/include/finclude/math-vector-fortran.h
REM seed 1680522729 -301043949 55093295 1543167084 -707779709 1318344775 1104485432 -1821193709 -1996314384 -1890443228 1427262152 -2042249178 1777532808 871318144 -1674454609 -1206700644 -1265970498 770986781 867746419 -466531046 -2099011370 1436386987 -1449863017 1119530446 2033024508 -1861473233 1214975049 591386740 1045007351 1211312802 -1655003208 -2039207854 126394995
REM
CELL 1.54180   50.00000   50.00000   50.00000   90.00000   90.00000   90.00000
LATT -1
SFAC C  
C      1  0.5474290000000  0.4473390000000  0.4981810000000 1.0
C      1  0.4525630000000  0.4640540000000  0.4614810000000 1.0
C      1  0.5474320000000  0.5018140000000  0.4473410000000 1.0
C      1  0.4525690000000  0.5385230000000  0.4640510000000 1.0
C      1  0.5474370000000  0.5526550000000  0.5018170000000 1.0
C      1  0.4525700000000  0.5359530000000  0.5385210000000 1.0
C      1  0.5474340000000  0.4981790000000  0.5526570000000 1.0
C      1  0.4525650000000  0.4614830000000  0.5359500000000 1.0
C      1  0.4872230000000  0.4678010000000  0.5707830000000 1.0
C      1  0.5127720000000  0.4271790000000  0.5272820000000 1.0
C      1  0.4872180000000  0.4292180000000  0.4678000000000 1.0
C      1  0.5127730000000  0.4727170000000  0.4271800000000 1.0
C      1  0.4872240000000  0.5322010000000  0.4292170000000 1.0
C      1  0.5127810000000  0.5728190000000  0.4727180000000 1.0
C      1  0.4872290000000  0.5707840000000  0.5322010000000 1.0
C      1  0.5127800000000  0.5272810000000  0.5728200000000 1.0
C      1  0.5313670000000  0.4542160000000  0.5571170000000 1.0
C      1  0.4686260000000  0.4272420000000  0.5080170000000 1.0
C      1  0.5313640000000  0.4428800000000  0.4542180000000 1.0
C      1  0.4686290000000  0.4919860000000  0.4272400000000 1.0
C      1  0.5313710000000  0.5457790000000  0.4428820000000 1.0
C      1  0.4686360000000  0.5727630000000  0.4919850000000 1.0
C      1  0.5313740000000  0.5571150000000  0.5457810000000 1.0
C      1  0.4686330000000  0.5080180000000  0.5727610000000 1.0
C      1  0.4804880000000  0.5064370000000  0.4763770000000 1.0
C      1  0.5195130000000  0.5212530000000  0.4878460000000 1.0
C      1  0.4804900000000  0.5236250000000  0.5064360000000 1.0
C      1  0.5195130000000  0.5121530000000  0.5212540000000 1.0
C      1  0.4804880000000  0.4935660000000  0.5236240000000 1.0
C      1  0.5195100000000  0.4787440000000  0.5121540000000 1.0
C      1  0.4804870000000  0.4763780000000  0.4935650000000 1.0
C      1  0.5195100000000  0.4878450000000  0.4787450000000 1.0
C      1  0.5530300000000  0.4705990000000  0.5456400000000 1.0
C      1  0.4469650000000  0.4469440000000  0.5114880000000 1.0
C      1  0.5530270000000  0.4543550000000  0.4706020000000 1.0
C      1  0.4469670000000  0.4885170000000  0.4469410000000 1.0
C      1  0.5530320000000  0.5293930000000  0.4543570000000 1.0
C      1  0.4469720000000  0.5530640000000  0.4885140000000 1.0
C      1  0.5530350000000  0.5456380000000  0.5293960000000 1.0
C      1  0.4469710000000  0.5114900000000  0.5530610000000 1.0
C      1  0.4835300000000  0.5775140000000  0.4669370000000 1.0
C      1  0.5164810000000  0.5781880000000  0.5314300000000 1.0
C      1  0.4835290000000  0.5330650000000  0.5775130000000 1.0
C      1  0.5164740000000  0.4685690000000  0.5781890000000 1.0
C      1  0.4835210000000  0.4224890000000  0.5330640000000 1.0
C      1  0.5164680000000  0.4218100000000  0.4685700000000 1.0
C      1  0.4835220000000  0.4669380000000  0.4224880000000 1.0
C      1  0.5164750000000  0.5314290000000  0.4218110000000 1.0
C      1  0.5110750000000  0.5359040000000  0.5440750000000 1.0
C      1  0.4889290000000  0.4942230000000  0.5565550000000 1.0
C      1  0.5110690000000  0.4559240000000  0.5359050000000 1.0
C      1  0.4889240000000  0.4434460000000  0.4942230000000 1.0
C      1  0.5110680000000  0.4640940000000  0.4559250000000 1.0
C      1  0.4889280000000  0.5057780000000  0.4434460000000 1.0
C      1  0.5110740000000  0.5440740000000  0.4640950000000 1.0
C      1  0.4889330000000  0.5565550000000  0.5057780000000 1.0
C      1  0.4757310000000  0.4486610000000  0.5498200000000 1.0
C      1  0.5242610000000  0.4284680000000  0.4989240000000 1.0
C      1  0.4757290000000  0.4501830000000  0.4486600000000 1.0
C      1  0.5242650000000  0.5010740000000  0.4284690000000 1.0
C      1  0.4757360000000  0.5513420000000  0.4501810000000 1.0
C      1  0.5242720000000  0.5715290000000  0.5010750000000 1.0
C      1  0.4757380000000  0.5498210000000  0.5513410000000 1.0
C      1  0.5242680000000  0.4989230000000  0.5715300000000 1.0
C      1  0.5561730000000  0.5171160000000  0.5328330000000 1.0
C      1  0.4438290000000  0.4888930000000  0.5353240000000 1.0
C      1  0.5561690000000  0.4671620000000  0.5171190000000 1.0
C      1  0.4438260000000  0.4646810000000  0.4888900000000 1.0
C      1  0.5561690000000  0.4828760000000  0.4671650000000 1.0
C      1  0.4438290000000  0.5111150000000  0.4646780000000 1.0
C      1  0.5561730000000  0.5328300000000  0.4828790000000 1.0
C      1  0.4438320000000  0.5353270000000  0.5111130000000 1.0
END
