TITL C-3578198-8939-32 -1.29640459096355e-06 125000 -1069.51632084083 0 0 171 (C1) n - 1
REM
REM in /home/bkarasulu/work/CARBON/AIRSS/Generating-Clusters/EDIP-Nigel-Params/with-SteepDescent/Higher-Symm/SD-CG/HFTN-CG
REM
REM
REM
REM
REM
REM ./C.cell (12c818d87b63d06a65506943cc24bca4)
REM
REM compiler GCC version 9.2.1 20190827 (Red Hat 9.2.1-1)
REM options -cpp -mtune=generic -march=x86-64 -g -O0 -fpre-include=/usr/include/finclude/math-vector-fortran.h
REM seed 1606661834 456542704 -1772847897 1330615331 -1214890854 1772633973 -209747672 411505201 1740243684 -226116114 1949062122 -1210912378 73018200 -1337380744 -729994010 -821897177 1835448134 -998552761 -2059728465 2087056992 -1684946323 -1757083097 2004761556 372561365 883681582 270496417 1978122123 -1622248460 428880397 -306465264 872838026 -127221361 965933058
REM
CELL 1.54180   50.00000   50.00000   50.00000   90.00000   90.00000   90.00000
LATT -1
SFAC C  
C      1  0.5873380000000  0.5133450000000  0.5597700000000 1.0
C      1  0.5907610000000  0.4752610000000  0.4446050000000 1.0
C      1  0.4119920000000  0.5218350000000  0.4382540000000 1.0
C      1  0.4085460000000  0.4848680000000  0.5553090000000 1.0
C      1  0.5857220000000  0.5557110000000  0.5226130000000 1.0
C      1  0.5943690000000  0.4406390000000  0.4824620000000 1.0
C      1  0.4166160000000  0.4444700000000  0.5206060000000 1.0
C      1  0.4056930000000  0.5617850000000  0.4791830000000 1.0
C      1  0.4380280000000  0.4470730000000  0.5411740000000 1.0
C      1  0.4211180000000  0.5684780000000  0.4551000000000 1.0
C      1  0.5729730000000  0.4340350000000  0.4642180000000 1.0
C      1  0.5638430000000  0.5541170000000  0.5423700000000 1.0
C      1  0.4315280000000  0.5445930000000  0.4399110000000 1.0
C      1  0.4328540000000  0.4692740000000  0.5622350000000 1.0
C      1  0.5675620000000  0.4565340000000  0.4430460000000 1.0
C      1  0.5660230000000  0.5325340000000  0.5652270000000 1.0
C      1  0.5604410000000  0.4979340000000  0.5977800000000 1.0
C      1  0.5710100000000  0.4770350000000  0.4038590000000 1.0
C      1  0.4445040000000  0.5229690000000  0.4018580000000 1.0
C      1  0.4467810000000  0.4815440000000  0.5865230000000 1.0
C      1  0.5499270000000  0.5880370000000  0.5099040000000 1.0
C      1  0.5585550000000  0.4094410000000  0.4732090000000 1.0
C      1  0.4546900000000  0.4167290000000  0.4958250000000 1.0
C      1  0.4343140000000  0.5991160000000  0.4891920000000 1.0
C      1  0.5393040000000  0.5442760000000  0.5275020000000 1.0
C      1  0.5364180000000  0.4478190000000  0.4732710000000 1.0
C      1  0.4668110000000  0.5512040000000  0.4735180000000 1.0
C      1  0.4633650000000  0.4575000000000  0.5293150000000 1.0
C      1  0.5343490000000  0.5211050000000  0.5462090000000 1.0
C      1  0.5381980000000  0.4681010000000  0.4507170000000 1.0
C      1  0.4679040000000  0.4805760000000  0.5484840000000 1.0
C      1  0.4589410000000  0.5339990000000  0.4521290000000 1.0
C      1  0.4512540000000  0.5926980000000  0.5144570000000 1.0
C      1  0.4697500000000  0.4135870000000  0.4692460000000 1.0
C      1  0.5363970000000  0.5871030000000  0.4847740000000 1.0
C      1  0.5491110000000  0.4100260000000  0.5041940000000 1.0
C      1  0.4464010000000  0.5107900000000  0.5856990000000 1.0
C      1  0.4717590000000  0.4782740000000  0.4344320000000 1.0
C      1  0.5342540000000  0.4820490000000  0.5979590000000 1.0
C      1  0.5518150000000  0.4974700000000  0.4142540000000 1.0
C      1  0.4737480000000  0.4119060000000  0.5179940000000 1.0
C      1  0.4403310000000  0.5892050000000  0.4616060000000 1.0
C      1  0.5438890000000  0.3978740000000  0.4500900000000 1.0
C      1  0.5330600000000  0.5992970000000  0.5335060000000 1.0
C      1  0.4405150000000  0.5520810000000  0.4117170000000 1.0
C      1  0.4738500000000  0.4735350000000  0.5961760000000 1.0
C      1  0.5638430000000  0.4476710000000  0.4142070000000 1.0
C      1  0.5555960000000  0.5273540000000  0.5938450000000 1.0
C      1  0.5288920000000  0.5025960000000  0.3989160000000 1.0
C      1  0.5146860000000  0.5035390000000  0.5992260000000 1.0
C      1  0.4690670000000  0.5217230000000  0.5984510000000 1.0
C      1  0.4826660000000  0.4906410000000  0.4101340000000 1.0
C      1  0.5230820000000  0.4035180000000  0.5203130000000 1.0
C      1  0.5147630000000  0.6058600000000  0.4890880000000 1.0
C      1  0.4803110000000  0.5898640000000  0.5110690000000 1.0
C      1  0.4887930000000  0.3913720000000  0.4769720000000 1.0
C      1  0.5110020000000  0.5108790000000  0.4629460000000 1.0
C      1  0.5172290000000  0.4719130000000  0.5433360000000 1.0
C      1  0.4845400000000  0.5326090000000  0.5445070000000 1.0
C      1  0.4833450000000  0.4912470000000  0.4614100000000 1.0
C      1  0.5130170000000  0.4501210000000  0.5229830000000 1.0
C      1  0.5127000000000  0.5366190000000  0.4848990000000 1.0
C      1  0.4927120000000  0.5481900000000  0.5162990000000 1.0
C      1  0.4835330000000  0.4663870000000  0.4803660000000 1.0
C      1  0.5090270000000  0.5399290000000  0.4365720000000 1.0
C      1  0.5262170000000  0.4533840000000  0.5914550000000 1.0
C      1  0.4690570000000  0.5531530000000  0.5592830000000 1.0
C      1  0.4843360000000  0.4494000000000  0.4352660000000 1.0
C      1  0.5202250000000  0.4149580000000  0.5491770000000 1.0
C      1  0.5115910000000  0.5596350000000  0.4611270000000 1.0
C      1  0.4800680000000  0.5805670000000  0.5541230000000 1.0
C      1  0.4869370000000  0.4402650000000  0.4638690000000 1.0
C      1  0.6117180000000  0.5273870000000  0.4924650000000 1.0
C      1  0.6114740000000  0.4728410000000  0.5093290000000 1.0
C      1  0.3894890000000  0.5289530000000  0.5065140000000 1.0
C      1  0.3870420000000  0.4745220000000  0.4913070000000 1.0
C      1  0.6142260000000  0.4911610000000  0.5285000000000 1.0
C      1  0.6102250000000  0.5074820000000  0.4744290000000 1.0
C      1  0.3859540000000  0.5102460000000  0.5249670000000 1.0
C      1  0.3886510000000  0.4928200000000  0.4713760000000 1.0
C      1  0.4028240000000  0.5071230000000  0.5720160000000 1.0
C      1  0.4269390000000  0.5043010000000  0.4187250000000 1.0
C      1  0.5944080000000  0.4891660000000  0.4197200000000 1.0
C      1  0.5812300000000  0.4901380000000  0.5777030000000 1.0
C      1  0.4106920000000  0.5826260000000  0.4999100000000 1.0
C      1  0.4260980000000  0.4265340000000  0.4973180000000 1.0
C      1  0.5958090000000  0.4220570000000  0.5034690000000 1.0
C      1  0.5766330000000  0.5763140000000  0.5029150000000 1.0
C      1  0.4853500000000  0.4363040000000  0.5315030000000 1.0
C      1  0.4842340000000  0.5731090000000  0.4638590000000 1.0
C      1  0.5152510000000  0.4291800000000  0.4635990000000 1.0
C      1  0.5170060000000  0.5644640000000  0.5276260000000 1.0
C      1  0.4795590000000  0.5377790000000  0.4281440000000 1.0
C      1  0.4949640000000  0.4771910000000  0.5634460000000 1.0
C      1  0.5171730000000  0.4605260000000  0.4264390000000 1.0
C      1  0.5098620000000  0.5266630000000  0.5624650000000 1.0
C      1  0.5257580000000  0.4173410000000  0.4363900000000 1.0
C      1  0.5105430000000  0.5770150000000  0.5561180000000 1.0
C      1  0.4947140000000  0.4276510000000  0.5591430000000 1.0
C      1  0.4699830000000  0.5834800000000  0.4392450000000 1.0
C      1  0.5342690000000  0.4382300000000  0.4144620000000 1.0
C      1  0.5153450000000  0.5535290000000  0.5760040000000 1.0
C      1  0.4682060000000  0.5640840000000  0.4173900000000 1.0
C      1  0.4980150000000  0.4501480000000  0.5801880000000 1.0
C      1  0.5715450000000  0.4688930000000  0.5603880000000 1.0
C      1  0.5699960000000  0.5151030000000  0.4332070000000 1.0
C      1  0.4396420000000  0.4807460000000  0.4347290000000 1.0
C      1  0.4264390000000  0.5238970000000  0.5667300000000 1.0
C      1  0.5649850000000  0.5618980000000  0.4771090000000 1.0
C      1  0.5707640000000  0.4274930000000  0.5177690000000 1.0
C      1  0.4275270000000  0.4442330000000  0.4738820000000 1.0
C      1  0.4295510000000  0.5707300000000  0.5230840000000 1.0
C      1  0.5802100000000  0.4420220000000  0.5666730000000 1.0
C      1  0.5657120000000  0.5442990000000  0.4278750000000 1.0
C      1  0.4290620000000  0.4536110000000  0.4260370000000 1.0
C      1  0.4209550000000  0.5533590000000  0.5728700000000 1.0
C      1  0.5705280000000  0.5661400000000  0.4475780000000 1.0
C      1  0.5751670000000  0.4210070000000  0.5469700000000 1.0
C      1  0.4207960000000  0.4350380000000  0.4471530000000 1.0
C      1  0.4225680000000  0.5754340000000  0.5527490000000 1.0
C      1  0.5570550000000  0.5895020000000  0.4392100000000 1.0
C      1  0.5636620000000  0.3978740000000  0.5589310000000 1.0
C      1  0.4358080000000  0.5979870000000  0.5644880000000 1.0
C      1  0.4273670000000  0.4078240000000  0.4418320000000 1.0
C      1  0.5731490000000  0.4342650000000  0.5933050000000 1.0
C      1  0.5486110000000  0.5505090000000  0.4063910000000 1.0
C      1  0.4318570000000  0.5619050000000  0.5977020000000 1.0
C      1  0.4448600000000  0.4403230000000  0.4067570000000 1.0
C      1  0.5343510000000  0.4609250000000  0.5011630000000 1.0
C      1  0.5390970000000  0.5336070000000  0.4995570000000 1.0
C      1  0.4607710000000  0.4678600000000  0.4999440000000 1.0
C      1  0.4656560000000  0.5389950000000  0.5005720000000 1.0
C      1  0.5371910000000  0.4955730000000  0.4621360000000 1.0
C      1  0.5368180000000  0.4929400000000  0.5336990000000 1.0
C      1  0.4593560000000  0.5079340000000  0.4660850000000 1.0
C      1  0.4647800000000  0.5084480000000  0.5357340000000 1.0
C      1  0.5301330000000  0.5811330000000  0.4377080000000 1.0
C      1  0.5396420000000  0.4085830000000  0.5700550000000 1.0
C      1  0.4621070000000  0.5937710000000  0.5749390000000 1.0
C      1  0.4559560000000  0.4088160000000  0.4420220000000 1.0
C      1  0.5448130000000  0.4300700000000  0.5903030000000 1.0
C      1  0.5248640000000  0.5591370000000  0.4189560000000 1.0
C      1  0.4587570000000  0.5677620000000  0.5904680000000 1.0
C      1  0.4658580000000  0.4290520000000  0.4220650000000 1.0
C      1  0.5157780000000  0.4021200000000  0.4769190000000 1.0
C      1  0.5075140000000  0.6071140000000  0.5196980000000 1.0
C      1  0.4951250000000  0.3935180000000  0.5089780000000 1.0
C      1  0.4868730000000  0.5956520000000  0.4826140000000 1.0
C      1  0.5104990000000  0.4834150000000  0.4076420000000 1.0
C      1  0.5263470000000  0.5314840000000  0.5977110000000 1.0
C      1  0.4743400000000  0.5183460000000  0.4053470000000 1.0
C      1  0.4865240000000  0.4996340000000  0.6007790000000 1.0
C      1  0.4350160000000  0.5184530000000  0.5356240000000 1.0
C      1  0.4350490000000  0.4917970000000  0.4642440000000 1.0
C      1  0.5639360000000  0.5090250000000  0.4634230000000 1.0
C      1  0.5659370000000  0.4809600000000  0.5338740000000 1.0
C      1  0.4358870000000  0.5411320000000  0.5131890000000 1.0
C      1  0.4340130000000  0.4707010000000  0.4860560000000 1.0
C      1  0.5645000000000  0.4593670000000  0.5119550000000 1.0
C      1  0.5644180000000  0.5323510000000  0.4855780000000 1.0
C      1  0.5872670000000  0.5291330000000  0.5075860000000 1.0
C      1  0.5889160000000  0.4672290000000  0.4930580000000 1.0
C      1  0.4120760000000  0.5348870000000  0.4907960000000 1.0
C      1  0.4113510000000  0.4725710000000  0.5070440000000 1.0
C      1  0.5883520000000  0.5037320000000  0.5312620000000 1.0
C      1  0.5880680000000  0.4899600000000  0.4698720000000 1.0
C      1  0.4109530000000  0.4962440000000  0.5282390000000 1.0
C      1  0.4109170000000  0.5101250000000  0.4659240000000 1.0
C      1  0.5273560000000  0.4915240000000  0.5048400000000 1.0
C      1  0.4736980000000  0.5092490000000  0.5073980000000 1.0
C      1  0.5000760000000  0.4996920000000  0.5041220000000 1.0
END
