TITL C-3577080-309-237 5.32263528974036e-07 125000 -317.814535439834 0 0 53 (C1) n - 1
REM
REM in /home/bkarasulu/work/CARBON/AIRSS/Generating-Clusters/EDIP-Nigel-Params/with-SteepDescent/Higher-Symm/SD-CG/HFTN-CG
REM
REM
REM
REM
REM
REM ./C.cell (12c818d87b63d06a65506943cc24bca4)
REM
REM compiler GCC version 9.2.1 20190827 (Red Hat 9.2.1-1)
REM options -cpp -mtune=generic -march=x86-64 -g -O0 -fpre-include=/usr/include/finclude/math-vector-fortran.h
REM seed -1441022272 1139192074 -1389881985 458528402 -787932259 -521951115 165481210 1398602709 1400920541 -1049377259 866214314 -1302325851 1340282886 1958889495 338027899 444908768 1912741338 -993014080 -684608195 1563836192 691232100 -1126295741 -762843644 537150851 820176583 -749401775 -929621492 1170139934 325401309 -479782373 -1681002777 739264429 367829598
REM
CELL 1.54180   50.00000   50.00000   50.00000   90.00000   90.00000   90.00000
LATT -1
SFAC C  
C      1  0.5148420000000  0.5044830000000  0.4681070000000 1.0
C      1  0.5258440000000  0.4926870000000  0.5148050000000 1.0
C      1  0.5073650000000  0.4796330000000  0.5361320000000 1.0
C      1  0.4625080000000  0.4975210000000  0.5177940000000 1.0
C      1  0.4695090000000  0.4859760000000  0.4695600000000 1.0
C      1  0.5521260000000  0.4959390000000  0.5703930000000 1.0
C      1  0.4441520000000  0.5066410000000  0.5651420000000 1.0
C      1  0.4173930000000  0.4934210000000  0.4744750000000 1.0
C      1  0.5141470000000  0.5028680000000  0.4157840000000 1.0
C      1  0.5794650000000  0.4968090000000  0.4809670000000 1.0
C      1  0.4341910000000  0.4992450000000  0.5091490000000 1.0
C      1  0.4693540000000  0.5123410000000  0.4338630000000 1.0
C      1  0.5450590000000  0.5041750000000  0.4635430000000 1.0
C      1  0.5512380000000  0.4997130000000  0.5314580000000 1.0
C      1  0.4949030000000  0.4991060000000  0.5577860000000 1.0
C      1  0.4906090000000  0.4911450000000  0.4285360000000 1.0
C      1  0.5559010000000  0.4779560000000  0.4745550000000 1.0
C      1  0.5519780000000  0.4732140000000  0.5495600000000 1.0
C      1  0.4664520000000  0.4872980000000  0.5630110000000 1.0
C      1  0.4293770000000  0.4716990000000  0.4930380000000 1.0
C      1  0.5243810000000  0.4465320000000  0.4979800000000 1.0
C      1  0.5180120000000  0.4389520000000  0.5261720000000 1.0
C      1  0.4819590000000  0.4528170000000  0.5246160000000 1.0
C      1  0.4766610000000  0.4468710000000  0.4948780000000 1.0
C      1  0.5014830000000  0.4509410000000  0.4795360000000 1.0
C      1  0.4416290000000  0.5279070000000  0.5452700000000 1.0
C      1  0.4343470000000  0.5199550000000  0.4702070000000 1.0
C      1  0.5243140000000  0.5268290000000  0.4285070000000 1.0
C      1  0.5704210000000  0.5248440000000  0.4930510000000 1.0
C      1  0.5347520000000  0.5219090000000  0.5654790000000 1.0
C      1  0.4668370000000  0.5260090000000  0.5280620000000 1.0
C      1  0.4624470000000  0.5285360000000  0.4769190000000 1.0
C      1  0.5094600000000  0.5312150000000  0.4546430000000 1.0
C      1  0.5430670000000  0.5369150000000  0.4934260000000 1.0
C      1  0.5215960000000  0.5306730000000  0.5399400000000 1.0
C      1  0.5473420000000  0.5096480000000  0.4344700000000 1.0
C      1  0.5758350000000  0.5089530000000  0.5173340000000 1.0
C      1  0.5154710000000  0.5037970000000  0.5793980000000 1.0
C      1  0.4210100000000  0.5097420000000  0.5342670000000 1.0
C      1  0.4436010000000  0.5023680000000  0.4463000000000 1.0
C      1  0.5240870000000  0.5494790000000  0.4737290000000 1.0
C      1  0.5343140000000  0.5472200000000  0.5196740000000 1.0
C      1  0.4925680000000  0.5253520000000  0.5436580000000 1.0
C      1  0.4700890000000  0.5426950000000  0.5019860000000 1.0
C      1  0.4794120000000  0.5325850000000  0.4529430000000 1.0
C      1  0.5408560000000  0.4708110000000  0.4991480000000 1.0
C      1  0.5255220000000  0.4586000000000  0.5482120000000 1.0
C      1  0.4635710000000  0.4741080000000  0.5364480000000 1.0
C      1  0.4546960000000  0.4616120000000  0.4796490000000 1.0
C      1  0.4972920000000  0.4804380000000  0.4566740000000 1.0
C      1  0.5004400000000  0.5394070000000  0.5022570000000 1.0
C      1  0.4811160000000  0.4934700000000  0.4962200000000 1.0
C      1  0.5063820000000  0.5087430000000  0.4963970000000 1.0
END
