TITL C-3577085-527-72 -1.10363168907909e-06 125000 -682.204466172227 0 0 109 (C1) n - 1
REM
REM in /home/bkarasulu/work/CARBON/AIRSS/Generating-Clusters/EDIP-Nigel-Params/with-SteepDescent/Higher-Symm/SD-CG/HFTN-CG
REM
REM
REM
REM
REM
REM ./C.cell (12c818d87b63d06a65506943cc24bca4)
REM
REM compiler GCC version 9.2.1 20190827 (Red Hat 9.2.1-1)
REM options -cpp -mtune=generic -march=x86-64 -g -O0 -fpre-include=/usr/include/finclude/math-vector-fortran.h
REM seed 661064588 -1286848769 -825401947 1175218560 1540088670 566018053 159487171 1803656607 -1025917437 1811694042 543859524 -315293381 94858179 -860401571 -1230719645 2000935368 255809603 1460242991 2003965780 -791835913 379347668 -1862223524 -1070545728 1517035210 754332086 1599747628 780713697 1760003597 -1610968508 1480636749 -361967111 1683471916 -758649066
REM
CELL 1.54180   50.00000   50.00000   50.00000   90.00000   90.00000   90.00000
LATT -1
SFAC C  
C      1  0.4049710000000  0.4878770000000  0.4918150000000 1.0
C      1  0.5929090000000  0.4843030000000  0.5062390000000 1.0
C      1  0.4398010000000  0.5280860000000  0.4708780000000 1.0
C      1  0.5627940000000  0.5320160000000  0.5219250000000 1.0
C      1  0.5170580000000  0.4216150000000  0.5201380000000 1.0
C      1  0.4820480000000  0.4220380000000  0.4794090000000 1.0
C      1  0.5229390000000  0.4626150000000  0.5882500000000 1.0
C      1  0.4748100000000  0.4660360000000  0.4126280000000 1.0
C      1  0.4480540000000  0.5030460000000  0.5387300000000 1.0
C      1  0.5526590000000  0.5023380000000  0.4606210000000 1.0
C      1  0.5349730000000  0.4795800000000  0.5394820000000 1.0
C      1  0.4634960000000  0.4806970000000  0.4602340000000 1.0
C      1  0.5799980000000  0.4955120000000  0.4630090000000 1.0
C      1  0.4204350000000  0.4973210000000  0.5349110000000 1.0
C      1  0.4939230000000  0.5795020000000  0.4726980000000 1.0
C      1  0.5056920000000  0.5793620000000  0.5283650000000 1.0
C      1  0.4474000000000  0.5736190000000  0.4855260000000 1.0
C      1  0.5523370000000  0.5777830000000  0.5150960000000 1.0
C      1  0.4623530000000  0.4538980000000  0.5507890000000 1.0
C      1  0.5363890000000  0.4539600000000  0.4478130000000 1.0
C      1  0.4733930000000  0.4364210000000  0.5060230000000 1.0
C      1  0.5258710000000  0.4365210000000  0.4935860000000 1.0
C      1  0.5167560000000  0.5371010000000  0.4383000000000 1.0
C      1  0.4836760000000  0.5362820000000  0.5629260000000 1.0
C      1  0.5042490000000  0.4889230000000  0.4376550000000 1.0
C      1  0.4947750000000  0.4879900000000  0.5625550000000 1.0
C      1  0.4680150000000  0.4884670000000  0.5101310000000 1.0
C      1  0.5327400000000  0.4886930000000  0.4900600000000 1.0
C      1  0.5767860000000  0.5174300000000  0.5422070000000 1.0
C      1  0.4197640000000  0.5175010000000  0.4511320000000 1.0
C      1  0.4890280000000  0.4429820000000  0.4400670000000 1.0
C      1  0.5097730000000  0.4422830000000  0.5598710000000 1.0
C      1  0.5153950000000  0.5768700000000  0.5596860000000 1.0
C      1  0.4857920000000  0.5790310000000  0.4418670000000 1.0
C      1  0.4634390000000  0.5231650000000  0.5798110000000 1.0
C      1  0.5366810000000  0.5243060000000  0.4210510000000 1.0
C      1  0.4985050000000  0.5563910000000  0.4236700000000 1.0
C      1  0.5030280000000  0.5542560000000  0.5771840000000 1.0
C      1  0.4702580000000  0.5443390000000  0.4189050000000 1.0
C      1  0.5294810000000  0.5393480000000  0.5791600000000 1.0
C      1  0.4677180000000  0.4765890000000  0.5689700000000 1.0
C      1  0.5308490000000  0.4768910000000  0.4295230000000 1.0
C      1  0.5406350000000  0.5505460000000  0.4492420000000 1.0
C      1  0.4598960000000  0.5503800000000  0.5525640000000 1.0
C      1  0.4844300000000  0.4933880000000  0.4149010000000 1.0
C      1  0.5112840000000  0.4893340000000  0.5879600000000 1.0
C      1  0.4919630000000  0.4686380000000  0.4573780000000 1.0
C      1  0.5069370000000  0.4678980000000  0.5426790000000 1.0
C      1  0.4373180000000  0.5578210000000  0.5089880000000 1.0
C      1  0.5646130000000  0.5650340000000  0.4905420000000 1.0
C      1  0.4363690000000  0.4486860000000  0.5378620000000 1.0
C      1  0.5622960000000  0.4479390000000  0.4607190000000 1.0
C      1  0.4900400000000  0.5499800000000  0.4756390000000 1.0
C      1  0.5111340000000  0.5496480000000  0.5249450000000 1.0
C      1  0.4529290000000  0.4752200000000  0.4875780000000 1.0
C      1  0.5460500000000  0.4741660000000  0.5123970000000 1.0
C      1  0.4308720000000  0.5302720000000  0.4990860000000 1.0
C      1  0.5774490000000  0.5394770000000  0.4983950000000 1.0
C      1  0.5098150000000  0.4660700000000  0.4878420000000 1.0
C      1  0.4895860000000  0.4655380000000  0.5125090000000 1.0
C      1  0.4678860000000  0.4260020000000  0.4543520000000 1.0
C      1  0.5307200000000  0.4255700000000  0.5455120000000 1.0
C      1  0.5574690000000  0.4389840000000  0.4883150000000 1.0
C      1  0.4419150000000  0.4390660000000  0.5107660000000 1.0
C      1  0.4793310000000  0.5120640000000  0.4959550000000 1.0
C      1  0.5262820000000  0.5133350000000  0.5056120000000 1.0
C      1  0.5406330000000  0.5634470000000  0.4744410000000 1.0
C      1  0.4599480000000  0.5612720000000  0.5266040000000 1.0
C      1  0.5266190000000  0.5922960000000  0.5089730000000 1.0
C      1  0.4717940000000  0.5904320000000  0.4921350000000 1.0
C      1  0.5822490000000  0.4677820000000  0.4597920000000 1.0
C      1  0.4171240000000  0.4694560000000  0.5372630000000 1.0
C      1  0.5905820000000  0.5060680000000  0.4872860000000 1.0
C      1  0.4117380000000  0.5098660000000  0.5098080000000 1.0
C      1  0.4642000000000  0.5151230000000  0.4238240000000 1.0
C      1  0.5305960000000  0.5114800000000  0.5899840000000 1.0
C      1  0.4739340000000  0.5102540000000  0.4664600000000 1.0
C      1  0.5273070000000  0.5102470000000  0.5367170000000 1.0
C      1  0.4508440000000  0.5000210000000  0.5673220000000 1.0
C      1  0.5483860000000  0.5000470000000  0.4320770000000 1.0
C      1  0.4876030000000  0.4202830000000  0.5263400000000 1.0
C      1  0.5113480000000  0.4208240000000  0.4730870000000 1.0
C      1  0.4307430000000  0.4791670000000  0.4304290000000 1.0
C      1  0.5665510000000  0.4816260000000  0.5700220000000 1.0
C      1  0.4520790000000  0.4620120000000  0.4282490000000 1.0
C      1  0.5465800000000  0.4623460000000  0.5724180000000 1.0
C      1  0.5583590000000  0.4306250000000  0.5447640000000 1.0
C      1  0.4400190000000  0.4303580000000  0.4558010000000 1.0
C      1  0.5223770000000  0.5851610000000  0.4803480000000 1.0
C      1  0.4767180000000  0.5841010000000  0.5208490000000 1.0
C      1  0.5715610000000  0.4600440000000  0.5081400000000 1.0
C      1  0.4281260000000  0.4599260000000  0.4921580000000 1.0
C      1  0.5783440000000  0.4476290000000  0.5346730000000 1.0
C      1  0.4199490000000  0.4472000000000  0.4662610000000 1.0
C      1  0.5432860000000  0.5533740000000  0.5309060000000 1.0
C      1  0.4579020000000  0.5526490000000  0.4663220000000 1.0
C      1  0.5432530000000  0.5608090000000  0.5605680000000 1.0
C      1  0.4579120000000  0.5643500000000  0.4383740000000 1.0
C      1  0.5876140000000  0.4711280000000  0.5520080000000 1.0
C      1  0.4097580000000  0.4698380000000  0.4483340000000 1.0
C      1  0.4822010000000  0.4321680000000  0.5526910000000 1.0
C      1  0.5162970000000  0.4326390000000  0.4466940000000 1.0
C      1  0.5568280000000  0.5087750000000  0.5621400000000 1.0
C      1  0.4352470000000  0.5075700000000  0.4275780000000 1.0
C      1  0.4022500000000  0.4947150000000  0.4629810000000 1.0
C      1  0.5949310000000  0.4942450000000  0.5343470000000 1.0
C      1  0.5031620000000  0.5141550000000  0.4536650000000 1.0
C      1  0.4977370000000  0.5138770000000  0.5472620000000 1.0
C      1  0.5022180000000  0.5321100000000  0.4998580000000 1.0
END
