TITL C-3578204-4308-93 -4.89460862071875e-06 125000 -1195.41207672896 0 0 191 (C1) n - 1
REM
REM in /home/bkarasulu/work/CARBON/AIRSS/Generating-Clusters/EDIP-Nigel-Params/with-SteepDescent/Higher-Symm/SD-CG/HFTN-CG
REM
REM
REM
REM
REM
REM ./C.cell (12c818d87b63d06a65506943cc24bca4)
REM
REM compiler GCC version 9.2.1 20190827 (Red Hat 9.2.1-1)
REM options -cpp -mtune=generic -march=x86-64 -g -O0 -fpre-include=/usr/include/finclude/math-vector-fortran.h
REM seed 734742553 -27910722 -1131826867 1719549485 -1823146878 -2055742065 1992651271 -452918732 1224752467 -2005542093 -646248333 568230724 1848916353 -1531754285 545134425 1808762561 294445785 -1048021541 836040118 1167934300 -1320057114 869845438 1489629162 -1314347541 355862457 -1194708715 -1392151053 1845922669 -641792772 1047810870 -1023487114 189847822 -189269032
REM
CELL 1.54180   50.00000   50.00000   50.00000   90.00000   90.00000   90.00000
LATT -1
SFAC C  
C      1  0.4699380000000  0.5528010000000  0.5678880000000 1.0
C      1  0.4672470000000  0.5050420000000  0.5929110000000 1.0
C      1  0.4678510000000  0.4503390000000  0.5756470000000 1.0
C      1  0.4635260000000  0.4152660000000  0.5336180000000 1.0
C      1  0.4683460000000  0.4125830000000  0.4799370000000 1.0
C      1  0.4696250000000  0.4416740000000  0.4338200000000 1.0
C      1  0.4768450000000  0.4903090000000  0.4186490000000 1.0
C      1  0.4793830000000  0.5438840000000  0.4309180000000 1.0
C      1  0.4720860000000  0.5837080000000  0.4708480000000 1.0
C      1  0.4701440000000  0.5814910000000  0.5239090000000 1.0
C      1  0.5048650000000  0.6203140000000  0.5275020000000 1.0
C      1  0.5056320000000  0.5815260000000  0.5947540000000 1.0
C      1  0.5099830000000  0.5191150000000  0.6200590000000 1.0
C      1  0.5060890000000  0.4376720000000  0.6096310000000 1.0
C      1  0.5057330000000  0.3957280000000  0.5551090000000 1.0
C      1  0.5061540000000  0.3760380000000  0.4739340000000 1.0
C      1  0.5054150000000  0.4173010000000  0.4068820000000 1.0
C      1  0.5059220000000  0.4889730000000  0.3732180000000 1.0
C      1  0.5046390000000  0.5644620000000  0.3919250000000 1.0
C      1  0.5066030000000  0.6168170000000  0.4502100000000 1.0
C      1  0.4180330000000  0.5385410000000  0.4337100000000 1.0
C      1  0.4180560000000  0.5661930000000  0.4712370000000 1.0
C      1  0.4130410000000  0.5739290000000  0.5179610000000 1.0
C      1  0.4127580000000  0.5481110000000  0.5570350000000 1.0
C      1  0.4114370000000  0.5054940000000  0.5762130000000 1.0
C      1  0.4128030000000  0.4617420000000  0.5631270000000 1.0
C      1  0.4088930000000  0.4288760000000  0.5290270000000 1.0
C      1  0.4116760000000  0.4275920000000  0.4812830000000 1.0
C      1  0.4128040000000  0.4481770000000  0.4382980000000 1.0
C      1  0.4174890000000  0.4930920000000  0.4227350000000 1.0
C      1  0.5012290000000  0.4393060000000  0.4933510000000 1.0
C      1  0.4912850000000  0.4641990000000  0.4794050000000 1.0
C      1  0.5007880000000  0.4889000000000  0.4391420000000 1.0
C      1  0.4906330000000  0.5058600000000  0.4633950000000 1.0
C      1  0.4967310000000  0.5483050000000  0.4713170000000 1.0
C      1  0.4920460000000  0.5305610000000  0.5007240000000 1.0
C      1  0.4997210000000  0.5389230000000  0.5383620000000 1.0
C      1  0.4878530000000  0.5105230000000  0.5401930000000 1.0
C      1  0.4906500000000  0.4815920000000  0.5541920000000 1.0
C      1  0.4873870000000  0.4660290000000  0.5297340000000 1.0
C      1  0.4015140000000  0.4570860000000  0.5183350000000 1.0
C      1  0.4167710000000  0.4556690000000  0.4923230000000 1.0
C      1  0.4029040000000  0.4666580000000  0.4615390000000 1.0
C      1  0.4176520000000  0.4918470000000  0.4533070000000 1.0
C      1  0.4055770000000  0.5221440000000  0.4572700000000 1.0
C      1  0.4185090000000  0.5372370000000  0.4802990000000 1.0
C      1  0.4035610000000  0.5453780000000  0.5091410000000 1.0
C      1  0.4160870000000  0.5303770000000  0.5323110000000 1.0
C      1  0.4015960000000  0.5048180000000  0.5465260000000 1.0
C      1  0.4147060000000  0.4787320000000  0.5383170000000 1.0
C      1  0.4828510000000  0.6076080000000  0.4609430000000 1.0
C      1  0.4811640000000  0.6063300000000  0.5295170000000 1.0
C      1  0.4819510000000  0.5695470000000  0.5867430000000 1.0
C      1  0.4850510000000  0.5082330000000  0.6141310000000 1.0
C      1  0.4813550000000  0.4389130000000  0.5972540000000 1.0
C      1  0.4805480000000  0.3955560000000  0.5432100000000 1.0
C      1  0.4815990000000  0.3887420000000  0.4741080000000 1.0
C      1  0.4801710000000  0.4254320000000  0.4141290000000 1.0
C      1  0.4846720000000  0.4886220000000  0.3909960000000 1.0
C      1  0.4818600000000  0.5583440000000  0.4064510000000 1.0
C      1  0.3724290000000  0.4616400000000  0.5145230000000 1.0
C      1  0.3640530000000  0.4628680000000  0.4882720000000 1.0
C      1  0.3736550000000  0.4712560000000  0.4638330000000 1.0
C      1  0.3657700000000  0.4964800000000  0.4558920000000 1.0
C      1  0.3758940000000  0.5218500000000  0.4596850000000 1.0
C      1  0.3662340000000  0.5355170000000  0.4816460000000 1.0
C      1  0.3742210000000  0.5417610000000  0.5073020000000 1.0
C      1  0.3636570000000  0.5268640000000  0.5279280000000 1.0
C      1  0.3721350000000  0.5045650000000  0.5417400000000 1.0
C      1  0.3626530000000  0.4805960000000  0.5319470000000 1.0
C      1  0.4586230000000  0.5123830000000  0.5441910000000 1.0
C      1  0.4440200000000  0.4858720000000  0.5356470000000 1.0
C      1  0.4582710000000  0.4613020000000  0.5283270000000 1.0
C      1  0.4475290000000  0.4511710000000  0.5009540000000 1.0
C      1  0.4613780000000  0.4593710000000  0.4750510000000 1.0
C      1  0.4484360000000  0.4827630000000  0.4572230000000 1.0
C      1  0.4616640000000  0.5099560000000  0.4585350000000 1.0
C      1  0.4474360000000  0.5281810000000  0.4792400000000 1.0
C      1  0.4622020000000  0.5410850000000  0.5004110000000 1.0
C      1  0.4482430000000  0.5355410000000  0.5279450000000 1.0
C      1  0.5777590000000  0.5264400000000  0.5393280000000 1.0
C      1  0.5902440000000  0.4962980000000  0.5465580000000 1.0
C      1  0.5768420000000  0.4709970000000  0.5336540000000 1.0
C      1  0.5888590000000  0.4532360000000  0.5094700000000 1.0
C      1  0.5756180000000  0.4569060000000  0.4817450000000 1.0
C      1  0.5880560000000  0.4758640000000  0.4571470000000 1.0
C      1  0.5754630000000  0.5039200000000  0.4518100000000 1.0
C      1  0.5882030000000  0.5324930000000  0.4625000000000 1.0
C      1  0.5756750000000  0.5452910000000  0.4877780000000 1.0
C      1  0.5896790000000  0.5454950000000  0.5182580000000 1.0
C      1  0.5382560000000  0.4858650000000  0.4039460000000 1.0
C      1  0.5341690000000  0.5422490000000  0.4167030000000 1.0
C      1  0.5367610000000  0.5846360000000  0.4567090000000 1.0
C      1  0.5347340000000  0.5901270000000  0.5138500000000 1.0
C      1  0.5387450000000  0.5674550000000  0.5676460000000 1.0
C      1  0.5409590000000  0.5134510000000  0.5889770000000 1.0
C      1  0.5376460000000  0.4597210000000  0.5873760000000 1.0
C      1  0.5334620000000  0.4253650000000  0.5392350000000 1.0
C      1  0.5377010000000  0.4060390000000  0.4858520000000 1.0
C      1  0.5319200000000  0.4360200000000  0.4375240000000 1.0
C      1  0.5220860000000  0.4718670000000  0.5639370000000 1.0
C      1  0.5102100000000  0.4492600000000  0.5193120000000 1.0
C      1  0.5272170000000  0.4333230000000  0.4812090000000 1.0
C      1  0.5095080000000  0.4633500000000  0.4536600000000 1.0
C      1  0.5273480000000  0.4975250000000  0.4283890000000 1.0
C      1  0.5152300000000  0.5366240000000  0.4436160000000 1.0
C      1  0.5244050000000  0.5644070000000  0.4763320000000 1.0
C      1  0.5184960000000  0.5626180000000  0.5148710000000 1.0
C      1  0.5272990000000  0.5433130000000  0.5535680000000 1.0
C      1  0.5285900000000  0.5006430000000  0.5648800000000 1.0
C      1  0.5665630000000  0.5783630000000  0.4551340000000 1.0
C      1  0.5651760000000  0.5873300000000  0.5093910000000 1.0
C      1  0.5692710000000  0.5676310000000  0.5609170000000 1.0
C      1  0.5711730000000  0.5188010000000  0.5864060000000 1.0
C      1  0.5684330000000  0.4645440000000  0.5811810000000 1.0
C      1  0.5640000000000  0.4265200000000  0.5428370000000 1.0
C      1  0.5678780000000  0.4103730000000  0.4901820000000 1.0
C      1  0.5632030000000  0.4359470000000  0.4409650000000 1.0
C      1  0.5681430000000  0.4823010000000  0.4098940000000 1.0
C      1  0.5647940000000  0.5372650000000  0.4191940000000 1.0
C      1  0.6282640000000  0.5207420000000  0.5318410000000 1.0
C      1  0.6193660000000  0.4962860000000  0.5410300000000 1.0
C      1  0.6278380000000  0.4738950000000  0.5273170000000 1.0
C      1  0.6182800000000  0.4573370000000  0.5074200000000 1.0
C      1  0.6266150000000  0.4634790000000  0.4818040000000 1.0
C      1  0.6174830000000  0.4783420000000  0.4604000000000 1.0
C      1  0.6263800000000  0.5044660000000  0.4589620000000 1.0
C      1  0.6176480000000  0.5298260000000  0.4655860000000 1.0
C      1  0.6270410000000  0.5401960000000  0.4894000000000 1.0
C      1  0.6190320000000  0.5412450000000  0.5158130000000 1.0
C      1  0.4572470000000  0.4326960000000  0.4594420000000 1.0
C      1  0.4568810000000  0.4687570000000  0.4293770000000 1.0
C      1  0.4623230000000  0.5174840000000  0.4281010000000 1.0
C      1  0.4637490000000  0.5593560000000  0.4534600000000 1.0
C      1  0.4594000000000  0.5734870000000  0.4970950000000 1.0
C      1  0.4552470000000  0.5626030000000  0.5428080000000 1.0
C      1  0.4557740000000  0.5258750000000  0.5733660000000 1.0
C      1  0.4602680000000  0.4800880000000  0.5757260000000 1.0
C      1  0.4540060000000  0.4389710000000  0.5497910000000 1.0
C      1  0.4522240000000  0.4201140000000  0.5053920000000 1.0
C      1  0.5287320000000  0.3905840000000  0.4618340000000 1.0
C      1  0.5265720000000  0.4372330000000  0.4080870000000 1.0
C      1  0.5295180000000  0.5043520000000  0.3818250000000 1.0
C      1  0.5278050000000  0.5707440000000  0.4090020000000 1.0
C      1  0.5296420000000  0.6114870000000  0.4676820000000 1.0
C      1  0.5282350000000  0.6064440000000  0.5385840000000 1.0
C      1  0.5290050000000  0.5635820000000  0.5960330000000 1.0
C      1  0.5328710000000  0.4980370000000  0.6162250000000 1.0
C      1  0.5269380000000  0.4319450000000  0.5898220000000 1.0
C      1  0.5275950000000  0.3955260000000  0.5330580000000 1.0
C      1  0.4227460000000  0.4134760000000  0.5056260000000 1.0
C      1  0.4271500000000  0.4276230000000  0.4553360000000 1.0
C      1  0.4291210000000  0.4657340000000  0.4180980000000 1.0
C      1  0.4336070000000  0.5186860000000  0.4176520000000 1.0
C      1  0.4335090000000  0.5624150000000  0.4457780000000 1.0
C      1  0.4301680000000  0.5810870000000  0.4945080000000 1.0
C      1  0.4266230000000  0.5721840000000  0.5459650000000 1.0
C      1  0.4262240000000  0.5312310000000  0.5783980000000 1.0
C      1  0.4277480000000  0.4798540000000  0.5815960000000 1.0
C      1  0.4244050000000  0.4354750000000  0.5544140000000 1.0
C      1  0.5763790000000  0.5748160000000  0.4834380000000 1.0
C      1  0.5795460000000  0.5721180000000  0.5312590000000 1.0
C      1  0.5809250000000  0.5398880000000  0.5659670000000 1.0
C      1  0.5827820000000  0.4923850000000  0.5765630000000 1.0
C      1  0.5767230000000  0.4509080000000  0.5555890000000 1.0
C      1  0.5787810000000  0.4245560000000  0.5160760000000 1.0
C      1  0.5769460000000  0.4300010000000  0.4684570000000 1.0
C      1  0.5777690000000  0.4613840000000  0.4315240000000 1.0
C      1  0.5773530000000  0.5087290000000  0.4222690000000 1.0
C      1  0.5778990000000  0.5528160000000  0.4415220000000 1.0
C      1  0.5461900000000  0.4747890000000  0.5343680000000 1.0
C      1  0.5325170000000  0.4660870000000  0.5112950000000 1.0
C      1  0.5446310000000  0.4577340000000  0.4860590000000 1.0
C      1  0.5347490000000  0.4742340000000  0.4653820000000 1.0
C      1  0.5445300000000  0.4994760000000  0.4532780000000 1.0
C      1  0.5318660000000  0.5222100000000  0.4650500000000 1.0
C      1  0.5446750000000  0.5410560000000  0.4843730000000 1.0
C      1  0.5341710000000  0.5376130000000  0.5103900000000 1.0
C      1  0.5469310000000  0.5295300000000  0.5350640000000 1.0
C      1  0.5395690000000  0.5033070000000  0.5385240000000 1.0
C      1  0.5153580000000  0.4238040000000  0.5646230000000 1.0
C      1  0.5218660000000  0.3904310000000  0.5057670000000 1.0
C      1  0.5200310000000  0.4086200000000  0.4411850000000 1.0
C      1  0.5227420000000  0.4623240000000  0.3954610000000 1.0
C      1  0.5221450000000  0.5303340000000  0.3918850000000 1.0
C      1  0.5217020000000  0.5873890000000  0.4312850000000 1.0
C      1  0.5216420000000  0.6094140000000  0.4949890000000 1.0
C      1  0.5233470000000  0.5920330000000  0.5624800000000 1.0
C      1  0.5208290000000  0.5358050000000  0.5967650000000 1.0
C      1  0.5260660000000  0.4702790000000  0.6125050000000 1.0
C      1  0.4946320000000  0.5007030000000  0.4915020000000 1.0
END
