TITL C-3577082-504-382 1.00844279151296e-06 125000 -1173.59721248993 0 0 187 (C1) n - 1
REM
REM in /home/bkarasulu/work/CARBON/AIRSS/Generating-Clusters/EDIP-Nigel-Params/with-SteepDescent/Higher-Symm/SD-CG/HFTN-CG
REM
REM
REM
REM
REM
REM ./C.cell (12c818d87b63d06a65506943cc24bca4)
REM
REM compiler GCC version 9.2.1 20190827 (Red Hat 9.2.1-1)
REM options -cpp -mtune=generic -march=x86-64 -g -O0 -fpre-include=/usr/include/finclude/math-vector-fortran.h
REM seed -1895558644 -1761143138 -1328762647 392147663 -1158109594 -1104739473 1239870491 1788806826 1009772048 -1019890432 1840528292 -1355247903 2119595301 -1971963792 -1803105434 1971284966 -2125370696 1219489127 2439375 -785719659 870847682 904104434 394469272 424656828 -2014438186 1695686987 -442766379 -153209689 1143201125 387402027 -1050887405 -464828775 -441242357
REM
CELL 1.54180   50.00000   50.00000   50.00000   90.00000   90.00000   90.00000
LATT -1
SFAC C  
C      1  0.4577140000000  0.5145030000000  0.4863820000000 1.0
C      1  0.4058930000000  0.5384860000000  0.4578010000000 1.0
C      1  0.5045660000000  0.5843820000000  0.4179830000000 1.0
C      1  0.4275210000000  0.4908270000000  0.4196850000000 1.0
C      1  0.5460330000000  0.6053350000000  0.4746250000000 1.0
C      1  0.5958150000000  0.4499400000000  0.5104300000000 1.0
C      1  0.4383880000000  0.5699170000000  0.5434970000000 1.0
C      1  0.4835620000000  0.4599340000000  0.6048430000000 1.0
C      1  0.5818470000000  0.5000260000000  0.4735340000000 1.0
C      1  0.4804600000000  0.5290480000000  0.4993060000000 1.0
C      1  0.5843740000000  0.5172770000000  0.5738280000000 1.0
C      1  0.4088300000000  0.5105380000000  0.4623360000000 1.0
C      1  0.4562890000000  0.5746990000000  0.4270030000000 1.0
C      1  0.5373600000000  0.4180570000000  0.5856170000000 1.0
C      1  0.4813260000000  0.4330920000000  0.5304730000000 1.0
C      1  0.4769160000000  0.4384570000000  0.4592020000000 1.0
C      1  0.5534140000000  0.5038540000000  0.3941210000000 1.0
C      1  0.5725210000000  0.5626260000000  0.4335730000000 1.0
C      1  0.5504690000000  0.4676820000000  0.5087440000000 1.0
C      1  0.5712740000000  0.4951960000000  0.4191520000000 1.0
C      1  0.5244660000000  0.5028390000000  0.4280010000000 1.0
C      1  0.5594480000000  0.5230840000000  0.5896190000000 1.0
C      1  0.5295500000000  0.5469620000000  0.4017430000000 1.0
C      1  0.4298130000000  0.4554880000000  0.5611780000000 1.0
C      1  0.4993650000000  0.4003610000000  0.4879910000000 1.0
C      1  0.5258160000000  0.5913500000000  0.5701980000000 1.0
C      1  0.4526230000000  0.4095970000000  0.4500140000000 1.0
C      1  0.3913910000000  0.4773140000000  0.5278850000000 1.0
C      1  0.4105240000000  0.4502960000000  0.4426740000000 1.0
C      1  0.4187050000000  0.4438870000000  0.5374140000000 1.0
C      1  0.4510800000000  0.5034750000000  0.4058190000000 1.0
C      1  0.4465460000000  0.4963160000000  0.5091570000000 1.0
C      1  0.4824620000000  0.5273180000000  0.4335780000000 1.0
C      1  0.4309890000000  0.4179880000000  0.5304550000000 1.0
C      1  0.4128260000000  0.5347080000000  0.5769850000000 1.0
C      1  0.5512080000000  0.4752490000000  0.5875120000000 1.0
C      1  0.5481720000000  0.5335160000000  0.4665980000000 1.0
C      1  0.4427510000000  0.5950420000000  0.5265450000000 1.0
C      1  0.4730210000000  0.4962270000000  0.4692440000000 1.0
C      1  0.4073210000000  0.5035200000000  0.4901000000000 1.0
C      1  0.5515260000000  0.4017450000000  0.5269910000000 1.0
C      1  0.5531090000000  0.6051640000000  0.5022660000000 1.0
C      1  0.5748170000000  0.4642550000000  0.4430910000000 1.0
C      1  0.4396960000000  0.5850680000000  0.4506380000000 1.0
C      1  0.5200310000000  0.4897750000000  0.5690050000000 1.0
C      1  0.4718690000000  0.4867400000000  0.5218780000000 1.0
C      1  0.4740830000000  0.6021240000000  0.4814230000000 1.0
C      1  0.5900090000000  0.5235670000000  0.4550410000000 1.0
C      1  0.3972380000000  0.4779500000000  0.4996130000000 1.0
C      1  0.4458310000000  0.5992200000000  0.4758170000000 1.0
C      1  0.4097850000000  0.5736670000000  0.4967520000000 1.0
C      1  0.5008870000000  0.5517530000000  0.5754470000000 1.0
C      1  0.4451870000000  0.4139040000000  0.5568460000000 1.0
C      1  0.5210090000000  0.5063940000000  0.5141530000000 1.0
C      1  0.5164730000000  0.4587780000000  0.4226310000000 1.0
C      1  0.5308060000000  0.6074660000000  0.5224260000000 1.0
C      1  0.5500740000000  0.5817090000000  0.4302020000000 1.0
C      1  0.4786540000000  0.4493340000000  0.5574230000000 1.0
C      1  0.5133930000000  0.4632110000000  0.5341460000000 1.0
C      1  0.4916580000000  0.5098960000000  0.5190740000000 1.0
C      1  0.5626490000000  0.5148730000000  0.5270550000000 1.0
C      1  0.5333240000000  0.3924860000000  0.4568490000000 1.0
C      1  0.4726170000000  0.4037600000000  0.5543830000000 1.0
C      1  0.4817590000000  0.5666650000000  0.4133530000000 1.0
C      1  0.4537230000000  0.4498340000000  0.4189610000000 1.0
C      1  0.5465670000000  0.4986290000000  0.6025850000000 1.0
C      1  0.5235290000000  0.4315340000000  0.6061930000000 1.0
C      1  0.5078240000000  0.4826950000000  0.4400620000000 1.0
C      1  0.4695650000000  0.4786830000000  0.5503460000000 1.0
C      1  0.5859510000000  0.4935480000000  0.5576990000000 1.0
C      1  0.4421240000000  0.5383050000000  0.4717000000000 1.0
C      1  0.5157650000000  0.4590750000000  0.5626940000000 1.0
C      1  0.5548060000000  0.5339140000000  0.3949550000000 1.0
C      1  0.5201520000000  0.4972300000000  0.6116500000000 1.0
C      1  0.5360910000000  0.4589010000000  0.4810700000000 1.0
C      1  0.5209850000000  0.5387890000000  0.4569760000000 1.0
C      1  0.5051700000000  0.3755510000000  0.5289180000000 1.0
C      1  0.4984330000000  0.5068570000000  0.3885800000000 1.0
C      1  0.4884290000000  0.6216920000000  0.4978900000000 1.0
C      1  0.4062350000000  0.4962970000000  0.5441130000000 1.0
C      1  0.5113070000000  0.4356030000000  0.5231560000000 1.0
C      1  0.5596110000000  0.4825730000000  0.4605960000000 1.0
C      1  0.5150450000000  0.5628360000000  0.5292800000000 1.0
C      1  0.4632890000000  0.4461190000000  0.5058390000000 1.0
C      1  0.5792180000000  0.5616340000000  0.5549710000000 1.0
C      1  0.5992730000000  0.4599940000000  0.4620880000000 1.0
C      1  0.5272400000000  0.4397460000000  0.4419430000000 1.0
C      1  0.5019420000000  0.5681000000000  0.4874290000000 1.0
C      1  0.5882740000000  0.5353070000000  0.5092310000000 1.0
C      1  0.5765710000000  0.4125150000000  0.5249310000000 1.0
C      1  0.5706660000000  0.5822070000000  0.5112670000000 1.0
C      1  0.4873010000000  0.5821540000000  0.4643320000000 1.0
C      1  0.5156570000000  0.3810550000000  0.5033360000000 1.0
C      1  0.4183120000000  0.5552960000000  0.4391160000000 1.0
C      1  0.5483840000000  0.5480240000000  0.4939740000000 1.0
C      1  0.5351600000000  0.5899730000000  0.4541240000000 1.0
C      1  0.5128690000000  0.5299800000000  0.4307500000000 1.0
C      1  0.4519550000000  0.4405980000000  0.5725370000000 1.0
C      1  0.4495880000000  0.4186950000000  0.5017570000000 1.0
C      1  0.5242560000000  0.4955490000000  0.3989670000000 1.0
C      1  0.5674700000000  0.4465950000000  0.5548050000000 1.0
C      1  0.4935940000000  0.4883110000000  0.6091260000000 1.0
C      1  0.4815170000000  0.5360490000000  0.5941420000000 1.0
C      1  0.5303590000000  0.5731370000000  0.4949890000000 1.0
C      1  0.5707140000000  0.4911570000000  0.5068280000000 1.0
C      1  0.4398560000000  0.4684110000000  0.4941680000000 1.0
C      1  0.4053570000000  0.5232900000000  0.5345140000000 1.0
C      1  0.6069860000000  0.4840060000000  0.4781750000000 1.0
C      1  0.4725360000000  0.5476410000000  0.4573210000000 1.0
C      1  0.4296080000000  0.4966750000000  0.4486640000000 1.0
C      1  0.5059150000000  0.3980080000000  0.4588410000000 1.0
C      1  0.5393340000000  0.5290390000000  0.5147310000000 1.0
C      1  0.4861200000000  0.4497710000000  0.4854450000000 1.0
C      1  0.5751040000000  0.5486160000000  0.4601810000000 1.0
C      1  0.5849110000000  0.5612750000000  0.4951300000000 1.0
C      1  0.5953430000000  0.5388670000000  0.5575150000000 1.0
C      1  0.5023180000000  0.6066970000000  0.5675780000000 1.0
C      1  0.5294690000000  0.4159960000000  0.5416620000000 1.0
C      1  0.6047560000000  0.4960420000000  0.5350800000000 1.0
C      1  0.5899970000000  0.5179940000000  0.4255350000000 1.0
C      1  0.4480710000000  0.4898630000000  0.5897540000000 1.0
C      1  0.5372450000000  0.5156900000000  0.5562980000000 1.0
C      1  0.4788570000000  0.4950810000000  0.4396230000000 1.0
C      1  0.4136550000000  0.4357080000000  0.4679720000000 1.0
C      1  0.5997190000000  0.4794510000000  0.5087810000000 1.0
C      1  0.4298840000000  0.5927300000000  0.4997880000000 1.0
C      1  0.4731570000000  0.5979000000000  0.5251430000000 1.0
C      1  0.5513930000000  0.5032480000000  0.4411190000000 1.0
C      1  0.4492590000000  0.5202500000000  0.5391080000000 1.0
C      1  0.5308450000000  0.5749610000000  0.4084970000000 1.0
C      1  0.5436320000000  0.3890480000000  0.5023840000000 1.0
C      1  0.4386950000000  0.4208730000000  0.4726660000000 1.0
C      1  0.4836770000000  0.5696180000000  0.5313180000000 1.0
C      1  0.4584410000000  0.4198320000000  0.4228420000000 1.0
C      1  0.4918350000000  0.4115570000000  0.5769710000000 1.0
C      1  0.5724550000000  0.4407900000000  0.5260260000000 1.0
C      1  0.5715510000000  0.4712060000000  0.5682560000000 1.0
C      1  0.4976740000000  0.5412640000000  0.4764760000000 1.0
C      1  0.4631270000000  0.4613390000000  0.4444960000000 1.0
C      1  0.5117620000000  0.5381000000000  0.5505250000000 1.0
C      1  0.4241850000000  0.5483950000000  0.4988400000000 1.0
C      1  0.4880460000000  0.6170690000000  0.5455230000000 1.0
C      1  0.4382720000000  0.4706420000000  0.4607700000000 1.0
C      1  0.5449760000000  0.5464890000000  0.5790310000000 1.0
C      1  0.4389130000000  0.4836180000000  0.5601910000000 1.0
C      1  0.5524970000000  0.4000450000000  0.4761650000000 1.0
C      1  0.4694390000000  0.5520920000000  0.5130340000000 1.0
C      1  0.5567600000000  0.4400980000000  0.4480810000000 1.0
C      1  0.5337200000000  0.5846330000000  0.5418080000000 1.0
C      1  0.4050820000000  0.5271200000000  0.5062020000000 1.0
C      1  0.4556430000000  0.4606740000000  0.5968860000000 1.0
C      1  0.5243540000000  0.5657720000000  0.5861960000000 1.0
C      1  0.4970680000000  0.4448160000000  0.4037520000000 1.0
C      1  0.3910440000000  0.4497290000000  0.5348890000000 1.0
C      1  0.4435650000000  0.5471870000000  0.5234440000000 1.0
C      1  0.5319940000000  0.4828260000000  0.5266730000000 1.0
C      1  0.4802990000000  0.5400740000000  0.3969750000000 1.0
C      1  0.4092620000000  0.5462320000000  0.5518800000000 1.0
C      1  0.4805280000000  0.3891240000000  0.5292350000000 1.0
C      1  0.5167430000000  0.4801190000000  0.4690690000000 1.0
C      1  0.6047950000000  0.5262280000000  0.5318640000000 1.0
C      1  0.4885690000000  0.4985430000000  0.5646750000000 1.0
C      1  0.5076080000000  0.5942690000000  0.4457640000000 1.0
C      1  0.4978670000000  0.4355280000000  0.5949780000000 1.0
C      1  0.4729160000000  0.4610870000000  0.3986270000000 1.0
C      1  0.5131060000000  0.4365370000000  0.4926630000000 1.0
C      1  0.5399710000000  0.4372020000000  0.5625170000000 1.0
C      1  0.5624150000000  0.5761560000000  0.5382640000000 1.0
C      1  0.4764850000000  0.5049470000000  0.5912890000000 1.0
C      1  0.5002990000000  0.4232310000000  0.4443660000000 1.0
C      1  0.4881870000000  0.4188370000000  0.4170760000000 1.0
C      1  0.4749520000000  0.4903030000000  0.3960540000000 1.0
C      1  0.5062030000000  0.6249230000000  0.5217750000000 1.0
C      1  0.5648820000000  0.4270980000000  0.4730870000000 1.0
C      1  0.4521080000000  0.5322170000000  0.4030740000000 1.0
C      1  0.4573720000000  0.5470100000000  0.5820920000000 1.0
C      1  0.4401050000000  0.5258490000000  0.5710590000000 1.0
C      1  0.4725470000000  0.3991990000000  0.5029080000000 1.0
C      1  0.5914660000000  0.4390100000000  0.4821880000000 1.0
C      1  0.4860580000000  0.5219720000000  0.5455790000000 1.0
C      1  0.5782130000000  0.5423480000000  0.4121300000000 1.0
C      1  0.5178730000000  0.3997270000000  0.5712590000000 1.0
C      1  0.4919270000000  0.4792450000000  0.4833750000000 1.0
C      1  0.4424120000000  0.5494500000000  0.4246120000000 1.0
C      1  0.4053280000000  0.4512580000000  0.4911220000000 1.0
C      1  0.4617600000000  0.5674650000000  0.5621460000000 1.0
C      1  0.4255910000000  0.4601060000000  0.4189740000000 1.0
END
