TITL C-3578202-4305-649 1.21278409570408e-06 125000 -277.674904090386 0 0 46 (C1) n - 1
REM
REM in /home/bkarasulu/work/CARBON/AIRSS/Generating-Clusters/EDIP-Nigel-Params/with-SteepDescent/Higher-Symm/SD-CG/HFTN-CG
REM
REM
REM
REM
REM
REM ./C.cell (12c818d87b63d06a65506943cc24bca4)
REM
REM compiler GCC version 9.2.1 20190827 (Red Hat 9.2.1-1)
REM options -cpp -mtune=generic -march=x86-64 -g -O0 -fpre-include=/usr/include/finclude/math-vector-fortran.h
REM seed -1223423744 1019194894 513124515 -1156970290 -1061494871 2051103858 -1701689472 959007157 -807703580 1999424386 -480511410 -1401823642 1554772984 -1257666596 -602898321 -164650885 -1438308290 -1617900501 -1064186319 -113858317 -21856756 260163083 594864191 -106974233 1911806689 -568805394 1109219423 -474728365 -734942810 2051044646 -1226298594 -929199549 -2064930016
REM
CELL 1.54180   50.00000   50.00000   50.00000   90.00000   90.00000   90.00000
LATT -1
SFAC C  
C      1  0.4367850000000  0.5085280000000  0.4691910000000 1.0
C      1  0.4249950000000  0.5319830000000  0.5120760000000 1.0
C      1  0.4182400000000  0.4853520000000  0.5259660000000 1.0
C      1  0.4270660000000  0.4623820000000  0.4869720000000 1.0
C      1  0.4255010000000  0.5114950000000  0.5333500000000 1.0
C      1  0.4196110000000  0.5219330000000  0.4864200000000 1.0
C      1  0.4318320000000  0.4811640000000  0.4680670000000 1.0
C      1  0.4323350000000  0.4643300000000  0.5143520000000 1.0
C      1  0.5288240000000  0.5248950000000  0.5550440000000 1.0
C      1  0.5352640000000  0.4340420000000  0.5236180000000 1.0
C      1  0.5196370000000  0.4790690000000  0.4459950000000 1.0
C      1  0.5135700000000  0.5463310000000  0.4702030000000 1.0
C      1  0.5339940000000  0.5258710000000  0.4331290000000 1.0
C      1  0.5178000000000  0.4470580000000  0.4783030000000 1.0
C      1  0.5143340000000  0.4702020000000  0.5449580000000 1.0
C      1  0.5293440000000  0.5573040000000  0.5245770000000 1.0
C      1  0.4938980000000  0.5550470000000  0.4900340000000 1.0
C      1  0.5045300000000  0.5134020000000  0.5621880000000 1.0
C      1  0.4854710000000  0.4385130000000  0.5203070000000 1.0
C      1  0.4921010000000  0.4905660000000  0.4497860000000 1.0
C      1  0.5051120000000  0.5652570000000  0.5133070000000 1.0
C      1  0.4858280000000  0.5187310000000  0.4407590000000 1.0
C      1  0.4892840000000  0.4440380000000  0.4903210000000 1.0
C      1  0.4942890000000  0.4897330000000  0.5520670000000 1.0
C      1  0.4680760000000  0.5417190000000  0.4902350000000 1.0
C      1  0.4534220000000  0.5132700000000  0.5405130000000 1.0
C      1  0.4620850000000  0.4663020000000  0.5195550000000 1.0
C      1  0.4859210000000  0.4944570000000  0.4800020000000 1.0
C      1  0.4523400000000  0.5416110000000  0.5144220000000 1.0
C      1  0.4652510000000  0.5183140000000  0.4714180000000 1.0
C      1  0.4736220000000  0.4695170000000  0.4910440000000 1.0
C      1  0.4688170000000  0.4890980000000  0.5388150000000 1.0
C      1  0.5425750000000  0.4787140000000  0.5406500000000 1.0
C      1  0.5337090000000  0.4689340000000  0.4908740000000 1.0
C      1  0.5467930000000  0.5193390000000  0.4582760000000 1.0
C      1  0.5459380000000  0.5377310000000  0.5083990000000 1.0
C      1  0.5373970000000  0.4908040000000  0.4671960000000 1.0
C      1  0.5468330000000  0.4597040000000  0.5166890000000 1.0
C      1  0.5450960000000  0.5092450000000  0.5348640000000 1.0
C      1  0.5421820000000  0.5430700000000  0.4779900000000 1.0
C      1  0.5090580000000  0.5365880000000  0.4426920000000 1.0
C      1  0.5104820000000  0.4426360000000  0.5355210000000 1.0
C      1  0.5183240000000  0.4510270000000  0.4501100000000 1.0
C      1  0.5297160000000  0.5525990000000  0.5520440000000 1.0
C      1  0.5337610000000  0.5102310000000  0.5067570000000 1.0
C      1  0.5075860000000  0.5040610000000  0.4972450000000 1.0
END
