TITL C-3578208-4450-731 -2.0470261907764e-06 125000 -965.374181496464 0 0 154 (C1) n - 1
REM
REM in /home/bkarasulu/work/CARBON/AIRSS/Generating-Clusters/EDIP-Nigel-Params/with-SteepDescent/Higher-Symm/SD-CG/HFTN-CG
REM
REM
REM
REM
REM
REM ./C.cell (12c818d87b63d06a65506943cc24bca4)
REM
REM compiler GCC version 9.2.1 20190827 (Red Hat 9.2.1-1)
REM options -cpp -mtune=generic -march=x86-64 -g -O0 -fpre-include=/usr/include/finclude/math-vector-fortran.h
REM seed -971417044 634017327 -188711216 1243792122 1512637946 362779269 -379973682 -1652045466 -1616180757 965371889 -42682910 1243681476 -2026802170 2147159528 89988166 1998962158 942342903 1755115896 2036471056 580089025 -2026981704 -1166764545 1315558012 -339348116 -1179834498 -110644474 -1841234812 -1052096581 -1172946720 -1068631589 -836906224 1958766367 -408580760
REM
CELL 1.54180   50.00000   50.00000   50.00000   90.00000   90.00000   90.00000
LATT -1
SFAC C  
C      1  0.5543480000000  0.4967820000000  0.5815660000000 1.0
C      1  0.5906660000000  0.4984650000000  0.5170850000000 1.0
C      1  0.5930700000000  0.4920960000000  0.4684530000000 1.0
C      1  0.5399080000000  0.4877220000000  0.4192110000000 1.0
C      1  0.4785960000000  0.4880590000000  0.4171230000000 1.0
C      1  0.4320690000000  0.4916150000000  0.4565490000000 1.0
C      1  0.4090530000000  0.4964600000000  0.5150930000000 1.0
C      1  0.4288750000000  0.4952760000000  0.5730690000000 1.0
C      1  0.4945220000000  0.4969290000000  0.5917540000000 1.0
C      1  0.5986210000000  0.4720230000000  0.5075650000000 1.0
C      1  0.5835440000000  0.4776710000000  0.4435360000000 1.0
C      1  0.5247060000000  0.4720690000000  0.3984840000000 1.0
C      1  0.4523460000000  0.4771870000000  0.4113270000000 1.0
C      1  0.4064990000000  0.4792460000000  0.4646050000000 1.0
C      1  0.4048970000000  0.4739400000000  0.5323120000000 1.0
C      1  0.4483670000000  0.4780250000000  0.5873930000000 1.0
C      1  0.5109360000000  0.4738430000000  0.5968350000000 1.0
C      1  0.5698110000000  0.4812410000000  0.5618920000000 1.0
C      1  0.5650770000000  0.4957910000000  0.4308470000000 1.0
C      1  0.4994250000000  0.4880630000000  0.3967820000000 1.0
C      1  0.4343250000000  0.4928950000000  0.4279820000000 1.0
C      1  0.3980730000000  0.4926060000000  0.4889520000000 1.0
C      1  0.4066830000000  0.4851050000000  0.5584650000000 1.0
C      1  0.4676160000000  0.4939890000000  0.6008770000000 1.0
C      1  0.5365510000000  0.4852540000000  0.5997550000000 1.0
C      1  0.5823520000000  0.4999310000000  0.5443970000000 1.0
C      1  0.6124440000000  0.4772490000000  0.4834940000000 1.0
C      1  0.5140900000000  0.4992740000000  0.4536440000000 1.0
C      1  0.4875530000000  0.5108500000000  0.4623410000000 1.0
C      1  0.4543530000000  0.5208370000000  0.4981350000000 1.0
C      1  0.4550310000000  0.5061320000000  0.5242460000000 1.0
C      1  0.4778270000000  0.5167110000000  0.5437790000000 1.0
C      1  0.5070800000000  0.5031090000000  0.5465750000000 1.0
C      1  0.5302580000000  0.5157890000000  0.5264350000000 1.0
C      1  0.5440140000000  0.5010600000000  0.5010570000000 1.0
C      1  0.5363220000000  0.5136830000000  0.4695370000000 1.0
C      1  0.5636550000000  0.5151680000000  0.4543260000000 1.0
C      1  0.5174870000000  0.5071720000000  0.4240030000000 1.0
C      1  0.4677530000000  0.5087080000000  0.4381300000000 1.0
C      1  0.4298930000000  0.5132430000000  0.4803360000000 1.0
C      1  0.4269720000000  0.5120310000000  0.5352940000000 1.0
C      1  0.4612840000000  0.5161410000000  0.5699960000000 1.0
C      1  0.5164010000000  0.5127230000000  0.5757820000000 1.0
C      1  0.5499290000000  0.5186280000000  0.5500880000000 1.0
C      1  0.5730570000000  0.5108180000000  0.4960130000000 1.0
C      1  0.4544650000000  0.6139260000000  0.5147440000000 1.0
C      1  0.4752120000000  0.6149720000000  0.5375690000000 1.0
C      1  0.5025530000000  0.5993560000000  0.5368870000000 1.0
C      1  0.5248570000000  0.6131660000000  0.5224680000000 1.0
C      1  0.5290600000000  0.6028200000000  0.4951190000000 1.0
C      1  0.5338080000000  0.6177080000000  0.4696280000000 1.0
C      1  0.5098910000000  0.6185840000000  0.4509620000000 1.0
C      1  0.4819650000000  0.6124220000000  0.4620150000000 1.0
C      1  0.4601270000000  0.6112340000000  0.4845790000000 1.0
C      1  0.5234360000000  0.4255230000000  0.4503620000000 1.0
C      1  0.5008090000000  0.4462920000000  0.4494780000000 1.0
C      1  0.4693440000000  0.4425980000000  0.4868020000000 1.0
C      1  0.4565270000000  0.4254620000000  0.5076100000000 1.0
C      1  0.4725330000000  0.4337810000000  0.5328450000000 1.0
C      1  0.4973730000000  0.4206670000000  0.5430850000000 1.0
C      1  0.5212070000000  0.4321100000000  0.5258730000000 1.0
C      1  0.5416390000000  0.4202110000000  0.5066480000000 1.0
C      1  0.5387580000000  0.4327610000000  0.4766390000000 1.0
C      1  0.4271920000000  0.4362420000000  0.5795360000000 1.0
C      1  0.4959780000000  0.4306360000000  0.5732840000000 1.0
C      1  0.5639590000000  0.4420530000000  0.5862310000000 1.0
C      1  0.5702740000000  0.4296490000000  0.5191130000000 1.0
C      1  0.5969650000000  0.4340840000000  0.4552050000000 1.0
C      1  0.5380130000000  0.4291750000000  0.4226580000000 1.0
C      1  0.4688790000000  0.4337030000000  0.3977680000000 1.0
C      1  0.4099200000000  0.4378400000000  0.4390100000000 1.0
C      1  0.4272330000000  0.4340150000000  0.5092430000000 1.0
C      1  0.4865800000000  0.5462940000000  0.5394350000000 1.0
C      1  0.5120520000000  0.5622890000000  0.5359550000000 1.0
C      1  0.5246030000000  0.5435980000000  0.5170070000000 1.0
C      1  0.5412790000000  0.5534750000000  0.4954430000000 1.0
C      1  0.5275050000000  0.5428670000000  0.4700660000000 1.0
C      1  0.4963970000000  0.5422780000000  0.4639450000000 1.0
C      1  0.4770660000000  0.5602950000000  0.4777720000000 1.0
C      1  0.4594760000000  0.5520710000000  0.5001520000000 1.0
C      1  0.4694750000000  0.5637020000000  0.5255810000000 1.0
C      1  0.5799610000000  0.5569280000000  0.4706330000000 1.0
C      1  0.5421400000000  0.5545100000000  0.4361540000000 1.0
C      1  0.4935170000000  0.5496280000000  0.4332470000000 1.0
C      1  0.4431720000000  0.5507650000000  0.4448930000000 1.0
C      1  0.4141390000000  0.5523980000000  0.4987770000000 1.0
C      1  0.4341770000000  0.5564700000000  0.5564430000000 1.0
C      1  0.4841920000000  0.5580680000000  0.5817970000000 1.0
C      1  0.5297150000000  0.5600750000000  0.5609030000000 1.0
C      1  0.5714950000000  0.5577680000000  0.5320870000000 1.0
C      1  0.5793950000000  0.4539480000000  0.5659020000000 1.0
C      1  0.5748330000000  0.4535910000000  0.5019720000000 1.0
C      1  0.5858360000000  0.4499070000000  0.4349410000000 1.0
C      1  0.5206510000000  0.4423650000000  0.4020940000000 1.0
C      1  0.4487810000000  0.4485340000000  0.4095000000000 1.0
C      1  0.4047620000000  0.4496500000000  0.4636130000000 1.0
C      1  0.4284010000000  0.4561310000000  0.5288430000000 1.0
C      1  0.4488830000000  0.4488940000000  0.5917620000000 1.0
C      1  0.5127530000000  0.4550480000000  0.5735260000000 1.0
C      1  0.5347400000000  0.3910470000000  0.5037180000000 1.0
C      1  0.5245410000000  0.3853920000000  0.4782000000000 1.0
C      1  0.5119820000000  0.3981940000000  0.4563680000000 1.0
C      1  0.4830080000000  0.4029820000000  0.4600270000000 1.0
C      1  0.4689990000000  0.3881010000000  0.4791090000000 1.0
C      1  0.4599060000000  0.3958400000000  0.5040200000000 1.0
C      1  0.4725710000000  0.3839630000000  0.5257000000000 1.0
C      1  0.4962810000000  0.3911040000000  0.5382460000000 1.0
C      1  0.5191590000000  0.3822690000000  0.5250360000000 1.0
C      1  0.4714590000000  0.5928580000000  0.4421980000000 1.0
C      1  0.4403310000000  0.5902370000000  0.4756350000000 1.0
C      1  0.4346940000000  0.5923450000000  0.5227280000000 1.0
C      1  0.4632360000000  0.5992660000000  0.5611190000000 1.0
C      1  0.5087430000000  0.6018950000000  0.5663500000000 1.0
C      1  0.5467710000000  0.6017830000000  0.5417300000000 1.0
C      1  0.5511070000000  0.5833580000000  0.4976370000000 1.0
C      1  0.5554580000000  0.6012620000000  0.4544970000000 1.0
C      1  0.5155400000000  0.5977340000000  0.4295910000000 1.0
C      1  0.4848220000000  0.5884990000000  0.5791420000000 1.0
C      1  0.5350350000000  0.5887650000000  0.5675620000000 1.0
C      1  0.5644850000000  0.5849070000000  0.5242560000000 1.0
C      1  0.5707290000000  0.5855260000000  0.4751430000000 1.0
C      1  0.5415560000000  0.5845890000000  0.4339220000000 1.0
C      1  0.4923030000000  0.5796410000000  0.4272760000000 1.0
C      1  0.4573990000000  0.5730300000000  0.4587840000000 1.0
C      1  0.4347450000000  0.5733390000000  0.4993410000000 1.0
C      1  0.4498200000000  0.5780800000000  0.5435160000000 1.0
C      1  0.5248420000000  0.4603180000000  0.5253270000000 1.0
C      1  0.5442430000000  0.4704880000000  0.5036990000000 1.0
C      1  0.5350250000000  0.4610430000000  0.4780840000000 1.0
C      1  0.5100660000000  0.4702150000000  0.4655730000000 1.0
C      1  0.4829640000000  0.4904960000000  0.4844300000000 1.0
C      1  0.4641210000000  0.4706060000000  0.4920990000000 1.0
C      1  0.4559710000000  0.4750430000000  0.5204030000000 1.0
C      1  0.4770230000000  0.4624370000000  0.5370930000000 1.0
C      1  0.5055100000000  0.4714120000000  0.5453460000000 1.0
C      1  0.5196520000000  0.5378040000000  0.4217210000000 1.0
C      1  0.4651440000000  0.5368560000000  0.4289590000000 1.0
C      1  0.4203630000000  0.5395260000000  0.4711990000000 1.0
C      1  0.4210000000000  0.5411310000000  0.5328450000000 1.0
C      1  0.4556230000000  0.5441350000000  0.5767000000000 1.0
C      1  0.5121320000000  0.5437460000000  0.5800760000000 1.0
C      1  0.5559770000000  0.5467730000000  0.5540830000000 1.0
C      1  0.5717430000000  0.5419630000000  0.4976990000000 1.0
C      1  0.5684690000000  0.5432630000000  0.4464750000000 1.0
C      1  0.5823690000000  0.4396310000000  0.4776820000000 1.0
C      1  0.5642750000000  0.4385960000000  0.4216800000000 1.0
C      1  0.4954280000000  0.4316010000000  0.3960150000000 1.0
C      1  0.4244030000000  0.4378280000000  0.4166240000000 1.0
C      1  0.4106980000000  0.4363370000000  0.4872150000000 1.0
C      1  0.4292890000000  0.4412920000000  0.5530550000000 1.0
C      1  0.4727920000000  0.4346520000000  0.5884480000000 1.0
C      1  0.5383480000000  0.4430090000000  0.5767300000000 1.0
C      1  0.5801130000000  0.4364130000000  0.5442050000000 1.0
C      1  0.4779610000000  0.4322120000000  0.4610910000000 1.0
END
