TITL C-3577076-40-507 -1.31265672299965e-06 125000 -935.280412106936 0 0 153 (C1) n - 1
REM
REM in /home/bkarasulu/work/CARBON/AIRSS/Generating-Clusters/EDIP-Nigel-Params/with-SteepDescent/Higher-Symm/SD-CG/HFTN-CG
REM
REM
REM
REM
REM
REM ./C.cell (12c818d87b63d06a65506943cc24bca4)
REM
REM compiler GCC version 9.2.1 20190827 (Red Hat 9.2.1-1)
REM options -cpp -mtune=generic -march=x86-64 -g -O0 -fpre-include=/usr/include/finclude/math-vector-fortran.h
REM seed 414728052 2071914682 -588449285 204026474 -1307698882 1152416108 -946623148 -998538296 -1630473697 1353703147 1083677891 459634894 972206577 -1207321415 -994159997 341945411 1183971429 -1793133288 -1365396143 1772954907 1742119730 2048224609 1224963858 -1054422746 -840909426 931714133 1932355003 -1393073292 -1433210374 -891077855 608959007 -370262983 -2106536484
REM
CELL 1.54180   50.00000   50.00000   50.00000   90.00000   90.00000   90.00000
LATT -1
SFAC C  
C      1  0.5135060000000  0.4466960000000  0.5550330000000 1.0
C      1  0.5639320000000  0.5193250000000  0.4569800000000 1.0
C      1  0.4378890000000  0.5494520000000  0.5175130000000 1.0
C      1  0.4679360000000  0.5521170000000  0.5620430000000 1.0
C      1  0.4884730000000  0.4543640000000  0.4336080000000 1.0
C      1  0.5209770000000  0.5519360000000  0.4388160000000 1.0
C      1  0.4502000000000  0.4853890000000  0.4386100000000 1.0
C      1  0.4390190000000  0.5132200000000  0.5531870000000 1.0
C      1  0.5562360000000  0.4775520000000  0.5478190000000 1.0
C      1  0.5342200000000  0.4382410000000  0.5089430000000 1.0
C      1  0.5490560000000  0.5627220000000  0.4871620000000 1.0
C      1  0.4558680000000  0.4393630000000  0.4710970000000 1.0
C      1  0.5126520000000  0.4389260000000  0.4416000000000 1.0
C      1  0.5732630000000  0.4985320000000  0.5614080000000 1.0
C      1  0.4431670000000  0.5652270000000  0.4824720000000 1.0
C      1  0.4808770000000  0.5583330000000  0.4391470000000 1.0
C      1  0.4868150000000  0.4556740000000  0.5640730000000 1.0
C      1  0.5300610000000  0.5617030000000  0.5545560000000 1.0
C      1  0.4457230000000  0.4850560000000  0.5645870000000 1.0
C      1  0.4383690000000  0.5162690000000  0.4452080000000 1.0
C      1  0.5609520000000  0.4741200000000  0.4464560000000 1.0
C      1  0.5553140000000  0.4468090000000  0.4900230000000 1.0
C      1  0.5601570000000  0.5567650000000  0.5149450000000 1.0
C      1  0.4589220000000  0.4317170000000  0.5229880000000 1.0
C      1  0.4829920000000  0.4530600000000  0.4831430000000 1.0
C      1  0.4830030000000  0.4823780000000  0.4448360000000 1.0
C      1  0.4514980000000  0.4890420000000  0.4834670000000 1.0
C      1  0.5229070000000  0.5511790000000  0.4912240000000 1.0
C      1  0.5124330000000  0.4532660000000  0.5236690000000 1.0
C      1  0.4816010000000  0.5536450000000  0.5163870000000 1.0
C      1  0.5122700000000  0.5228970000000  0.4536850000000 1.0
C      1  0.5091360000000  0.4924500000000  0.5521050000000 1.0
C      1  0.4809820000000  0.5268900000000  0.5516350000000 1.0
C      1  0.5501170000000  0.5092210000000  0.4810600000000 1.0
C      1  0.5473000000000  0.4910130000000  0.5213800000000 1.0
C      1  0.4470740000000  0.5176010000000  0.5236510000000 1.0
C      1  0.4824060000000  0.4512520000000  0.5137100000000 1.0
C      1  0.4781010000000  0.4815980000000  0.5531970000000 1.0
C      1  0.4485540000000  0.4878480000000  0.5127470000000 1.0
C      1  0.5131850000000  0.5551510000000  0.5197190000000 1.0
C      1  0.5135450000000  0.4482610000000  0.4712810000000 1.0
C      1  0.4708600000000  0.5549320000000  0.4887670000000 1.0
C      1  0.5095180000000  0.5222610000000  0.5544290000000 1.0
C      1  0.5113710000000  0.4932570000000  0.4483410000000 1.0
C      1  0.4843320000000  0.5310440000000  0.4515080000000 1.0
C      1  0.5502670000000  0.5218670000000  0.5229850000000 1.0
C      1  0.5504650000000  0.4789290000000  0.4753540000000 1.0
C      1  0.4466170000000  0.5157610000000  0.4742850000000 1.0
C      1  0.5160190000000  0.5977100000000  0.5568190000000 1.0
C      1  0.5656800000000  0.5024630000000  0.5895700000000 1.0
C      1  0.5903600000000  0.5585420000000  0.5170080000000 1.0
C      1  0.4914110000000  0.4072670000000  0.5726090000000 1.0
C      1  0.4836280000000  0.5958160000000  0.4292300000000 1.0
C      1  0.5128590000000  0.4079260000000  0.4413510000000 1.0
C      1  0.4408970000000  0.4824310000000  0.5945560000000 1.0
C      1  0.4354200000000  0.5101970000000  0.4067020000000 1.0
C      1  0.5640460000000  0.4824890000000  0.4087640000000 1.0
C      1  0.4335840000000  0.4418470000000  0.5092770000000 1.0
C      1  0.4062260000000  0.5637960000000  0.4943400000000 1.0
C      1  0.6040160000000  0.4351250000000  0.4816600000000 1.0
C      1  0.5107160000000  0.5879120000000  0.4315640000000 1.0
C      1  0.5660190000000  0.5079150000000  0.4208190000000 1.0
C      1  0.6047900000000  0.5620680000000  0.4933060000000 1.0
C      1  0.4894730000000  0.3932710000000  0.4354890000000 1.0
C      1  0.4921170000000  0.5826170000000  0.5585630000000 1.0
C      1  0.5164630000000  0.4176090000000  0.5647320000000 1.0
C      1  0.4392150000000  0.4824550000000  0.4019970000000 1.0
C      1  0.4370820000000  0.5062930000000  0.6087340000000 1.0
C      1  0.5598860000000  0.4786870000000  0.6038160000000 1.0
C      1  0.4202850000000  0.4343720000000  0.4855000000000 1.0
C      1  0.4008650000000  0.5578300000000  0.5222320000000 1.0
C      1  0.5830780000000  0.4370660000000  0.5007320000000 1.0
C      1  0.5469810000000  0.4280380000000  0.4676240000000 1.0
C      1  0.4542830000000  0.5518630000000  0.4259710000000 1.0
C      1  0.4312810000000  0.4625110000000  0.5511580000000 1.0
C      1  0.4448050000000  0.5771050000000  0.4542100000000 1.0
C      1  0.4491970000000  0.4363430000000  0.5545480000000 1.0
C      1  0.5485070000000  0.5760760000000  0.5355390000000 1.0
C      1  0.5388170000000  0.4479290000000  0.4288670000000 1.0
C      1  0.5515100000000  0.5429300000000  0.5674930000000 1.0
C      1  0.4707210000000  0.4456440000000  0.5854270000000 1.0
C      1  0.5687490000000  0.5251530000000  0.5479240000000 1.0
C      1  0.5739600000000  0.4470800000000  0.4472330000000 1.0
C      1  0.4239470000000  0.5446050000000  0.4495510000000 1.0
C      1  0.5477400000000  0.4235280000000  0.5295580000000 1.0
C      1  0.4442720000000  0.5421840000000  0.5784610000000 1.0
C      1  0.4372330000000  0.4602310000000  0.4538860000000 1.0
C      1  0.4533600000000  0.5672790000000  0.5395040000000 1.0
C      1  0.4559020000000  0.4267120000000  0.4429400000000 1.0
C      1  0.5500240000000  0.5747920000000  0.4596250000000 1.0
C      1  0.5306380000000  0.4715660000000  0.5654840000000 1.0
C      1  0.5492780000000  0.5501450000000  0.4291780000000 1.0
C      1  0.4706930000000  0.4456460000000  0.4127160000000 1.0
C      1  0.5761900000000  0.5457520000000  0.4570020000000 1.0
C      1  0.5697190000000  0.4518950000000  0.5414110000000 1.0
C      1  0.4141160000000  0.5275580000000  0.5591890000000 1.0
C      1  0.4868500000000  0.4914820000000  0.5987850000000 1.0
C      1  0.5949400000000  0.4812500000000  0.4768080000000 1.0
C      1  0.4804490000000  0.6060670000000  0.4762730000000 1.0
C      1  0.5204090000000  0.5197800000000  0.6045770000000 1.0
C      1  0.5165090000000  0.4902180000000  0.4044690000000 1.0
C      1  0.4834560000000  0.5194120000000  0.3998940000000 1.0
C      1  0.3988690000000  0.5166450000000  0.4846270000000 1.0
C      1  0.4020800000000  0.4817820000000  0.5120650000000 1.0
C      1  0.6007180000000  0.5102060000000  0.5101310000000 1.0
C      1  0.5021910000000  0.4046560000000  0.4898090000000 1.0
C      1  0.5098040000000  0.5971480000000  0.5082790000000 1.0
C      1  0.4751870000000  0.3985460000000  0.5299530000000 1.0
C      1  0.4873650000000  0.4910370000000  0.4014450000000 1.0
C      1  0.5880910000000  0.4834830000000  0.5055720000000 1.0
C      1  0.4820300000000  0.6017090000000  0.5145830000000 1.0
C      1  0.5221570000000  0.5185310000000  0.4019110000000 1.0
C      1  0.5143940000000  0.4910890000000  0.6081020000000 1.0
C      1  0.4814970000000  0.5200300000000  0.6025050000000 1.0
C      1  0.4046000000000  0.5109770000000  0.5122440000000 1.0
C      1  0.3979900000000  0.4781410000000  0.4832360000000 1.0
C      1  0.6070700000000  0.5170650000000  0.4823010000000 1.0
C      1  0.5019570000000  0.4037680000000  0.5194510000000 1.0
C      1  0.5091030000000  0.6024890000000  0.4792750000000 1.0
C      1  0.4769430000000  0.4011490000000  0.4781070000000 1.0
C      1  0.5382530000000  0.4701680000000  0.4088630000000 1.0
C      1  0.4059700000000  0.5427490000000  0.4741410000000 1.0
C      1  0.4678260000000  0.4064270000000  0.5572310000000 1.0
C      1  0.4570530000000  0.5290130000000  0.4071320000000 1.0
C      1  0.4664590000000  0.4699430000000  0.6011170000000 1.0
C      1  0.5461240000000  0.5250890000000  0.5909270000000 1.0
C      1  0.5974790000000  0.4552770000000  0.4631720000000 1.0
C      1  0.5931050000000  0.5320280000000  0.5299420000000 1.0
C      1  0.4269480000000  0.4680420000000  0.5217860000000 1.0
C      1  0.5296720000000  0.5990160000000  0.5305650000000 1.0
C      1  0.5243970000000  0.4061320000000  0.4693440000000 1.0
C      1  0.4665000000000  0.5980070000000  0.4521940000000 1.0
C      1  0.5337120000000  0.4724750000000  0.5957280000000 1.0
C      1  0.4009540000000  0.5311410000000  0.5332980000000 1.0
C      1  0.4684560000000  0.4016060000000  0.4515410000000 1.0
C      1  0.4535650000000  0.5280170000000  0.6026120000000 1.0
C      1  0.4655230000000  0.4713310000000  0.3997460000000 1.0
C      1  0.5485340000000  0.5279610000000  0.4099690000000 1.0
C      1  0.5888870000000  0.4575150000000  0.5205130000000 1.0
C      1  0.6020260000000  0.5439540000000  0.4722580000000 1.0
C      1  0.4100840000000  0.4560230000000  0.4682970000000 1.0
C      1  0.5248700000000  0.5917440000000  0.4565620000000 1.0
C      1  0.5252530000000  0.4067970000000  0.5388570000000 1.0
C      1  0.4722280000000  0.5900870000000  0.5390810000000 1.0
C      1  0.4729650000000  0.4770630000000  0.5241950000000 1.0
C      1  0.4729080000000  0.5280050000000  0.4777860000000 1.0
C      1  0.5216680000000  0.5218860000000  0.4830650000000 1.0
C      1  0.5176920000000  0.4846500000000  0.5219650000000 1.0
C      1  0.5215640000000  0.5284290000000  0.5289710000000 1.0
C      1  0.5228600000000  0.4762780000000  0.4693330000000 1.0
C      1  0.4798010000000  0.4828850000000  0.4777770000000 1.0
C      1  0.4777230000000  0.5237790000000  0.5220740000000 1.0
C      1  0.4998720000000  0.5029160000000  0.5006020000000 1.0
END
