TITL C-3577089-586-482 -9.51572263601166e-07 125000 -578.877800036138 0 0 93 (C3) n - 1
REM
REM in /home/bkarasulu/work/CARBON/AIRSS/Generating-Clusters/EDIP-Nigel-Params/with-SteepDescent/Higher-Symm/SD-CG/HFTN-CG
REM
REM
REM
REM
REM
REM ./C.cell (12c818d87b63d06a65506943cc24bca4)
REM
REM compiler GCC version 9.2.1 20190827 (Red Hat 9.2.1-1)
REM options -cpp -mtune=generic -march=x86-64 -g -O0 -fpre-include=/usr/include/finclude/math-vector-fortran.h
REM seed -1322371934 -990006679 409911164 -935181380 758941920 -959931885 -2056929329 -665530899 -1046161071 -111367823 186353332 1612742733 -985112428 -1321017575 951892114 -743048094 1179915756 1178522413 -1004749162 -1127032081 -75296766 1238707518 926597536 -1951366448 -685332780 -1327579592 -1664288604 1103134707 -482809829 1032851276 -1485878884 -1409461018 442223760
REM
CELL 1.54180   50.00000   50.00000   50.00000   90.00000   90.00000   90.00000
LATT -1
SFAC C  
C      1  0.5225100000000  0.5176520000000  0.4293140000000 1.0
C      1  0.4735150000000  0.5098740000000  0.4291770000000 1.0
C      1  0.5047470000000  0.4713330000000  0.4294990000000 1.0
C      1  0.4502780000000  0.4603420000000  0.4659500000000 1.0
C      1  0.5592320000000  0.4763870000000  0.4662610000000 1.0
C      1  0.4908610000000  0.5627200000000  0.4655470000000 1.0
C      1  0.4501660000000  0.4931370000000  0.4315820000000 1.0
C      1  0.5309150000000  0.4595080000000  0.4320570000000 1.0
C      1  0.5196650000000  0.5462530000000  0.4315490000000 1.0
C      1  0.4730220000000  0.4701990000000  0.5111380000000 1.0
C      1  0.5392880000000  0.4916630000000  0.5112640000000 1.0
C      1  0.4875680000000  0.5383180000000  0.5108250000000 1.0
C      1  0.4333990000000  0.4422660000000  0.5039790000000 1.0
C      1  0.5832960000000  0.4712340000000  0.5043690000000 1.0
C      1  0.4832630000000  0.5865630000000  0.5033840000000 1.0
C      1  0.5113740000000  0.4249630000000  0.5289200000000 1.0
C      1  0.5592750000000  0.5476890000000  0.5284340000000 1.0
C      1  0.4290400000000  0.5278070000000  0.5280670000000 1.0
C      1  0.4651020000000  0.4309150000000  0.5434940000000 1.0
C      1  0.5772430000000  0.5048070000000  0.5435050000000 1.0
C      1  0.4571820000000  0.5649760000000  0.5427440000000 1.0
C      1  0.4657810000000  0.4191310000000  0.4723660000000 1.0
C      1  0.5871660000000  0.5104880000000  0.4723160000000 1.0
C      1  0.4473580000000  0.5699300000000  0.4714870000000 1.0
C      1  0.5352360000000  0.5032440000000  0.4834780000000 1.0
C      1  0.4795860000000  0.5287060000000  0.4831380000000 1.0
C      1  0.4853590000000  0.4677810000000  0.4834870000000 1.0
C      1  0.5648520000000  0.5227390000000  0.4569800000000 1.0
C      1  0.4479170000000  0.5443090000000  0.4564380000000 1.0
C      1  0.4877020000000  0.4322560000000  0.4571860000000 1.0
C      1  0.5209240000000  0.5015740000000  0.5346560000000 1.0
C      1  0.4881470000000  0.5177220000000  0.5344500000000 1.0
C      1  0.4905510000000  0.4812620000000  0.5346550000000 1.0
C      1  0.5485030000000  0.5080170000000  0.4367140000000 1.0
C      1  0.4688570000000  0.5372840000000  0.4362660000000 1.0
C      1  0.4833330000000  0.4536750000000  0.4367690000000 1.0
C      1  0.4915380000000  0.5557100000000  0.4368750000000 1.0
C      1  0.4560340000000  0.4641100000000  0.4372380000000 1.0
C      1  0.5531140000000  0.4791650000000  0.4375110000000 1.0
C      1  0.5216360000000  0.5056640000000  0.5848950000000 1.0
C      1  0.4842100000000  0.5168580000000  0.5846980000000 1.0
C      1  0.4932270000000  0.4788480000000  0.5849360000000 1.0
C      1  0.4530370000000  0.4965940000000  0.5610650000000 1.0
C      1  0.5263820000000  0.4617190000000  0.5615190000000 1.0
C      1  0.5199130000000  0.5426750000000  0.5610600000000 1.0
C      1  0.4744590000000  0.4764550000000  0.5610740000000 1.0
C      1  0.5331120000000  0.4903390000000  0.5612130000000 1.0
C      1  0.4917620000000  0.5341920000000  0.5608260000000 1.0
C      1  0.5132680000000  0.4532420000000  0.4872750000000 1.0
C      1  0.5338710000000  0.5347240000000  0.4869110000000 1.0
C      1  0.4530030000000  0.5118240000000  0.4867400000000 1.0
C      1  0.5134660000000  0.4192710000000  0.4612330000000 1.0
C      1  0.5632120000000  0.5515870000000  0.4607020000000 1.0
C      1  0.4237500000000  0.5285080000000  0.4603190000000 1.0
C      1  0.5868000000000  0.4810960000000  0.4751900000000 1.0
C      1  0.4729930000000  0.5843390000000  0.4742190000000 1.0
C      1  0.4404830000000  0.4341570000000  0.4749090000000 1.0
C      1  0.5615150000000  0.4496260000000  0.5018720000000 1.0
C      1  0.5128680000000  0.5784770000000  0.5010020000000 1.0
C      1  0.4256020000000  0.4719200000000  0.5012570000000 1.0
C      1  0.5346740000000  0.5580010000000  0.4553830000000 1.0
C      1  0.4324680000000  0.5005270000000  0.4553200000000 1.0
C      1  0.5333440000000  0.4407540000000  0.4560090000000 1.0
C      1  0.5581980000000  0.4470160000000  0.4722240000000 1.0
C      1  0.5168100000000  0.5765760000000  0.4713760000000 1.0
C      1  0.4253010000000  0.4759510000000  0.4715840000000 1.0
C      1  0.4621290000000  0.4508880000000  0.5617500000000 1.0
C      1  0.5614180000000  0.4924520000000  0.5618880000000 1.0
C      1  0.4757800000000  0.5576550000000  0.5612250000000 1.0
C      1  0.4760460000000  0.4199500000000  0.4992420000000 1.0
C      1  0.5813030000000  0.5192700000000  0.4990910000000 1.0
C      1  0.4426630000000  0.5607620000000  0.4983620000000 1.0
C      1  0.5055120000000  0.4236640000000  0.4988420000000 1.0
C      1  0.5633550000000  0.5429250000000  0.4984110000000 1.0
C      1  0.4311500000000  0.5333860000000  0.4979810000000 1.0
C      1  0.4818710000000  0.4907570000000  0.4614680000000 1.0
C      1  0.5171000000000  0.4884890000000  0.4616080000000 1.0
C      1  0.5014500000000  0.5201320000000  0.4613810000000 1.0
C      1  0.4895630000000  0.4173200000000  0.5448920000000 1.0
C      1  0.5767860000000  0.5328020000000  0.5445880000000 1.0
C      1  0.4331650000000  0.5505960000000  0.5439690000000 1.0
C      1  0.5312920000000  0.5444240000000  0.5342720000000 1.0
C      1  0.4458540000000  0.5052730000000  0.5341720000000 1.0
C      1  0.5224780000000  0.4508580000000  0.5347440000000 1.0
C      1  0.5330450000000  0.5320520000000  0.5833700000000 1.0
C      1  0.4556540000000  0.5135280000000  0.5831870000000 1.0
C      1  0.5103900000000  0.4557680000000  0.5836980000000 1.0
C      1  0.4494970000000  0.4893100000000  0.5090230000000 1.0
C      1  0.5345010000000  0.4617110000000  0.5094810000000 1.0
C      1  0.5159020000000  0.5491270000000  0.5089430000000 1.0
C      1  0.4676990000000  0.5630890000000  0.5150550000000 1.0
C      1  0.4615000000000  0.4406550000000  0.5156910000000 1.0
C      1  0.5706310000000  0.4965060000000  0.5157880000000 1.0
END
