TITL C-3578196-9646-766 -6.93174245949337e-08 125000 -141.710346083702 0 0 24 (Cs) n - 1
REM
REM in /home/bkarasulu/work/CARBON/AIRSS/Generating-Clusters/EDIP-Nigel-Params/with-SteepDescent/Higher-Symm/SD-CG/HFTN-CG
REM
REM
REM
REM
REM
REM ./C.cell (12c818d87b63d06a65506943cc24bca4)
REM
REM compiler GCC version 9.2.1 20190827 (Red Hat 9.2.1-1)
REM options -cpp -mtune=generic -march=x86-64 -g -O0 -fpre-include=/usr/include/finclude/math-vector-fortran.h
REM seed 211571594 -158717844 -1029056422 303396628 -980634968 -797420375 -471389927 1481278936 -1360246137 2033760730 -1083322114 -1613935403 -1759096048 -1627141095 2081302973 -1431075776 2034342888 1254523861 -1466459201 -901295243 1813881273 -1214501501 1082594846 -1198049494 1365457915 -2080516988 -1263574772 -1200055823 20622537 550454643 -796805030 -851723454 -829238475
REM
CELL 1.54180   50.00000   50.00000   50.00000   90.00000   90.00000   90.00000
LATT -1
SFAC C  
C      1  0.4501600000000  0.4977420000000  0.4724160000000 1.0
C      1  0.4501290000000  0.4976230000000  0.5275180000000 1.0
C      1  0.5633740000000  0.4802900000000  0.5134320000000 1.0
C      1  0.5633890000000  0.4803480000000  0.4865540000000 1.0
C      1  0.5312000000000  0.4809480000000  0.4510700000000 1.0
C      1  0.5311450000000  0.4807380000000  0.5488820000000 1.0
C      1  0.4683310000000  0.4799470000000  0.5144200000000 1.0
C      1  0.4683480000000  0.4800100000000  0.4854580000000 1.0
C      1  0.4873290000000  0.5363530000000  0.5145350000000 1.0
C      1  0.4873450000000  0.5364150000000  0.4856080000000 1.0
C      1  0.4563540000000  0.5157750000000  0.4522480000000 1.0
C      1  0.4563010000000  0.5155690000000  0.5477710000000 1.0
C      1  0.5114490000000  0.5308950000000  0.5276080000000 1.0
C      1  0.5114800000000  0.5310140000000  0.4725390000000 1.0
C      1  0.5076060000000  0.4681610000000  0.5464150000000 1.0
C      1  0.5076580000000  0.4683620000000  0.4534560000000 1.0
C      1  0.4867180000000  0.4662610000000  0.5299270000000 1.0
C      1  0.4867520000000  0.4663900000000  0.4699130000000 1.0
C      1  0.5301130000000  0.5147030000000  0.5145340000000 1.0
C      1  0.5301290000000  0.5147650000000  0.4855640000000 1.0
C      1  0.4623770000000  0.5344150000000  0.5283690000000 1.0
C      1  0.4624090000000  0.5345370000000  0.4717380000000 1.0
C      1  0.5449690000000  0.4944310000000  0.4711500000000 1.0
C      1  0.5449360000000  0.4943070000000  0.5288760000000 1.0
END
