TITL C-3578200-9634-362 -1.30612023874202e-06 125000 -777.879523193655 0 0 125 (C1) n - 1
REM
REM in /home/bkarasulu/work/CARBON/AIRSS/Generating-Clusters/EDIP-Nigel-Params/with-SteepDescent/Higher-Symm/SD-CG/HFTN-CG
REM
REM
REM
REM
REM
REM ./C.cell (12c818d87b63d06a65506943cc24bca4)
REM
REM compiler GCC version 9.2.1 20190827 (Red Hat 9.2.1-1)
REM options -cpp -mtune=generic -march=x86-64 -g -O0 -fpre-include=/usr/include/finclude/math-vector-fortran.h
REM seed -1013671957 -1536661269 -1142420142 497912791 228308375 799713853 1172770048 -1733213111 -881318238 1399743111 2031478875 -816240738 751688442 -587132830 -2115869740 -1748710429 878287375 -1466939535 -1051520240 1680174721 -1741324925 1046524174 -1029688378 -2079593155 1611485556 1397864593 -1484205726 779078062 1289933781 -948824359 274143141 1763845900 -1137735374
REM
CELL 1.54180   50.00000   50.00000   50.00000   90.00000   90.00000   90.00000
LATT -1
SFAC C  
C      1  0.5363310000000  0.4801110000000  0.4997060000000 1.0
C      1  0.4864040000000  0.4969180000000  0.5517670000000 1.0
C      1  0.5003760000000  0.5539010000000  0.4793520000000 1.0
C      1  0.4638470000000  0.5275270000000  0.5044430000000 1.0
C      1  0.5219410000000  0.5332870000000  0.4972030000000 1.0
C      1  0.4731080000000  0.4841850000000  0.5070480000000 1.0
C      1  0.5216870000000  0.4948530000000  0.5259890000000 1.0
C      1  0.4850330000000  0.5109310000000  0.4559360000000 1.0
C      1  0.5103770000000  0.4934030000000  0.4565150000000 1.0
C      1  0.5009050000000  0.4494760000000  0.4840470000000 1.0
C      1  0.5081870000000  0.4585660000000  0.5288820000000 1.0
C      1  0.4957930000000  0.5379250000000  0.5388120000000 1.0
C      1  0.4843030000000  0.4579850000000  0.5101060000000 1.0
C      1  0.4604360000000  0.5125350000000  0.4753490000000 1.0
C      1  0.4998040000000  0.4649510000000  0.4585380000000 1.0
C      1  0.5236450000000  0.5681540000000  0.5144120000000 1.0
C      1  0.4775160000000  0.5566770000000  0.5000960000000 1.0
C      1  0.5295000000000  0.4521220000000  0.4910700000000 1.0
C      1  0.5360520000000  0.4985620000000  0.4754940000000 1.0
C      1  0.4658950000000  0.4998980000000  0.5311810000000 1.0
C      1  0.5479970000000  0.5081420000000  0.5318170000000 1.0
C      1  0.4933040000000  0.5384000000000  0.4560630000000 1.0
C      1  0.5074820000000  0.5436790000000  0.5662110000000 1.0
C      1  0.4984870000000  0.4700360000000  0.5547130000000 1.0
C      1  0.5668750000000  0.4390450000000  0.5108260000000 1.0
C      1  0.4514200000000  0.5197770000000  0.5828710000000 1.0
C      1  0.5287400000000  0.5723790000000  0.4267120000000 1.0
C      1  0.4267170000000  0.5564760000000  0.4990720000000 1.0
C      1  0.5688790000000  0.5658320000000  0.4898250000000 1.0
C      1  0.4382310000000  0.4480100000000  0.4873880000000 1.0
C      1  0.5642960000000  0.4794650000000  0.5751860000000 1.0
C      1  0.4310940000000  0.4823240000000  0.4396800000000 1.0
C      1  0.5710650000000  0.5154160000000  0.4362870000000 1.0
C      1  0.4792460000000  0.4287490000000  0.4432760000000 1.0
C      1  0.5137610000000  0.4131420000000  0.5735850000000 1.0
C      1  0.4721960000000  0.5857400000000  0.5546260000000 1.0
C      1  0.4699000000000  0.4129880000000  0.5224430000000 1.0
C      1  0.4114250000000  0.5235130000000  0.4657440000000 1.0
C      1  0.5112120000000  0.4713950000000  0.4141060000000 1.0
C      1  0.5210420000000  0.5975980000000  0.5099390000000 1.0
C      1  0.4691140000000  0.5872130000000  0.4697190000000 1.0
C      1  0.5376540000000  0.4169990000000  0.4607400000000 1.0
C      1  0.5849320000000  0.4764530000000  0.4657870000000 1.0
C      1  0.4246460000000  0.4760860000000  0.5261460000000 1.0
C      1  0.5843070000000  0.5297830000000  0.5401820000000 1.0
C      1  0.4858890000000  0.5305000000000  0.4132490000000 1.0
C      1  0.5246130000000  0.4998430000000  0.5881020000000 1.0
C      1  0.4723150000000  0.4536450000000  0.5903320000000 1.0
C      1  0.4966340000000  0.4205820000000  0.4768020000000 1.0
C      1  0.4513940000000  0.4849880000000  0.4872290000000 1.0
C      1  0.4732880000000  0.5059500000000  0.4267980000000 1.0
C      1  0.4995410000000  0.5832360000000  0.4667200000000 1.0
C      1  0.4952200000000  0.5632450000000  0.5240640000000 1.0
C      1  0.5095170000000  0.4289520000000  0.5329250000000 1.0
C      1  0.5517470000000  0.5230830000000  0.5035510000000 1.0
C      1  0.4332970000000  0.5290250000000  0.5129150000000 1.0
C      1  0.5688430000000  0.4827860000000  0.5051570000000 1.0
C      1  0.5232120000000  0.4966850000000  0.4256680000000 1.0
C      1  0.4782990000000  0.5041230000000  0.5794380000000 1.0
C      1  0.5171960000000  0.4716900000000  0.5793740000000 1.0
C      1  0.5153020000000  0.5235110000000  0.4120660000000 1.0
C      1  0.5297410000000  0.4079270000000  0.4878380000000 1.0
C      1  0.4264460000000  0.4962710000000  0.5022550000000 1.0
C      1  0.4822140000000  0.4774670000000  0.4157130000000 1.0
C      1  0.5014610000000  0.4552870000000  0.5998060000000 1.0
C      1  0.5036380000000  0.5201910000000  0.5854400000000 1.0
C      1  0.4610280000000  0.5916350000000  0.4965010000000 1.0
C      1  0.5235030000000  0.5972070000000  0.4813020000000 1.0
C      1  0.4734100000000  0.4094250000000  0.4939060000000 1.0
C      1  0.5890470000000  0.5005710000000  0.5331230000000 1.0
C      1  0.4054900000000  0.4988570000000  0.4801260000000 1.0
C      1  0.5835440000000  0.5004840000000  0.4830630000000 1.0
C      1  0.4542730000000  0.5658550000000  0.4550080000000 1.0
C      1  0.5549530000000  0.4794340000000  0.4565480000000 1.0
C      1  0.4773720000000  0.4487380000000  0.5610580000000 1.0
C      1  0.5471900000000  0.4453500000000  0.4684830000000 1.0
C      1  0.4626950000000  0.4413360000000  0.5263570000000 1.0
C      1  0.5452790000000  0.5625060000000  0.5338030000000 1.0
C      1  0.4395960000000  0.5247060000000  0.4558600000000 1.0
C      1  0.5559620000000  0.5250940000000  0.5576590000000 1.0
C      1  0.4435050000000  0.4861110000000  0.5482700000000 1.0
C      1  0.5378250000000  0.5492260000000  0.5593790000000 1.0
C      1  0.4808090000000  0.5546910000000  0.4349570000000 1.0
C      1  0.5162650000000  0.4523120000000  0.4375660000000 1.0
C      1  0.5469650000000  0.5806970000000  0.4738560000000 1.0
C      1  0.5761080000000  0.4783810000000  0.5481380000000 1.0
C      1  0.4802140000000  0.5653410000000  0.5752790000000 1.0
C      1  0.4493010000000  0.4199810000000  0.4810770000000 1.0
C      1  0.5463470000000  0.4169770000000  0.5119710000000 1.0
C      1  0.4413450000000  0.5784260000000  0.5122500000000 1.0
C      1  0.4318980000000  0.5094750000000  0.5621840000000 1.0
C      1  0.5720810000000  0.5215240000000  0.4658670000000 1.0
C      1  0.4089460000000  0.4776440000000  0.4590920000000 1.0
C      1  0.5185930000000  0.4307290000000  0.5958610000000 1.0
C      1  0.4691700000000  0.4541770000000  0.4284720000000 1.0
C      1  0.5341150000000  0.5442290000000  0.4212850000000 1.0
C      1  0.5665160000000  0.5478590000000  0.5173450000000 1.0
C      1  0.5526550000000  0.5059020000000  0.5811410000000 1.0
C      1  0.4929050000000  0.5915130000000  0.5357820000000 1.0
C      1  0.4342070000000  0.4492970000000  0.5171080000000 1.0
C      1  0.5749440000000  0.4505290000000  0.4834570000000 1.0
C      1  0.4271980000000  0.5585130000000  0.4689220000000 1.0
C      1  0.4572070000000  0.4799170000000  0.5838570000000 1.0
C      1  0.5532780000000  0.4922140000000  0.4292520000000 1.0
C      1  0.4432490000000  0.5078210000000  0.4315630000000 1.0
C      1  0.4909250000000  0.4210490000000  0.5545210000000 1.0
C      1  0.5171500000000  0.4225010000000  0.4398360000000 1.0
C      1  0.5014210000000  0.5780770000000  0.4365720000000 1.0
C      1  0.4519620000000  0.4174320000000  0.4523530000000 1.0
C      1  0.4141530000000  0.4495570000000  0.4689540000000 1.0
C      1  0.4404980000000  0.4571780000000  0.4290000000000 1.0
C      1  0.5517310000000  0.5815740000000  0.4447420000000 1.0
C      1  0.4498090000000  0.5737090000000  0.5398130000000 1.0
C      1  0.5348900000000  0.4175420000000  0.5430660000000 1.0
C      1  0.5811130000000  0.5498120000000  0.4679020000000 1.0
C      1  0.4269850000000  0.5314270000000  0.5433120000000 1.0
C      1  0.5694100000000  0.4521440000000  0.5369330000000 1.0
C      1  0.5631920000000  0.5402440000000  0.4227060000000 1.0
C      1  0.4540710000000  0.5500600000000  0.5794990000000 1.0
C      1  0.5441930000000  0.4550550000000  0.5791510000000 1.0
C      1  0.5515730000000  0.4390590000000  0.5550150000000 1.0
C      1  0.4359420000000  0.5557440000000  0.5567900000000 1.0
C      1  0.5743120000000  0.5621920000000  0.4406270000000 1.0
C      1  0.4284170000000  0.4353120000000  0.4448420000000 1.0
C      1  0.5049090000000  0.5181270000000  0.5175040000000 1.0
END
