TITL C-3578198-8939-387 -4.41509500563498e-08 125000 -1058.81965283362 0 0 171 (C1) n - 1
REM
REM in /home/bkarasulu/work/CARBON/AIRSS/Generating-Clusters/EDIP-Nigel-Params/with-SteepDescent/Higher-Symm/SD-CG/HFTN-CG
REM
REM
REM
REM
REM
REM ./C.cell (12c818d87b63d06a65506943cc24bca4)
REM
REM compiler GCC version 9.2.1 20190827 (Red Hat 9.2.1-1)
REM options -cpp -mtune=generic -march=x86-64 -g -O0 -fpre-include=/usr/include/finclude/math-vector-fortran.h
REM seed 631495178 -1759043944 1063031866 1584015776 1846950472 -735061694 648833401 -1747372427 1819018449 -384450203 1761878703 -1406165498 -1608494863 852301390 -870474546 1898549853 -1693413627 356917459 -1213251446 -761237279 -638044938 1171045268 573827893 -525350058 -379732923 1890044932 1507394869 -687624720 -1176701910 -1964937384 146877964 -1338755871 -1569821258
REM
CELL 1.54180   50.00000   50.00000   50.00000   90.00000   90.00000   90.00000
LATT -1
SFAC C  
C      1  0.5140650000000  0.5076540000000  0.3946820000000 1.0
C      1  0.4812970000000  0.4775120000000  0.4050170000000 1.0
C      1  0.5233870000000  0.5140640000000  0.5812690000000 1.0
C      1  0.4859960000000  0.4814010000000  0.5805230000000 1.0
C      1  0.5204510000000  0.4794740000000  0.4037830000000 1.0
C      1  0.4835310000000  0.5078130000000  0.4011350000000 1.0
C      1  0.5170020000000  0.4815670000000  0.5837960000000 1.0
C      1  0.4845660000000  0.5132240000000  0.5814460000000 1.0
C      1  0.4073480000000  0.5565410000000  0.5336540000000 1.0
C      1  0.5861810000000  0.4444560000000  0.5327580000000 1.0
C      1  0.4167390000000  0.5546150000000  0.4777070000000 1.0
C      1  0.5882410000000  0.4452390000000  0.4738780000000 1.0
C      1  0.4145340000000  0.4457100000000  0.5290740000000 1.0
C      1  0.5928950000000  0.5540610000000  0.5304010000000 1.0
C      1  0.4122270000000  0.4427300000000  0.4706250000000 1.0
C      1  0.5833960000000  0.5533330000000  0.4771500000000 1.0
C      1  0.5650140000000  0.5195730000000  0.5709830000000 1.0
C      1  0.4379680000000  0.4867770000000  0.5667000000000 1.0
C      1  0.5675910000000  0.5152110000000  0.4283840000000 1.0
C      1  0.4301490000000  0.4829950000000  0.4270100000000 1.0
C      1  0.5642930000000  0.4881060000000  0.5736860000000 1.0
C      1  0.4359720000000  0.5184290000000  0.5706000000000 1.0
C      1  0.5685090000000  0.4831720000000  0.4285350000000 1.0
C      1  0.4320330000000  0.5151810000000  0.4259670000000 1.0
C      1  0.4738450000000  0.5299910000000  0.5349500000000 1.0
C      1  0.5272880000000  0.4939000000000  0.5328800000000 1.0
C      1  0.4705990000000  0.5334540000000  0.4582000000000 1.0
C      1  0.5242250000000  0.4856070000000  0.4555700000000 1.0
C      1  0.4728200000000  0.4876480000000  0.5237550000000 1.0
C      1  0.5280470000000  0.5239500000000  0.5332510000000 1.0
C      1  0.4724230000000  0.4798920000000  0.4521270000000 1.0
C      1  0.5251500000000  0.5162370000000  0.4537240000000 1.0
C      1  0.4327750000000  0.5650350000000  0.5228190000000 1.0
C      1  0.5629780000000  0.4333620000000  0.5171200000000 1.0
C      1  0.4381510000000  0.5680050000000  0.4948120000000 1.0
C      1  0.5636620000000  0.4340240000000  0.4874400000000 1.0
C      1  0.4372470000000  0.4329200000000  0.5142370000000 1.0
C      1  0.5663110000000  0.5620510000000  0.5208010000000 1.0
C      1  0.4372970000000  0.4333130000000  0.4845910000000 1.0
C      1  0.5608110000000  0.5659030000000  0.4930760000000 1.0
C      1  0.5266400000000  0.5906180000000  0.5169510000000 1.0
C      1  0.4671740000000  0.4226190000000  0.5153720000000 1.0
C      1  0.5353750000000  0.5830140000000  0.4915030000000 1.0
C      1  0.4677010000000  0.4230350000000  0.4838410000000 1.0
C      1  0.5340250000000  0.4223710000000  0.5180400000000 1.0
C      1  0.4743960000000  0.5905270000000  0.5175310000000 1.0
C      1  0.5324940000000  0.4236120000000  0.4865890000000 1.0
C      1  0.4644530000000  0.5836790000000  0.4921440000000 1.0
C      1  0.3985050000000  0.5273870000000  0.5256830000000 1.0
C      1  0.5970690000000  0.4738400000000  0.5267010000000 1.0
C      1  0.4063120000000  0.5237650000000  0.4813590000000 1.0
C      1  0.5949860000000  0.4756770000000  0.4784810000000 1.0
C      1  0.4024940000000  0.4748880000000  0.5223380000000 1.0
C      1  0.6008650000000  0.5244770000000  0.5240300000000 1.0
C      1  0.4015940000000  0.4730610000000  0.4787330000000 1.0
C      1  0.5947560000000  0.5237720000000  0.4821140000000 1.0
C      1  0.4449620000000  0.5138700000000  0.6005070000000 1.0
C      1  0.5562920000000  0.4853020000000  0.6043160000000 1.0
C      1  0.4387460000000  0.5082370000000  0.3924910000000 1.0
C      1  0.5621070000000  0.4787980000000  0.3921840000000 1.0
C      1  0.4456090000000  0.4845890000000  0.6034160000000 1.0
C      1  0.5577030000000  0.5142580000000  0.6090250000000 1.0
C      1  0.4394440000000  0.4777700000000  0.3915010000000 1.0
C      1  0.5620740000000  0.5091490000000  0.3940190000000 1.0
C      1  0.4449020000000  0.4744130000000  0.4518570000000 1.0
C      1  0.5529600000000  0.5232870000000  0.4540350000000 1.0
C      1  0.4486720000000  0.4805060000000  0.5377900000000 1.0
C      1  0.5566210000000  0.5305380000000  0.5388120000000 1.0
C      1  0.4455050000000  0.5219410000000  0.4537500000000 1.0
C      1  0.5515110000000  0.4732090000000  0.4528470000000 1.0
C      1  0.4447580000000  0.5330680000000  0.5402310000000 1.0
C      1  0.5488480000000  0.4784100000000  0.5471620000000 1.0
C      1  0.4118310000000  0.4715450000000  0.5688570000000 1.0
C      1  0.5930990000000  0.5298010000000  0.5715200000000 1.0
C      1  0.4038780000000  0.4700510000000  0.4308330000000 1.0
C      1  0.5921670000000  0.5312040000000  0.4342740000000 1.0
C      1  0.4078790000000  0.5287620000000  0.5723970000000 1.0
C      1  0.5902720000000  0.4722420000000  0.5726000000000 1.0
C      1  0.4076040000000  0.5319270000000  0.4331470000000 1.0
C      1  0.5951330000000  0.4705640000000  0.4323040000000 1.0
C      1  0.4856010000000  0.5415150000000  0.5109400000000 1.0
C      1  0.5169070000000  0.4759850000000  0.5106790000000 1.0
C      1  0.4819270000000  0.5241350000000  0.4847640000000 1.0
C      1  0.5096730000000  0.4804170000000  0.4817280000000 1.0
C      1  0.4926600000000  0.4674900000000  0.5249910000000 1.0
C      1  0.5164170000000  0.5377530000000  0.5088450000000 1.0
C      1  0.4815380000000  0.4776560000000  0.4784090000000 1.0
C      1  0.5128370000000  0.5244730000000  0.4806330000000 1.0
C      1  0.4429540000000  0.4318450000000  0.5654330000000 1.0
C      1  0.5593440000000  0.5668640000000  0.5636420000000 1.0
C      1  0.4436200000000  0.4346930000000  0.4339240000000 1.0
C      1  0.5565920000000  0.5708160000000  0.4422030000000 1.0
C      1  0.4417600000000  0.5675160000000  0.5659290000000 1.0
C      1  0.5574160000000  0.4329100000000  0.5703850000000 1.0
C      1  0.4419530000000  0.5742390000000  0.4414480000000 1.0
C      1  0.5581610000000  0.4350130000000  0.4372720000000 1.0
C      1  0.4717330000000  0.5244920000000  0.6059170000000 1.0
C      1  0.5295510000000  0.4726930000000  0.6094530000000 1.0
C      1  0.4632440000000  0.5212110000000  0.3844260000000 1.0
C      1  0.5374550000000  0.4642210000000  0.3853540000000 1.0
C      1  0.4709620000000  0.4717410000000  0.6040440000000 1.0
C      1  0.5329250000000  0.5270580000000  0.6061750000000 1.0
C      1  0.4645730000000  0.4633370000000  0.3858210000000 1.0
C      1  0.5382370000000  0.5222450000000  0.3844600000000 1.0
C      1  0.5118850000000  0.5276530000000  0.4283470000000 1.0
C      1  0.4853950000000  0.4642040000000  0.4323980000000 1.0
C      1  0.5164810000000  0.5331570000000  0.5584270000000 1.0
C      1  0.4970460000000  0.4570470000000  0.5524080000000 1.0
C      1  0.5158580000000  0.4678130000000  0.4326860000000 1.0
C      1  0.4823820000000  0.5323750000000  0.4309510000000 1.0
C      1  0.5269380000000  0.4608870000000  0.5622140000000 1.0
C      1  0.4873960000000  0.5357050000000  0.5599180000000 1.0
C      1  0.5276840000000  0.4447890000000  0.6117490000000 1.0
C      1  0.4743060000000  0.5522040000000  0.6085640000000 1.0
C      1  0.5318630000000  0.4369320000000  0.3889210000000 1.0
C      1  0.4712620000000  0.5499040000000  0.4080580000000 1.0
C      1  0.5300870000000  0.5546090000000  0.6087900000000 1.0
C      1  0.4719200000000  0.4444110000000  0.6095440000000 1.0
C      1  0.5259720000000  0.5472330000000  0.4101230000000 1.0
C      1  0.4711840000000  0.4359770000000  0.3880980000000 1.0
C      1  0.5848560000000  0.4438400000000  0.4442170000000 1.0
C      1  0.4195020000000  0.5576970000000  0.4484670000000 1.0
C      1  0.5821450000000  0.4445460000000  0.5621610000000 1.0
C      1  0.4147080000000  0.5569820000000  0.5624940000000 1.0
C      1  0.5811150000000  0.5572160000000  0.4482730000000 1.0
C      1  0.4161110000000  0.4425070000000  0.4410520000000 1.0
C      1  0.5864010000000  0.5567740000000  0.5596860000000 1.0
C      1  0.4182620000000  0.4438170000000  0.5582910000000 1.0
C      1  0.5160390000000  0.4293640000000  0.4110500000000 1.0
C      1  0.4841000000000  0.5744500000000  0.4191340000000 1.0
C      1  0.5146430000000  0.4299880000000  0.5917100000000 1.0
C      1  0.4867800000000  0.5681760000000  0.5894620000000 1.0
C      1  0.5142210000000  0.5714180000000  0.4211610000000 1.0
C      1  0.4864630000000  0.4253770000000  0.4094740000000 1.0
C      1  0.5160850000000  0.5664980000000  0.5877270000000 1.0
C      1  0.4860060000000  0.4331940000000  0.5882370000000 1.0
C      1  0.5314180000000  0.5743070000000  0.5641550000000 1.0
C      1  0.4702930000000  0.4254150000000  0.5653920000000 1.0
C      1  0.5295830000000  0.5793920000000  0.4443180000000 1.0
C      1  0.4737760000000  0.4347280000000  0.4348590000000 1.0
C      1  0.5312730000000  0.4208500000000  0.5692270000000 1.0
C      1  0.4713680000000  0.5710370000000  0.5642720000000 1.0
C      1  0.5302110000000  0.4280540000000  0.4369630000000 1.0
C      1  0.4692170000000  0.5825320000000  0.4432820000000 1.0
C      1  0.3903780000000  0.4851690000000  0.4531660000000 1.0
C      1  0.6080420000000  0.5162800000000  0.4552410000000 1.0
C      1  0.3928350000000  0.4844460000000  0.5499810000000 1.0
C      1  0.6097420000000  0.5145740000000  0.5515610000000 1.0
C      1  0.3932190000000  0.5160750000000  0.4545700000000 1.0
C      1  0.6092760000000  0.4857020000000  0.4538530000000 1.0
C      1  0.3905670000000  0.5147450000000  0.5520380000000 1.0
C      1  0.6087710000000  0.4843770000000  0.5525900000000 1.0
C      1  0.5651620000000  0.5130440000000  0.4804660000000 1.0
C      1  0.4319230000000  0.4813810000000  0.4785140000000 1.0
C      1  0.5719970000000  0.5134660000000  0.5182600000000 1.0
C      1  0.4294960000000  0.4894530000000  0.5167640000000 1.0
C      1  0.5664560000000  0.4839010000000  0.4767490000000 1.0
C      1  0.4349050000000  0.5113540000000  0.4793240000000 1.0
C      1  0.5699760000000  0.4850750000000  0.5255820000000 1.0
C      1  0.4266210000000  0.5187510000000  0.5208280000000 1.0
C      1  0.4861610000000  0.5862330000000  0.5425580000000 1.0
C      1  0.5164510000000  0.4228290000000  0.5423930000000 1.0
C      1  0.4839360000000  0.5846070000000  0.4690430000000 1.0
C      1  0.5156660000000  0.4231870000000  0.4620910000000 1.0
C      1  0.4846730000000  0.4198330000000  0.5403290000000 1.0
C      1  0.5153150000000  0.5844130000000  0.5415950000000 1.0
C      1  0.4859320000000  0.4230930000000  0.4604620000000 1.0
C      1  0.5152270000000  0.5840560000000  0.4692980000000 1.0
C      1  0.3901540000000  0.5027480000000  0.5014200000000 1.0
C      1  0.6069270000000  0.4915720000000  0.5024120000000 1.0
C      1  0.4680820000000  0.4972310000000  0.4952880000000 1.0
END
