TITL C-3578200-9634-756 2.87615629868814e-06 125000 -1193.7724027903 0 0 188 (C1) n - 1
REM
REM in /home/bkarasulu/work/CARBON/AIRSS/Generating-Clusters/EDIP-Nigel-Params/with-SteepDescent/Higher-Symm/SD-CG/HFTN-CG
REM
REM
REM
REM
REM
REM ./C.cell (12c818d87b63d06a65506943cc24bca4)
REM
REM compiler GCC version 9.2.1 20190827 (Red Hat 9.2.1-1)
REM options -cpp -mtune=generic -march=x86-64 -g -O0 -fpre-include=/usr/include/finclude/math-vector-fortran.h
REM seed 745685669 2064760454 2072183874 -521068085 729192221 -1147725102 -1424310749 2094102747 1368164868 -376205470 667569737 911291186 1741853767 1026530148 320038221 -291305729 207211832 831140642 -1750189952 915151737 -1581473389 1688755872 -1839992517 -710422474 617271289 1391992200 1857857950 1239735945 -2091178142 -1233831890 1790170886 1145270818 562465433
REM
CELL 1.54180   50.00000   50.00000   50.00000   90.00000   90.00000   90.00000
LATT -1
SFAC C  
C      1  0.5602920000000  0.5543890000000  0.4864400000000 1.0
C      1  0.4411300000000  0.4446320000000  0.4933080000000 1.0
C      1  0.5601760000000  0.4436540000000  0.4936540000000 1.0
C      1  0.4387630000000  0.5548990000000  0.4865840000000 1.0
C      1  0.5337530000000  0.5358030000000  0.4059810000000 1.0
C      1  0.4679890000000  0.4677900000000  0.4103990000000 1.0
C      1  0.5317340000000  0.4678020000000  0.4107390000000 1.0
C      1  0.4658560000000  0.5358430000000  0.4060680000000 1.0
C      1  0.4326020000000  0.5258140000000  0.4799480000000 1.0
C      1  0.5672810000000  0.4726100000000  0.4819260000000 1.0
C      1  0.4352680000000  0.4740550000000  0.4815010000000 1.0
C      1  0.5663220000000  0.5249970000000  0.4791840000000 1.0
C      1  0.4823590000000  0.5148570000000  0.4897270000000 1.0
C      1  0.5138180000000  0.4834700000000  0.4906610000000 1.0
C      1  0.4847160000000  0.4852940000000  0.4871650000000 1.0
C      1  0.5213890000000  0.5123730000000  0.4901440000000 1.0
C      1  0.4849950000000  0.4176170000000  0.5122180000000 1.0
C      1  0.5150610000000  0.5856430000000  0.5127980000000 1.0
C      1  0.4848560000000  0.5853760000000  0.5126110000000 1.0
C      1  0.5157580000000  0.4176820000000  0.5124630000000 1.0
C      1  0.4189200000000  0.5349210000000  0.4317940000000 1.0
C      1  0.5817960000000  0.4645790000000  0.4328550000000 1.0
C      1  0.4182720000000  0.4648650000000  0.4329720000000 1.0
C      1  0.5807160000000  0.5347220000000  0.4314830000000 1.0
C      1  0.4322730000000  0.5973320000000  0.5126370000000 1.0
C      1  0.5683840000000  0.4008370000000  0.5127080000000 1.0
C      1  0.4323310000000  0.4017610000000  0.5122830000000 1.0
C      1  0.5675180000000  0.5969430000000  0.5126810000000 1.0
C      1  0.5914250000000  0.4412500000000  0.5553790000000 1.0
C      1  0.4039780000000  0.5575500000000  0.5544530000000 1.0
C      1  0.5951410000000  0.5568080000000  0.5539620000000 1.0
C      1  0.4088610000000  0.4418700000000  0.5548550000000 1.0
C      1  0.4039180000000  0.5164380000000  0.4793900000000 1.0
C      1  0.5964130000000  0.4811600000000  0.4791880000000 1.0
C      1  0.4058230000000  0.4828420000000  0.4798860000000 1.0
C      1  0.5954290000000  0.5150330000000  0.4798770000000 1.0
C      1  0.5157860000000  0.5563890000000  0.4197350000000 1.0
C      1  0.4842450000000  0.4440670000000  0.4206180000000 1.0
C      1  0.5160080000000  0.4441820000000  0.4212840000000 1.0
C      1  0.4834660000000  0.5569320000000  0.4193090000000 1.0
C      1  0.4171240000000  0.5747240000000  0.4953210000000 1.0
C      1  0.5824250000000  0.4239450000000  0.4960020000000 1.0
C      1  0.4186640000000  0.4250720000000  0.4956040000000 1.0
C      1  0.5821720000000  0.5741430000000  0.4950740000000 1.0
C      1  0.4852480000000  0.5312850000000  0.5174410000000 1.0
C      1  0.5140510000000  0.4710480000000  0.5193730000000 1.0
C      1  0.4873280000000  0.4679270000000  0.5273100000000 1.0
C      1  0.5122100000000  0.5362790000000  0.5251890000000 1.0
C      1  0.5994180000000  0.4847230000000  0.4478340000000 1.0
C      1  0.3998920000000  0.5143980000000  0.4411790000000 1.0
C      1  0.5994510000000  0.5143430000000  0.4414380000000 1.0
C      1  0.4008700000000  0.4848720000000  0.4485060000000 1.0
C      1  0.5946700000000  0.5140880000000  0.5287710000000 1.0
C      1  0.4052190000000  0.4842880000000  0.5293660000000 1.0
C      1  0.5958630000000  0.4835440000000  0.5296500000000 1.0
C      1  0.4041310000000  0.5147890000000  0.5290520000000 1.0
C      1  0.4799410000000  0.4906830000000  0.5966520000000 1.0
C      1  0.5269130000000  0.5190140000000  0.5931300000000 1.0
C      1  0.4724800000000  0.5198590000000  0.5926720000000 1.0
C      1  0.5188220000000  0.4896330000000  0.5946110000000 1.0
C      1  0.4718580000000  0.4180470000000  0.4291400000000 1.0
C      1  0.5280850000000  0.5817820000000  0.4299050000000 1.0
C      1  0.4709970000000  0.5825380000000  0.4293740000000 1.0
C      1  0.5287900000000  0.4178700000000  0.4290260000000 1.0
C      1  0.4545810000000  0.4421990000000  0.5740860000000 1.0
C      1  0.5522870000000  0.5588070000000  0.5762820000000 1.0
C      1  0.4475030000000  0.5593980000000  0.5758700000000 1.0
C      1  0.5457620000000  0.4415160000000  0.5741960000000 1.0
C      1  0.4050370000000  0.5275610000000  0.5562580000000 1.0
C      1  0.5923780000000  0.4707180000000  0.5570160000000 1.0
C      1  0.4081570000000  0.4712910000000  0.5563960000000 1.0
C      1  0.5935070000000  0.5269420000000  0.5554910000000 1.0
C      1  0.4621500000000  0.6066810000000  0.5070270000000 1.0
C      1  0.5388180000000  0.3932400000000  0.5049980000000 1.0
C      1  0.4619120000000  0.3941650000000  0.5046810000000 1.0
C      1  0.5377940000000  0.6066580000000  0.5073350000000 1.0
C      1  0.3940920000000  0.4696890000000  0.5053340000000 1.0
C      1  0.6064420000000  0.5280790000000  0.5049160000000 1.0
C      1  0.3922180000000  0.5289260000000  0.5048190000000 1.0
C      1  0.6076820000000  0.4685410000000  0.5056640000000 1.0
C      1  0.4717780000000  0.4864430000000  0.5446240000000 1.0
C      1  0.5281720000000  0.5193360000000  0.5432500000000 1.0
C      1  0.4716810000000  0.5183460000000  0.5420330000000 1.0
C      1  0.5277280000000  0.4872420000000  0.5419090000000 1.0
C      1  0.4414580000000  0.5259700000000  0.5322200000000 1.0
C      1  0.5572470000000  0.4769690000000  0.5321510000000 1.0
C      1  0.4437230000000  0.4771940000000  0.5313660000000 1.0
C      1  0.5571330000000  0.5251310000000  0.5306290000000 1.0
C      1  0.5565980000000  0.5539500000000  0.5253200000000 1.0
C      1  0.4467230000000  0.4480960000000  0.5249790000000 1.0
C      1  0.5536550000000  0.4480280000000  0.5251620000000 1.0
C      1  0.4427510000000  0.5545240000000  0.5256400000000 1.0
C      1  0.4442390000000  0.5313630000000  0.5877370000000 1.0
C      1  0.5500980000000  0.4686340000000  0.5867820000000 1.0
C      1  0.4494480000000  0.4690180000000  0.5868850000000 1.0
C      1  0.5555260000000  0.5305000000000  0.5877870000000 1.0
C      1  0.5607960000000  0.4040170000000  0.5415870000000 1.0
C      1  0.4371820000000  0.5957680000000  0.5418230000000 1.0
C      1  0.5627830000000  0.5953000000000  0.5419540000000 1.0
C      1  0.4394640000000  0.4044650000000  0.5412370000000 1.0
C      1  0.3933980000000  0.5588420000000  0.5077120000000 1.0
C      1  0.6058330000000  0.4388470000000  0.5092060000000 1.0
C      1  0.3953510000000  0.4400150000000  0.5086330000000 1.0
C      1  0.6056750000000  0.5580030000000  0.5074420000000 1.0
C      1  0.4494770000000  0.5147400000000  0.4558420000000 1.0
C      1  0.5506270000000  0.4825750000000  0.4570700000000 1.0
C      1  0.4501810000000  0.4838200000000  0.4556960000000 1.0
C      1  0.5503650000000  0.5135310000000  0.4551110000000 1.0
C      1  0.4234960000000  0.5611020000000  0.4454230000000 1.0
C      1  0.5742730000000  0.4397720000000  0.4470070000000 1.0
C      1  0.4266040000000  0.4403100000000  0.4469170000000 1.0
C      1  0.5757100000000  0.5606240000000  0.4453280000000 1.0
C      1  0.4286530000000  0.4848300000000  0.5723790000000 1.0
C      1  0.5718680000000  0.5137690000000  0.5705940000000 1.0
C      1  0.4267650000000  0.5143600000000  0.5717170000000 1.0
C      1  0.5716430000000  0.4843520000000  0.5730340000000 1.0
C      1  0.5142530000000  0.4890740000000  0.4014100000000 1.0
C      1  0.4806430000000  0.5161370000000  0.3913580000000 1.0
C      1  0.5191090000000  0.5160720000000  0.3912750000000 1.0
C      1  0.4854710000000  0.4889940000000  0.4010320000000 1.0
C      1  0.4424200000000  0.4176880000000  0.4328670000000 1.0
C      1  0.5575070000000  0.5826650000000  0.4337580000000 1.0
C      1  0.4415340000000  0.5832260000000  0.4336820000000 1.0
C      1  0.5582880000000  0.4173800000000  0.4329560000000 1.0
C      1  0.5368550000000  0.5975550000000  0.4728300000000 1.0
C      1  0.4622710000000  0.4005750000000  0.4714480000000 1.0
C      1  0.5384160000000  0.3994550000000  0.4711160000000 1.0
C      1  0.4623790000000  0.5982440000000  0.4726020000000 1.0
C      1  0.5871150000000  0.5827980000000  0.4663610000000 1.0
C      1  0.4144250000000  0.4192440000000  0.4667010000000 1.0
C      1  0.5863380000000  0.4183610000000  0.4668130000000 1.0
C      1  0.4121540000000  0.5834180000000  0.4665240000000 1.0
C      1  0.6122180000000  0.5655230000000  0.5335920000000 1.0
C      1  0.3910810000000  0.4326730000000  0.5353020000000 1.0
C      1  0.6093670000000  0.4318950000000  0.5360710000000 1.0
C      1  0.3870560000000  0.5662050000000  0.5339490000000 1.0
C      1  0.4661500000000  0.3933670000000  0.5435800000000 1.0
C      1  0.5353580000000  0.6048270000000  0.5462930000000 1.0
C      1  0.4648460000000  0.6049440000000  0.5459260000000 1.0
C      1  0.5339610000000  0.3930310000000  0.5437340000000 1.0
C      1  0.4846640000000  0.5975990000000  0.4509530000000 1.0
C      1  0.5153750000000  0.4023850000000  0.4503810000000 1.0
C      1  0.4854160000000  0.4031120000000  0.4507900000000 1.0
C      1  0.5144290000000  0.5970110000000  0.4513110000000 1.0
C      1  0.5162510000000  0.4456810000000  0.4603160000000 1.0
C      1  0.4839570000000  0.5515910000000  0.4577080000000 1.0
C      1  0.5158310000000  0.5500680000000  0.4580050000000 1.0
C      1  0.4844600000000  0.4468140000000  0.4595450000000 1.0
C      1  0.4715880000000  0.5582170000000  0.5152250000000 1.0
C      1  0.5255870000000  0.4441080000000  0.5215770000000 1.0
C      1  0.4747070000000  0.4433080000000  0.5225110000000 1.0
C      1  0.5277640000000  0.5587620000000  0.5156820000000 1.0
C      1  0.4427010000000  0.5243170000000  0.4194170000000 1.0
C      1  0.5582700000000  0.4759370000000  0.4198140000000 1.0
C      1  0.4412080000000  0.4762570000000  0.4189400000000 1.0
C      1  0.5570910000000  0.5240540000000  0.4188800000000 1.0
C      1  0.4412490000000  0.5146180000000  0.5051020000000 1.0
C      1  0.5593100000000  0.4878740000000  0.5052330000000 1.0
C      1  0.4496050000000  0.4884910000000  0.5037990000000 1.0
C      1  0.5504510000000  0.5138470000000  0.5021470000000 1.0
C      1  0.4754440000000  0.5621500000000  0.5705120000000 1.0
C      1  0.5192510000000  0.4307190000000  0.5749810000000 1.0
C      1  0.4810160000000  0.4310110000000  0.5753040000000 1.0
C      1  0.5241320000000  0.5626320000000  0.5723180000000 1.0
C      1  0.4850430000000  0.5862880000000  0.5568600000000 1.0
C      1  0.5145030000000  0.4060240000000  0.5605880000000 1.0
C      1  0.4853520000000  0.4059170000000  0.5610560000000 1.0
C      1  0.5150370000000  0.5862210000000  0.5571270000000 1.0
C      1  0.4354620000000  0.6018870000000  0.4573810000000 1.0
C      1  0.5653410000000  0.3977410000000  0.4563490000000 1.0
C      1  0.4353490000000  0.3983470000000  0.4566130000000 1.0
C      1  0.5636850000000  0.6013320000000  0.4574340000000 1.0
C      1  0.5341130000000  0.4294810000000  0.4806370000000 1.0
C      1  0.4658130000000  0.5675750000000  0.4777300000000 1.0
C      1  0.5333330000000  0.5667740000000  0.4778300000000 1.0
C      1  0.4668140000000  0.4308210000000  0.4806040000000 1.0
C      1  0.4775760000000  0.4753400000000  0.4611400000000 1.0
C      1  0.5231990000000  0.5217740000000  0.4620760000000 1.0
C      1  0.4761140000000  0.5243000000000  0.4627480000000 1.0
C      1  0.5241720000000  0.4728500000000  0.4651810000000 1.0
C      1  0.5671900000000  0.5669540000000  0.5511000000000 1.0
C      1  0.4370900000000  0.4332270000000  0.5503220000000 1.0
C      1  0.5631500000000  0.4327960000000  0.5504160000000 1.0
C      1  0.4321080000000  0.5676140000000  0.5512640000000 1.0
C      1  0.5150530000000  0.5335500000000  0.5696280000000 1.0
C      1  0.4847880000000  0.4742090000000  0.5709680000000 1.0
C      1  0.5164580000000  0.4736350000000  0.5677410000000 1.0
C      1  0.4844190000000  0.5332520000000  0.5685270000000 1.0
END
