TITL C-3577076-40-521 -1.322220881461e-06 125000 -1098.3397147461 0 0 171 (C1) n - 1
REM
REM in /home/bkarasulu/work/CARBON/AIRSS/Generating-Clusters/EDIP-Nigel-Params/with-SteepDescent/Higher-Symm/SD-CG/HFTN-CG
REM
REM
REM
REM
REM
REM ./C.cell (12c818d87b63d06a65506943cc24bca4)
REM
REM compiler GCC version 9.2.1 20190827 (Red Hat 9.2.1-1)
REM options -cpp -mtune=generic -march=x86-64 -g -O0 -fpre-include=/usr/include/finclude/math-vector-fortran.h
REM seed 142635788 107709068 1864472301 -190778886 736115067 -1220069052 -1564687949 -1940644397 -1512881556 1150933348 -42006667 -829825809 -1335837357 -2011573355 238004082 -2071285053 2065461146 1550317698 -1638599390 1813373191 813957006 1360380941 -490690842 -1957945345 906718346 -1684604700 1040128435 1187119784 1082969037 1315011593 1559706759 -1003444911 1775074647
REM
CELL 1.54180   50.00000   50.00000   50.00000   90.00000   90.00000   90.00000
LATT -1
SFAC C  
C      1  0.4272860000000  0.5523800000000  0.4404600000000 1.0
C      1  0.4343450000000  0.4391020000000  0.5559020000000 1.0
C      1  0.5715200000000  0.5512460000000  0.4311230000000 1.0
C      1  0.5634630000000  0.4424910000000  0.5530340000000 1.0
C      1  0.4214330000000  0.5512080000000  0.5594390000000 1.0
C      1  0.4270380000000  0.4406550000000  0.4424230000000 1.0
C      1  0.5805760000000  0.5519720000000  0.5615140000000 1.0
C      1  0.5664040000000  0.4409160000000  0.4477070000000 1.0
C      1  0.5454430000000  0.5602190000000  0.5236380000000 1.0
C      1  0.5553420000000  0.4368690000000  0.4736890000000 1.0
C      1  0.4573680000000  0.5589370000000  0.5211580000000 1.0
C      1  0.4275940000000  0.4354070000000  0.4713750000000 1.0
C      1  0.5488580000000  0.5627420000000  0.4746160000000 1.0
C      1  0.5540620000000  0.4390540000000  0.5243030000000 1.0
C      1  0.4520780000000  0.5588430000000  0.4693970000000 1.0
C      1  0.4348650000000  0.4376090000000  0.5266180000000 1.0
C      1  0.5546890000000  0.4820050000000  0.5839110000000 1.0
C      1  0.5559480000000  0.5096320000000  0.4151260000000 1.0
C      1  0.4442180000000  0.4808010000000  0.5835190000000 1.0
C      1  0.4437800000000  0.5116430000000  0.4158840000000 1.0
C      1  0.5558680000000  0.4800220000000  0.4169860000000 1.0
C      1  0.5554760000000  0.5119430000000  0.5843080000000 1.0
C      1  0.4434200000000  0.4817410000000  0.4159150000000 1.0
C      1  0.4443310000000  0.5106930000000  0.5814830000000 1.0
C      1  0.4104330000000  0.5455530000000  0.5318570000000 1.0
C      1  0.3950460000000  0.4733870000000  0.4746980000000 1.0
C      1  0.5923370000000  0.5466570000000  0.5336190000000 1.0
C      1  0.6047690000000  0.4762400000000  0.4756820000000 1.0
C      1  0.4034150000000  0.5454760000000  0.4769270000000 1.0
C      1  0.4001670000000  0.4736660000000  0.5251380000000 1.0
C      1  0.5970410000000  0.5472020000000  0.4770570000000 1.0
C      1  0.6016140000000  0.4746240000000  0.5258750000000 1.0
C      1  0.4854290000000  0.5514130000000  0.4183910000000 1.0
C      1  0.4870270000000  0.4366070000000  0.5917100000000 1.0
C      1  0.5148730000000  0.5518200000000  0.4192850000000 1.0
C      1  0.5174850000000  0.4388810000000  0.5912840000000 1.0
C      1  0.4849780000000  0.5557920000000  0.5838840000000 1.0
C      1  0.4832960000000  0.4414630000000  0.4134740000000 1.0
C      1  0.5156720000000  0.5553570000000  0.5845270000000 1.0
C      1  0.5127310000000  0.4405140000000  0.4141210000000 1.0
C      1  0.3794640000000  0.4563770000000  0.5139230000000 1.0
C      1  0.3904190000000  0.5617750000000  0.4954000000000 1.0
C      1  0.6204760000000  0.4555490000000  0.5145090000000 1.0
C      1  0.6105710000000  0.5625350000000  0.4959870000000 1.0
C      1  0.3758050000000  0.4547530000000  0.4867280000000 1.0
C      1  0.3958260000000  0.5679930000000  0.5208900000000 1.0
C      1  0.6206350000000  0.4545110000000  0.4871220000000 1.0
C      1  0.6072820000000  0.5685700000000  0.5219780000000 1.0
C      1  0.5309510000000  0.4199110000000  0.5730410000000 1.0
C      1  0.5265520000000  0.5719850000000  0.4369580000000 1.0
C      1  0.4750420000000  0.4180170000000  0.5726800000000 1.0
C      1  0.4706040000000  0.5721330000000  0.4314300000000 1.0
C      1  0.5247420000000  0.4195520000000  0.4297370000000 1.0
C      1  0.5310800000000  0.5745540000000  0.5690800000000 1.0
C      1  0.4679630000000  0.4194500000000  0.4243330000000 1.0
C      1  0.4707330000000  0.5746180000000  0.5668040000000 1.0
C      1  0.4779180000000  0.4722110000000  0.5279470000000 1.0
C      1  0.4732030000000  0.5186230000000  0.4678690000000 1.0
C      1  0.5241700000000  0.4768730000000  0.5319820000000 1.0
C      1  0.5265950000000  0.5217970000000  0.4679730000000 1.0
C      1  0.4728690000000  0.4693120000000  0.4661610000000 1.0
C      1  0.4786040000000  0.5183980000000  0.5267300000000 1.0
C      1  0.5293050000000  0.4722120000000  0.4681630000000 1.0
C      1  0.5241000000000  0.5213060000000  0.5279900000000 1.0
C      1  0.5524530000000  0.4235550000000  0.4312420000000 1.0
C      1  0.5583520000000  0.5689110000000  0.5650840000000 1.0
C      1  0.4405020000000  0.4233740000000  0.4253900000000 1.0
C      1  0.4438340000000  0.5680410000000  0.5622430000000 1.0
C      1  0.5586560000000  0.4231400000000  0.5723330000000 1.0
C      1  0.5538260000000  0.5673140000000  0.4456010000000 1.0
C      1  0.4474920000000  0.4199930000000  0.5711750000000 1.0
C      1  0.4433380000000  0.5710650000000  0.4289530000000 1.0
C      1  0.4843330000000  0.5106160000000  0.4413310000000 1.0
C      1  0.4848430000000  0.4730100000000  0.5583450000000 1.0
C      1  0.5156570000000  0.5115410000000  0.4415670000000 1.0
C      1  0.5130540000000  0.4760830000000  0.5599890000000 1.0
C      1  0.4858300000000  0.5208230000000  0.5565780000000 1.0
C      1  0.4847270000000  0.4793610000000  0.4405430000000 1.0
C      1  0.5144060000000  0.5202460000000  0.5573250000000 1.0
C      1  0.5162340000000  0.4795780000000  0.4413810000000 1.0
C      1  0.5703470000000  0.4707540000000  0.4415410000000 1.0
C      1  0.5792950000000  0.5244400000000  0.5723220000000 1.0
C      1  0.4282880000000  0.4708950000000  0.4395090000000 1.0
C      1  0.4204450000000  0.5245690000000  0.5725590000000 1.0
C      1  0.5681910000000  0.4718750000000  0.5594920000000 1.0
C      1  0.5768140000000  0.5240830000000  0.4285980000000 1.0
C      1  0.4249940000000  0.4646500000000  0.5681700000000 1.0
C      1  0.4236850000000  0.5250110000000  0.4322740000000 1.0
C      1  0.5143700000000  0.5142730000000  0.6089920000000 1.0
C      1  0.5155600000000  0.4818530000000  0.3897520000000 1.0
C      1  0.4834850000000  0.5140430000000  0.6081930000000 1.0
C      1  0.4843450000000  0.4821380000000  0.3891510000000 1.0
C      1  0.5155650000000  0.5128780000000  0.3902940000000 1.0
C      1  0.5146190000000  0.4831730000000  0.6102230000000 1.0
C      1  0.4845730000000  0.5128850000000  0.3900210000000 1.0
C      1  0.4837190000000  0.4828040000000  0.6094150000000 1.0
C      1  0.4234480000000  0.4624800000000  0.4841840000000 1.0
C      1  0.4359960000000  0.5383070000000  0.5146870000000 1.0
C      1  0.5767280000000  0.4733170000000  0.4862440000000 1.0
C      1  0.5666400000000  0.5401040000000  0.5164890000000 1.0
C      1  0.4274260000000  0.4639030000000  0.5145330000000 1.0
C      1  0.4323500000000  0.5377450000000  0.4838530000000 1.0
C      1  0.5735340000000  0.4676400000000  0.5143910000000 1.0
C      1  0.5685650000000  0.5402800000000  0.4852290000000 1.0
C      1  0.3885450000000  0.5217360000000  0.4674820000000 1.0
C      1  0.3964270000000  0.5005930000000  0.5141110000000 1.0
C      1  0.6114740000000  0.5233260000000  0.4666320000000 1.0
C      1  0.6072460000000  0.5018430000000  0.5150250000000 1.0
C      1  0.3928810000000  0.5212490000000  0.5338910000000 1.0
C      1  0.3890200000000  0.4996070000000  0.4867770000000 1.0
C      1  0.6096460000000  0.5218510000000  0.5357410000000 1.0
C      1  0.6150690000000  0.5018330000000  0.4869490000000 1.0
C      1  0.4455430000000  0.5105670000000  0.4729950000000 1.0
C      1  0.4502600000000  0.4825910000000  0.5206390000000 1.0
C      1  0.5542890000000  0.5148430000000  0.4724000000000 1.0
C      1  0.5539650000000  0.4857080000000  0.5322910000000 1.0
C      1  0.4498300000000  0.5116870000000  0.5231970000000 1.0
C      1  0.4440370000000  0.4797080000000  0.4674300000000 1.0
C      1  0.5528130000000  0.5149930000000  0.5259410000000 1.0
C      1  0.5567650000000  0.4841590000000  0.4675380000000 1.0
C      1  0.4879260000000  0.4453200000000  0.5139160000000 1.0
C      1  0.4806610000000  0.5451810000000  0.4784190000000 1.0
C      1  0.5237580000000  0.4489740000000  0.5194390000000 1.0
C      1  0.5191660000000  0.5486810000000  0.4795180000000 1.0
C      1  0.4887860000000  0.4510410000000  0.4836600000000 1.0
C      1  0.4828140000000  0.5454530000000  0.5107830000000 1.0
C      1  0.5202220000000  0.4487820000000  0.4857970000000 1.0
C      1  0.5182360000000  0.5489240000000  0.5126610000000 1.0
C      1  0.4869100000000  0.5915910000000  0.5490830000000 1.0
C      1  0.4794770000000  0.4052470000000  0.4466770000000 1.0
C      1  0.5157870000000  0.5926680000000  0.5519320000000 1.0
C      1  0.5078800000000  0.4083860000000  0.4515670000000 1.0
C      1  0.4827110000000  0.5912520000000  0.4490460000000 1.0
C      1  0.4888670000000  0.4163010000000  0.5474320000000 1.0
C      1  0.5094820000000  0.5853610000000  0.4568870000000 1.0
C      1  0.5171160000000  0.4156300000000  0.5478160000000 1.0
C      1  0.4526770000000  0.4197180000000  0.5109180000000 1.0
C      1  0.4521900000000  0.5865670000000  0.4809070000000 1.0
C      1  0.5516160000000  0.4106660000000  0.5132290000000 1.0
C      1  0.5477410000000  0.5900610000000  0.4871950000000 1.0
C      1  0.4466070000000  0.4166560000000  0.4828810000000 1.0
C      1  0.4558100000000  0.5866390000000  0.5102120000000 1.0
C      1  0.5457400000000  0.4124140000000  0.4843700000000 1.0
C      1  0.5505740000000  0.5889930000000  0.5167800000000 1.0
C      1  0.4713600000000  0.5263080000000  0.5835520000000 1.0
C      1  0.4719270000000  0.4698480000000  0.4134280000000 1.0
C      1  0.5276010000000  0.5263500000000  0.5847560000000 1.0
C      1  0.5272560000000  0.4684210000000  0.4141570000000 1.0
C      1  0.4725370000000  0.5235400000000  0.4151830000000 1.0
C      1  0.4718470000000  0.4679500000000  0.5857920000000 1.0
C      1  0.5279770000000  0.5235830000000  0.4152590000000 1.0
C      1  0.5266600000000  0.4695370000000  0.5863840000000 1.0
C      1  0.4612600000000  0.3988890000000  0.4669190000000 1.0
C      1  0.4796020000000  0.6013950000000  0.5218140000000 1.0
C      1  0.5180520000000  0.4053340000000  0.4789840000000 1.0
C      1  0.5274170000000  0.6048190000000  0.5276410000000 1.0
C      1  0.4791480000000  0.4078120000000  0.5208750000000 1.0
C      1  0.4660510000000  0.6061540000000  0.4661460000000 1.0
C      1  0.5265960000000  0.4001360000000  0.5250650000000 1.0
C      1  0.5203590000000  0.5991230000000  0.4805080000000 1.0
C      1  0.6015370000000  0.5082130000000  0.5609060000000 1.0
C      1  0.5991980000000  0.4803790000000  0.4452550000000 1.0
C      1  0.3994780000000  0.5081030000000  0.5594420000000 1.0
C      1  0.4001850000000  0.4807700000000  0.4443600000000 1.0
C      1  0.5994170000000  0.5102800000000  0.4421410000000 1.0
C      1  0.5973030000000  0.4788830000000  0.5560140000000 1.0
C      1  0.3996090000000  0.5105230000000  0.4420170000000 1.0
C      1  0.4028860000000  0.4786560000000  0.5546460000000 1.0
C      1  0.5062760000000  0.6053550000000  0.5065550000000 1.0
C      1  0.5047130000000  0.3977700000000  0.5046490000000 1.0
C      1  0.4986870000000  0.4949450000000  0.5152200000000 1.0
END
