TITL C-3578209-2550-404 -2.58791354073578e-06 125000 -751.148625360117 0 0 120 (C1) n - 1
REM
REM in /home/bkarasulu/work/CARBON/AIRSS/Generating-Clusters/EDIP-Nigel-Params/with-SteepDescent/Higher-Symm/SD-CG/HFTN-CG
REM
REM
REM
REM
REM
REM ./C.cell (12c818d87b63d06a65506943cc24bca4)
REM
REM compiler GCC version 9.2.1 20190827 (Red Hat 9.2.1-1)
REM options -cpp -mtune=generic -march=x86-64 -g -O0 -fpre-include=/usr/include/finclude/math-vector-fortran.h
REM seed 1192953026 605265259 1699129891 1049679916 1537470160 -2048818419 662853247 -1799514561 -1858951086 -240233176 -738900481 -149808456 947001425 -378043566 1514683540 1647083365 -1366215870 -1925590764 1080889188 -1266852585 1592678037 -26021788 -812506065 -1564775119 -2136264608 1663432418 -1087615754 1806007459 -70786436 1237094989 1337640185 802895048 -1296425536
REM
CELL 1.54180   50.00000   50.00000   50.00000   90.00000   90.00000   90.00000
LATT -1
SFAC C  
C      1  0.4717490000000  0.5218850000000  0.5079230000000 1.0
C      1  0.4820190000000  0.5345590000000  0.4727840000000 1.0
C      1  0.4686050000000  0.5081470000000  0.4662640000000 1.0
C      1  0.4753380000000  0.4850420000000  0.4791220000000 1.0
C      1  0.4754830000000  0.4705430000000  0.5016300000000 1.0
C      1  0.4848320000000  0.4783830000000  0.5266950000000 1.0
C      1  0.4847530000000  0.5073590000000  0.5282280000000 1.0
C      1  0.4015200000000  0.4827170000000  0.4717340000000 1.0
C      1  0.4015730000000  0.4685920000000  0.4979670000000 1.0
C      1  0.3922950000000  0.4858090000000  0.5183030000000 1.0
C      1  0.4023710000000  0.5097070000000  0.5289800000000 1.0
C      1  0.3957770000000  0.5320480000000  0.5135010000000 1.0
C      1  0.4028830000000  0.5325460000000  0.4864960000000 1.0
C      1  0.3933740000000  0.5095930000000  0.4735450000000 1.0
C      1  0.4997860000000  0.4261610000000  0.5151210000000 1.0
C      1  0.4946400000000  0.4673620000000  0.5874770000000 1.0
C      1  0.4888860000000  0.5366830000000  0.5709010000000 1.0
C      1  0.4959950000000  0.5630900000000  0.5218480000000 1.0
C      1  0.4963520000000  0.5717020000000  0.4347950000000 1.0
C      1  0.4883000000000  0.4943080000000  0.4213440000000 1.0
C      1  0.4968250000000  0.4538470000000  0.4558010000000 1.0
C      1  0.4323600000000  0.4633580000000  0.5007500000000 1.0
C      1  0.4404300000000  0.4786250000000  0.5266670000000 1.0
C      1  0.4320140000000  0.5078380000000  0.5333040000000 1.0
C      1  0.4449320000000  0.5305140000000  0.5138610000000 1.0
C      1  0.4327320000000  0.5347770000000  0.4835480000000 1.0
C      1  0.4408330000000  0.5105980000000  0.4631780000000 1.0
C      1  0.4315370000000  0.4810950000000  0.4680870000000 1.0
C      1  0.5132710000000  0.4395910000000  0.5389590000000 1.0
C      1  0.5098480000000  0.4925610000000  0.5852590000000 1.0
C      1  0.5043790000000  0.5431710000000  0.5461700000000 1.0
C      1  0.5081180000000  0.5479910000000  0.4963010000000 1.0
C      1  0.5085350000000  0.5451050000000  0.4294830000000 1.0
C      1  0.5062670000000  0.4817750000000  0.4430500000000 1.0
C      1  0.5091410000000  0.4478830000000  0.4850610000000 1.0
C      1  0.4677900000000  0.5340850000000  0.4020530000000 1.0
C      1  0.4764080000000  0.4522290000000  0.4135710000000 1.0
C      1  0.4872090000000  0.4072110000000  0.4750350000000 1.0
C      1  0.4740460000000  0.4301520000000  0.5691640000000 1.0
C      1  0.4686590000000  0.5122270000000  0.6020390000000 1.0
C      1  0.4804820000000  0.5795410000000  0.5622360000000 1.0
C      1  0.4856010000000  0.5917580000000  0.4770450000000 1.0
C      1  0.5493110000000  0.5564450000000  0.5364270000000 1.0
C      1  0.5496020000000  0.5583100000000  0.4727900000000 1.0
C      1  0.5504970000000  0.5191280000000  0.4289110000000 1.0
C      1  0.5514170000000  0.4614680000000  0.4430100000000 1.0
C      1  0.5536510000000  0.4350080000000  0.4947160000000 1.0
C      1  0.5586120000000  0.4527950000000  0.5502950000000 1.0
C      1  0.5535290000000  0.5116560000000  0.5765210000000 1.0
C      1  0.5404170000000  0.4624390000000  0.5730720000000 1.0
C      1  0.5363620000000  0.5379280000000  0.5825070000000 1.0
C      1  0.5390740000000  0.5783260000000  0.5178320000000 1.0
C      1  0.5447590000000  0.5681090000000  0.4449920000000 1.0
C      1  0.5359840000000  0.4995590000000  0.4104950000000 1.0
C      1  0.5383700000000  0.4349420000000  0.4471280000000 1.0
C      1  0.5468350000000  0.4154260000000  0.5163480000000 1.0
C      1  0.5607700000000  0.4788630000000  0.4671740000000 1.0
C      1  0.5520860000000  0.4654950000000  0.4994790000000 1.0
C      1  0.5653200000000  0.4739680000000  0.5288320000000 1.0
C      1  0.5540160000000  0.5034900000000  0.5459080000000 1.0
C      1  0.5599190000000  0.5290470000000  0.5293810000000 1.0
C      1  0.5540840000000  0.5295570000000  0.4801840000000 1.0
C      1  0.5480620000000  0.5083200000000  0.4581590000000 1.0
C      1  0.4390510000000  0.5164830000000  0.4340230000000 1.0
C      1  0.4419780000000  0.4616250000000  0.4465690000000 1.0
C      1  0.4517490000000  0.4338120000000  0.4967820000000 1.0
C      1  0.4504860000000  0.4617170000000  0.5488790000000 1.0
C      1  0.4416800000000  0.5138930000000  0.5624810000000 1.0
C      1  0.4473180000000  0.5579780000000  0.5295380000000 1.0
C      1  0.4469090000000  0.5606850000000  0.4710560000000 1.0
C      1  0.4562710000000  0.5634570000000  0.5580650000000 1.0
C      1  0.4633180000000  0.5786010000000  0.4878650000000 1.0
C      1  0.4508800000000  0.5417960000000  0.4246150000000 1.0
C      1  0.4520000000000  0.4692120000000  0.4189870000000 1.0
C      1  0.4639080000000  0.4231670000000  0.4720260000000 1.0
C      1  0.4576790000000  0.4337540000000  0.5457040000000 1.0
C      1  0.4537050000000  0.4954200000000  0.5831220000000 1.0
C      1  0.5858880000000  0.5257060000000  0.5164320000000 1.0
C      1  0.5827450000000  0.5265240000000  0.4875750000000 1.0
C      1  0.5974000000000  0.5080660000000  0.4723180000000 1.0
C      1  0.5903210000000  0.4812010000000  0.4715730000000 1.0
C      1  0.5982820000000  0.4685530000000  0.4952920000000 1.0
C      1  0.5940200000000  0.4766790000000  0.5217640000000 1.0
C      1  0.6004430000000  0.5034040000000  0.5255670000000 1.0
C      1  0.4685030000000  0.4242120000000  0.5193310000000 1.0
C      1  0.4642890000000  0.4672250000000  0.5767380000000 1.0
C      1  0.4581520000000  0.5379560000000  0.5749500000000 1.0
C      1  0.4676880000000  0.5736310000000  0.5162560000000 1.0
C      1  0.4621160000000  0.5593160000000  0.4453260000000 1.0
C      1  0.4575880000000  0.4993530000000  0.4150460000000 1.0
C      1  0.4672970000000  0.4434430000000  0.4504040000000 1.0
C      1  0.5297170000000  0.4731890000000  0.4249100000000 1.0
C      1  0.5313680000000  0.4291230000000  0.4758540000000 1.0
C      1  0.5414050000000  0.4302610000000  0.5413140000000 1.0
C      1  0.5400600000000  0.4882820000000  0.5888540000000 1.0
C      1  0.5291680000000  0.5566270000000  0.5582370000000 1.0
C      1  0.5286130000000  0.5700990000000  0.4898230000000 1.0
C      1  0.5384840000000  0.5467300000000  0.4248900000000 1.0
C      1  0.5130760000000  0.5876680000000  0.5296080000000 1.0
C      1  0.5196550000000  0.5860220000000  0.4463600000000 1.0
C      1  0.5069450000000  0.5064480000000  0.4016410000000 1.0
C      1  0.5107420000000  0.4348290000000  0.4360500000000 1.0
C      1  0.5192990000000  0.4023910000000  0.5094660000000 1.0
C      1  0.5156450000000  0.4475810000000  0.5827810000000 1.0
C      1  0.5076210000000  0.5360310000000  0.5940010000000 1.0
C      1  0.5088250000000  0.5854000000000  0.5590660000000 1.0
C      1  0.5135590000000  0.5914790000000  0.4744310000000 1.0
C      1  0.4969390000000  0.5341190000000  0.4037000000000 1.0
C      1  0.5059470000000  0.4489370000000  0.4106750000000 1.0
C      1  0.5148910000000  0.4034820000000  0.4803590000000 1.0
C      1  0.5021830000000  0.4298050000000  0.5647490000000 1.0
C      1  0.4979020000000  0.5110100000000  0.6057500000000 1.0
C      1  0.5055200000000  0.5299710000000  0.4556410000000 1.0
C      1  0.5183380000000  0.5040060000000  0.4611600000000 1.0
C      1  0.5225000000000  0.4715750000000  0.5010530000000 1.0
C      1  0.5130160000000  0.4703850000000  0.5310350000000 1.0
C      1  0.5236490000000  0.4953910000000  0.5486060000000 1.0
C      1  0.5113710000000  0.5175610000000  0.5326130000000 1.0
C      1  0.5247410000000  0.5229100000000  0.5043320000000 1.0
C      1  0.5160080000000  0.4986400000000  0.4896380000000 1.0
END
