TITL C-3578202-4305-53 -8.442565000255e-07 125000 -887.558202535929 0 0 140 (C1) n - 1
REM
REM in /home/bkarasulu/work/CARBON/AIRSS/Generating-Clusters/EDIP-Nigel-Params/with-SteepDescent/Higher-Symm/SD-CG/HFTN-CG
REM
REM
REM
REM
REM
REM ./C.cell (12c818d87b63d06a65506943cc24bca4)
REM
REM compiler GCC version 9.2.1 20190827 (Red Hat 9.2.1-1)
REM options -cpp -mtune=generic -march=x86-64 -g -O0 -fpre-include=/usr/include/finclude/math-vector-fortran.h
REM seed -460291084 1152982109 1966009071 -1092577127 792311888 -740789282 1983940849 1501366323 1469426733 -1529663294 537254218 -2056261466 492672121 437897404 -77311562 74776441 -879570248 1989056259 1484404656 -1768527059 -44618508 632242314 -361881478 1716028301 -711118885 556743834 165890761 -167255139 -1182769434 1808768250 461598203 590260463 -1190017154
REM
CELL 1.54180   50.00000   50.00000   50.00000   90.00000   90.00000   90.00000
LATT -1
SFAC C  
C      1  0.4908270000000  0.4415730000000  0.4858780000000 1.0
C      1  0.5076330000000  0.5602580000000  0.4892590000000 1.0
C      1  0.4921100000000  0.5603290000000  0.5158950000000 1.0
C      1  0.5067720000000  0.4433640000000  0.5126070000000 1.0
C      1  0.5691240000000  0.5369930000000  0.4128600000000 1.0
C      1  0.4297260000000  0.4696240000000  0.4164940000000 1.0
C      1  0.5720490000000  0.4739710000000  0.5894240000000 1.0
C      1  0.4269920000000  0.5284930000000  0.5893090000000 1.0
C      1  0.5204060000000  0.5593910000000  0.5586410000000 1.0
C      1  0.4822800000000  0.4394400000000  0.5640910000000 1.0
C      1  0.5210720000000  0.4396070000000  0.4362450000000 1.0
C      1  0.4832020000000  0.5590000000000  0.4370930000000 1.0
C      1  0.5304470000000  0.4070650000000  0.4863230000000 1.0
C      1  0.4721380000000  0.6005350000000  0.4897480000000 1.0
C      1  0.5274810000000  0.6009090000000  0.5143760000000 1.0
C      1  0.4754450000000  0.3997470000000  0.5108280000000 1.0
C      1  0.5015980000000  0.5122180000000  0.5167380000000 1.0
C      1  0.4882680000000  0.4878320000000  0.5240480000000 1.0
C      1  0.5069940000000  0.4872240000000  0.4768700000000 1.0
C      1  0.4947750000000  0.5118610000000  0.4861250000000 1.0
C      1  0.5710710000000  0.4378340000000  0.4388000000000 1.0
C      1  0.4325730000000  0.5538650000000  0.4394960000000 1.0
C      1  0.5710510000000  0.5575410000000  0.5568680000000 1.0
C      1  0.4320020000000  0.4454720000000  0.5600560000000 1.0
C      1  0.4228870000000  0.5699380000000  0.4870270000000 1.0
C      1  0.5785880000000  0.4274240000000  0.4857890000000 1.0
C      1  0.4217530000000  0.4288400000000  0.5139030000000 1.0
C      1  0.5828300000000  0.5684600000000  0.5119500000000 1.0
C      1  0.5289070000000  0.5751100000000  0.4435170000000 1.0
C      1  0.4743010000000  0.4242990000000  0.4384570000000 1.0
C      1  0.5287830000000  0.4257420000000  0.5599270000000 1.0
C      1  0.4750410000000  0.5778550000000  0.5632910000000 1.0
C      1  0.5691380000000  0.5102600000000  0.5751890000000 1.0
C      1  0.4286170000000  0.4916910000000  0.5766160000000 1.0
C      1  0.5755430000000  0.4833580000000  0.4208670000000 1.0
C      1  0.4291430000000  0.5074900000000  0.4250250000000 1.0
C      1  0.4585490000000  0.5535790000000  0.4512570000000 1.0
C      1  0.5451730000000  0.4452660000000  0.4532260000000 1.0
C      1  0.4581230000000  0.4427600000000  0.5494310000000 1.0
C      1  0.5454690000000  0.5572510000000  0.5403440000000 1.0
C      1  0.4529850000000  0.5286770000000  0.5737980000000 1.0
C      1  0.5480290000000  0.4721390000000  0.5701750000000 1.0
C      1  0.4578810000000  0.4742370000000  0.4193710000000 1.0
C      1  0.5510830000000  0.5255110000000  0.4325380000000 1.0
C      1  0.5898890000000  0.5506700000000  0.5346510000000 1.0
C      1  0.4132270000000  0.4470470000000  0.5373090000000 1.0
C      1  0.5886900000000  0.4429000000000  0.4625640000000 1.0
C      1  0.4164870000000  0.5503190000000  0.4642920000000 1.0
C      1  0.5713300000000  0.5388570000000  0.5775840000000 1.0
C      1  0.4279020000000  0.4633010000000  0.5811010000000 1.0
C      1  0.5763540000000  0.4555290000000  0.4177960000000 1.0
C      1  0.4275560000000  0.5353360000000  0.4192740000000 1.0
C      1  0.4115750000000  0.5599210000000  0.5123640000000 1.0
C      1  0.5888530000000  0.4370740000000  0.5101730000000 1.0
C      1  0.4120810000000  0.4391640000000  0.4884710000000 1.0
C      1  0.5870790000000  0.5554150000000  0.4862580000000 1.0
C      1  0.5032790000000  0.4176450000000  0.4442880000000 1.0
C      1  0.4997180000000  0.5822080000000  0.4468440000000 1.0
C      1  0.5039680000000  0.5838360000000  0.5559090000000 1.0
C      1  0.5001790000000  0.4174880000000  0.5545900000000 1.0
C      1  0.4999680000000  0.5373020000000  0.5611330000000 1.0
C      1  0.5005450000000  0.4629330000000  0.5635240000000 1.0
C      1  0.5050170000000  0.4619970000000  0.4281800000000 1.0
C      1  0.5008960000000  0.5366380000000  0.4295660000000 1.0
C      1  0.4025280000000  0.4654140000000  0.4821450000000 1.0
C      1  0.5937240000000  0.5280230000000  0.4804910000000 1.0
C      1  0.4024290000000  0.5331630000000  0.5185570000000 1.0
C      1  0.5915420000000  0.4635960000000  0.5182920000000 1.0
C      1  0.4656380000000  0.5088150000000  0.4799670000000 1.0
C      1  0.5358020000000  0.4904550000000  0.4788450000000 1.0
C      1  0.4601670000000  0.4920680000000  0.5276090000000 1.0
C      1  0.5290500000000  0.5104530000000  0.5271340000000 1.0
C      1  0.5531480000000  0.5383250000000  0.4926280000000 1.0
C      1  0.4445210000000  0.4603720000000  0.4912510000000 1.0
C      1  0.5479020000000  0.4768760000000  0.5041670000000 1.0
C      1  0.4448200000000  0.5401460000000  0.5124540000000 1.0
C      1  0.4604770000000  0.4345920000000  0.4872510000000 1.0
C      1  0.5387070000000  0.5643570000000  0.4916820000000 1.0
C      1  0.4613280000000  0.5652310000000  0.5146770000000 1.0
C      1  0.5385800000000  0.4465080000000  0.5052950000000 1.0
C      1  0.4585650000000  0.5863980000000  0.5377740000000 1.0
C      1  0.5439960000000  0.4224850000000  0.5343060000000 1.0
C      1  0.4596720000000  0.4137690000000  0.4633910000000 1.0
C      1  0.5426300000000  0.5850590000000  0.4686590000000 1.0
C      1  0.5156360000000  0.4887180000000  0.4228080000000 1.0
C      1  0.4941360000000  0.5089350000000  0.4235630000000 1.0
C      1  0.5100070000000  0.5111480000000  0.5740020000000 1.0
C      1  0.4898100000000  0.4898130000000  0.5755100000000 1.0
C      1  0.5886500000000  0.5098340000000  0.5024370000000 1.0
C      1  0.4016520000000  0.4850910000000  0.5035760000000 1.0
C      1  0.5795570000000  0.4814380000000  0.4981180000000 1.0
C      1  0.4020010000000  0.5131880000000  0.4973470000000 1.0
C      1  0.5379770000000  0.5208880000000  0.4745360000000 1.0
C      1  0.4609080000000  0.4799740000000  0.4744170000000 1.0
C      1  0.5344620000000  0.4829130000000  0.5301940000000 1.0
C      1  0.4599090000000  0.5222970000000  0.5309270000000 1.0
C      1  0.4084110000000  0.5214770000000  0.4701650000000 1.0
C      1  0.5806800000000  0.4726210000000  0.4668500000000 1.0
C      1  0.4045330000000  0.4762160000000  0.5314620000000 1.0
C      1  0.5797240000000  0.5221270000000  0.5279250000000 1.0
C      1  0.5491690000000  0.5783680000000  0.5171490000000 1.0
C      1  0.4525620000000  0.4204230000000  0.5122460000000 1.0
C      1  0.5484340000000  0.4306200000000  0.4815620000000 1.0
C      1  0.4533430000000  0.5765670000000  0.4882980000000 1.0
C      1  0.5236970000000  0.6054680000000  0.4844330000000 1.0
C      1  0.4802770000000  0.3953460000000  0.4809660000000 1.0
C      1  0.5280390000000  0.4043560000000  0.5162070000000 1.0
C      1  0.4767060000000  0.6064560000000  0.5199250000000 1.0
C      1  0.5004880000000  0.4140930000000  0.5244260000000 1.0
C      1  0.5018130000000  0.5896970000000  0.5269200000000 1.0
C      1  0.4986860000000  0.5888580000000  0.4766210000000 1.0
C      1  0.5032370000000  0.4143120000000  0.4738770000000 1.0
C      1  0.4609280000000  0.4993560000000  0.5744480000000 1.0
C      1  0.5384660000000  0.5020410000000  0.5696860000000 1.0
C      1  0.4666970000000  0.5013470000000  0.4186560000000 1.0
C      1  0.5463830000000  0.4942170000000  0.4293500000000 1.0
C      1  0.4143340000000  0.4555530000000  0.4347980000000 1.0
C      1  0.5885890000000  0.5380510000000  0.4321430000000 1.0
C      1  0.4163980000000  0.5412250000000  0.5663980000000 1.0
C      1  0.5848740000000  0.4589760000000  0.5688730000000 1.0
C      1  0.5071780000000  0.4681410000000  0.5334150000000 1.0
C      1  0.4885880000000  0.5334400000000  0.5321690000000 1.0
C      1  0.5099330000000  0.5339050000000  0.4723890000000 1.0
C      1  0.4877590000000  0.4669050000000  0.4682770000000 1.0
C      1  0.5845900000000  0.4738550000000  0.5448330000000 1.0
C      1  0.4064590000000  0.5242400000000  0.5460100000000 1.0
C      1  0.5896440000000  0.5190660000000  0.4531290000000 1.0
C      1  0.4079430000000  0.4739540000000  0.4549420000000 1.0
C      1  0.5832870000000  0.5025580000000  0.5500740000000 1.0
C      1  0.4119520000000  0.4966880000000  0.5514510000000 1.0
C      1  0.5910120000000  0.4910860000000  0.4456330000000 1.0
C      1  0.4136100000000  0.5014360000000  0.4496950000000 1.0
C      1  0.5275640000000  0.5446170000000  0.4392260000000 1.0
C      1  0.4766640000000  0.4550410000000  0.4330950000000 1.0
C      1  0.5264550000000  0.4522790000000  0.5744220000000 1.0
C      1  0.4757510000000  0.5489900000000  0.5746110000000 1.0
C      1  0.4439040000000  0.4665170000000  0.5227810000000 1.0
C      1  0.5504040000000  0.5305220000000  0.5225080000000 1.0
C      1  0.4470430000000  0.5328960000000  0.4815090000000 1.0
C      1  0.5504010000000  0.4761280000000  0.4567980000000 1.0
END
