TITL C-3577083-591-444 -1.16117443559999e-06 125000 -314.281134745575 0 0 52 (C1) n - 1
REM
REM in /home/bkarasulu/work/CARBON/AIRSS/Generating-Clusters/EDIP-Nigel-Params/with-SteepDescent/Higher-Symm/SD-CG/HFTN-CG
REM
REM
REM
REM
REM
REM ./C.cell (12c818d87b63d06a65506943cc24bca4)
REM
REM compiler GCC version 9.2.1 20190827 (Red Hat 9.2.1-1)
REM options -cpp -mtune=generic -march=x86-64 -g -O0 -fpre-include=/usr/include/finclude/math-vector-fortran.h
REM seed 68095005 762841474 424799029 -1100057073 -1120333386 101732515 -848222443 -738091437 654818300 1724816420 810022488 -870364762 -1723685539 446578839 -737874903 828443236 1199571303 1908562652 -1901066458 872626650 1535557691 1821458085 1309374992 294167761 362997495 -575334587 200104725 1751479146 1600362600 999100031 180472708 -157836761 -20158053
REM
CELL 1.54180   50.00000   50.00000   50.00000   90.00000   90.00000   90.00000
LATT -1
SFAC C  
C      1  0.4907190000000  0.4437210000000  0.5266130000000 1.0
C      1  0.4775490000000  0.5160370000000  0.4192410000000 1.0
C      1  0.4858490000000  0.5674800000000  0.5526080000000 1.0
C      1  0.5078580000000  0.4366050000000  0.4641720000000 1.0
C      1  0.4775560000000  0.5194890000000  0.5819170000000 1.0
C      1  0.4932070000000  0.5514020000000  0.4609140000000 1.0
C      1  0.4768910000000  0.5618920000000  0.5266810000000 1.0
C      1  0.4787200000000  0.4681120000000  0.5326670000000 1.0
C      1  0.4805170000000  0.4987850000000  0.4408950000000 1.0
C      1  0.4832640000000  0.5420970000000  0.4852170000000 1.0
C      1  0.4878820000000  0.4527840000000  0.4493420000000 1.0
C      1  0.4707140000000  0.5065930000000  0.5580210000000 1.0
C      1  0.4504670000000  0.5570760000000  0.5166520000000 1.0
C      1  0.4508840000000  0.4668440000000  0.5409630000000 1.0
C      1  0.4573910000000  0.4878900000000  0.4552900000000 1.0
C      1  0.4540670000000  0.5463520000000  0.4895500000000 1.0
C      1  0.4620340000000  0.4594510000000  0.4615890000000 1.0
C      1  0.4448530000000  0.4920490000000  0.5555030000000 1.0
C      1  0.5616480000000  0.4986090000000  0.5285040000000 1.0
C      1  0.5732920000000  0.4716530000000  0.4844970000000 1.0
C      1  0.5581450000000  0.5208090000000  0.4833680000000 1.0
C      1  0.5693770000000  0.4964840000000  0.4687110000000 1.0
C      1  0.5650010000000  0.4726830000000  0.5136010000000 1.0
C      1  0.5620820000000  0.5242230000000  0.5131270000000 1.0
C      1  0.4914130000000  0.5552850000000  0.4345270000000 1.0
C      1  0.5011820000000  0.5320960000000  0.5778480000000 1.0
C      1  0.4969600000000  0.4196100000000  0.4834190000000 1.0
C      1  0.5070090000000  0.5492220000000  0.5567230000000 1.0
C      1  0.4831460000000  0.5415530000000  0.4130210000000 1.0
C      1  0.4919260000000  0.4231200000000  0.5094540000000 1.0
C      1  0.5155360000000  0.5040320000000  0.5328780000000 1.0
C      1  0.5283120000000  0.4565820000000  0.4742450000000 1.0
C      1  0.5175210000000  0.5037850000000  0.4784070000000 1.0
C      1  0.5242210000000  0.4822830000000  0.4585900000000 1.0
C      1  0.5232010000000  0.4624090000000  0.5033700000000 1.0
C      1  0.5160210000000  0.5365100000000  0.5305970000000 1.0
C      1  0.5512900000000  0.4871730000000  0.4481070000000 1.0
C      1  0.5436960000000  0.5428910000000  0.5243480000000 1.0
C      1  0.5447970000000  0.4532750000000  0.5200230000000 1.0
C      1  0.5402540000000  0.4976020000000  0.5474720000000 1.0
C      1  0.5317770000000  0.5282590000000  0.4744460000000 1.0
C      1  0.5572490000000  0.4522900000000  0.4700450000000 1.0
C      1  0.4384220000000  0.5215840000000  0.4924180000000 1.0
C      1  0.4241860000000  0.5017700000000  0.5361590000000 1.0
C      1  0.4416490000000  0.4703790000000  0.4926140000000 1.0
C      1  0.4301610000000  0.5246390000000  0.5200930000000 1.0
C      1  0.4496710000000  0.4962440000000  0.4825300000000 1.0
C      1  0.4312240000000  0.4689520000000  0.5192750000000 1.0
C      1  0.4970380000000  0.5499140000000  0.5101910000000 1.0
C      1  0.5009680000000  0.4776580000000  0.4394630000000 1.0
C      1  0.4916240000000  0.4905580000000  0.5460800000000 1.0
C      1  0.5176890000000  0.4913990000000  0.5051380000000 1.0
END
