TITL C-3577077-324-404 -4.11312671363644e-06 125000 -1164.07088811914 0 0 187 (C1) n - 1
REM
REM in /home/bkarasulu/work/CARBON/AIRSS/Generating-Clusters/EDIP-Nigel-Params/with-SteepDescent/Higher-Symm/SD-CG/HFTN-CG
REM
REM
REM
REM
REM
REM ./C.cell (12c818d87b63d06a65506943cc24bca4)
REM
REM compiler GCC version 9.2.1 20190827 (Red Hat 9.2.1-1)
REM options -cpp -mtune=generic -march=x86-64 -g -O0 -fpre-include=/usr/include/finclude/math-vector-fortran.h
REM seed -1804889714 -728434576 -221474899 615524792 695866019 -833728670 -1513498283 701355170 -1765294516 354529810 -1241215820 -484775212 -84222922 1581445261 2022666591 1728417958 -934426509 -191700961 1084099083 -468841260 921620652 -942618793 -77385350 -631943655 -279804725 1891890006 -1326709058 -70653716 134188415 -1993643047 -1433515229 -248507013 1044229642
REM
CELL 1.54180   50.00000   50.00000   50.00000   90.00000   90.00000   90.00000
LATT -1
SFAC C  
C      1  0.4859540000000  0.5161250000000  0.3925450000000 1.0
C      1  0.5379660000000  0.4991540000000  0.6088410000000 1.0
C      1  0.5148020000000  0.5110960000000  0.5956890000000 1.0
C      1  0.4159030000000  0.5687530000000  0.5187280000000 1.0
C      1  0.5661210000000  0.5816350000000  0.5562550000000 1.0
C      1  0.4739190000000  0.5588860000000  0.4091810000000 1.0
C      1  0.4984330000000  0.6042040000000  0.5023840000000 1.0
C      1  0.4877360000000  0.4926970000000  0.4657290000000 1.0
C      1  0.4943270000000  0.5584220000000  0.5985160000000 1.0
C      1  0.4545350000000  0.5920520000000  0.5320750000000 1.0
C      1  0.4319430000000  0.5012030000000  0.5055410000000 1.0
C      1  0.5750070000000  0.4343990000000  0.5411650000000 1.0
C      1  0.4941710000000  0.5446380000000  0.3943880000000 1.0
C      1  0.4645620000000  0.5149880000000  0.5298450000000 1.0
C      1  0.3995110000000  0.5393980000000  0.4561100000000 1.0
C      1  0.4645810000000  0.4216520000000  0.4215740000000 1.0
C      1  0.5782300000000  0.4630540000000  0.4243610000000 1.0
C      1  0.6085790000000  0.5220160000000  0.5054710000000 1.0
C      1  0.4647940000000  0.4689280000000  0.4040370000000 1.0
C      1  0.5888690000000  0.4419410000000  0.4952040000000 1.0
C      1  0.4556260000000  0.4609010000000  0.4508640000000 1.0
C      1  0.3907910000000  0.5031880000000  0.4905900000000 1.0
C      1  0.4679870000000  0.6043830000000  0.4638590000000 1.0
C      1  0.4713740000000  0.4575920000000  0.5862530000000 1.0
C      1  0.4509470000000  0.5780410000000  0.5671150000000 1.0
C      1  0.5927730000000  0.4490130000000  0.5225080000000 1.0
C      1  0.5572730000000  0.5426420000000  0.5819920000000 1.0
C      1  0.4889360000000  0.5087320000000  0.6092330000000 1.0
C      1  0.4476380000000  0.4883100000000  0.5332490000000 1.0
C      1  0.6008180000000  0.4526960000000  0.4706190000000 1.0
C      1  0.5281410000000  0.4024390000000  0.4581950000000 1.0
C      1  0.5860720000000  0.4452920000000  0.4454000000000 1.0
C      1  0.5736960000000  0.4017240000000  0.4710070000000 1.0
C      1  0.5436290000000  0.4691420000000  0.4608610000000 1.0
C      1  0.4086400000000  0.4867980000000  0.5525410000000 1.0
C      1  0.4722000000000  0.4700310000000  0.5016980000000 1.0
C      1  0.5763420000000  0.5560300000000  0.5644470000000 1.0
C      1  0.5402630000000  0.5805590000000  0.4660320000000 1.0
C      1  0.4188120000000  0.4303990000000  0.5012250000000 1.0
C      1  0.4580840000000  0.4878460000000  0.4622160000000 1.0
C      1  0.5148460000000  0.4403350000000  0.5952660000000 1.0
C      1  0.5420730000000  0.4484070000000  0.6045920000000 1.0
C      1  0.5248030000000  0.5520070000000  0.4885150000000 1.0
C      1  0.5540670000000  0.4760120000000  0.6007150000000 1.0
C      1  0.4566890000000  0.5299630000000  0.5814650000000 1.0
C      1  0.4756090000000  0.5356500000000  0.6048620000000 1.0
C      1  0.4138440000000  0.4464360000000  0.4524480000000 1.0
C      1  0.5463550000000  0.4267210000000  0.5312410000000 1.0
C      1  0.4918390000000  0.4243610000000  0.4117890000000 1.0
C      1  0.5422040000000  0.3862290000000  0.5035850000000 1.0
C      1  0.5598130000000  0.5599270000000  0.4222350000000 1.0
C      1  0.5613630000000  0.4958250000000  0.5294060000000 1.0
C      1  0.4486200000000  0.4447770000000  0.4108140000000 1.0
C      1  0.5798600000000  0.5409070000000  0.4615790000000 1.0
C      1  0.3988530000000  0.4687230000000  0.4625790000000 1.0
C      1  0.5786480000000  0.4943660000000  0.5766170000000 1.0
C      1  0.5751860000000  0.5941510000000  0.5330370000000 1.0
C      1  0.4635890000000  0.5654040000000  0.5217010000000 1.0
C      1  0.5314400000000  0.5618120000000  0.5856900000000 1.0
C      1  0.5452180000000  0.4660910000000  0.4918040000000 1.0
C      1  0.5150610000000  0.5362030000000  0.5753540000000 1.0
C      1  0.5331560000000  0.5672310000000  0.4094470000000 1.0
C      1  0.4966190000000  0.4695410000000  0.4845770000000 1.0
C      1  0.5192110000000  0.5407830000000  0.4119470000000 1.0
C      1  0.4288490000000  0.5957890000000  0.5163460000000 1.0
C      1  0.4867780000000  0.5193230000000  0.4806060000000 1.0
C      1  0.4377180000000  0.5152130000000  0.4242540000000 1.0
C      1  0.4822900000000  0.5560210000000  0.5442270000000 1.0
C      1  0.5108430000000  0.4351830000000  0.4932540000000 1.0
C      1  0.6134000000000  0.4921560000000  0.5014920000000 1.0
C      1  0.4459500000000  0.5131190000000  0.4523720000000 1.0
C      1  0.5262140000000  0.6037680000000  0.5128240000000 1.0
C      1  0.4429520000000  0.4142300000000  0.5463270000000 1.0
C      1  0.4879660000000  0.4009960000000  0.5166680000000 1.0
C      1  0.5035610000000  0.4976800000000  0.4395960000000 1.0
C      1  0.4552210000000  0.4406010000000  0.4743680000000 1.0
C      1  0.3992140000000  0.5860840000000  0.4707010000000 1.0
C      1  0.4895500000000  0.5802510000000  0.5618280000000 1.0
C      1  0.4488750000000  0.4819100000000  0.4893130000000 1.0
C      1  0.4761160000000  0.5688540000000  0.4888880000000 1.0
C      1  0.5415850000000  0.4367000000000  0.5009810000000 1.0
C      1  0.4948430000000  0.6067070000000  0.5490800000000 1.0
C      1  0.5085460000000  0.5387880000000  0.4679290000000 1.0
C      1  0.5933930000000  0.5427620000000  0.4888860000000 1.0
C      1  0.5142450000000  0.4367810000000  0.4009990000000 1.0
C      1  0.4211640000000  0.5459890000000  0.4357930000000 1.0
C      1  0.4346550000000  0.4113870000000  0.5176420000000 1.0
C      1  0.5290280000000  0.4593410000000  0.4137720000000 1.0
C      1  0.4910270000000  0.5608460000000  0.4595430000000 1.0
C      1  0.4451370000000  0.3900510000000  0.5027770000000 1.0
C      1  0.4587340000000  0.5331880000000  0.4727760000000 1.0
C      1  0.5454980000000  0.5337860000000  0.5001900000000 1.0
C      1  0.4394300000000  0.4541740000000  0.5801790000000 1.0
C      1  0.5881410000000  0.4970870000000  0.4579760000000 1.0
C      1  0.4781350000000  0.4464190000000  0.5576500000000 1.0
C      1  0.4334100000000  0.4817380000000  0.5692430000000 1.0
C      1  0.4276640000000  0.4277160000000  0.4713780000000 1.0
C      1  0.4718520000000  0.3909860000000  0.4947430000000 1.0
C      1  0.5232460000000  0.6021700000000  0.5429780000000 1.0
C      1  0.4780580000000  0.4039610000000  0.4690390000000 1.0
C      1  0.5377250000000  0.4982450000000  0.4523190000000 1.0
C      1  0.4329730000000  0.5339840000000  0.5441790000000 1.0
C      1  0.4889530000000  0.5140280000000  0.5106110000000 1.0
C      1  0.5458660000000  0.5900540000000  0.4953210000000 1.0
C      1  0.5342510000000  0.4882370000000  0.5632600000000 1.0
C      1  0.5530440000000  0.5543550000000  0.4509990000000 1.0
C      1  0.5195840000000  0.4782350000000  0.5002000000000 1.0
C      1  0.5130510000000  0.5880600000000  0.4241480000000 1.0
C      1  0.4811880000000  0.5167470000000  0.4257660000000 1.0
C      1  0.5142780000000  0.3894750000000  0.5413090000000 1.0
C      1  0.5432540000000  0.4207900000000  0.4407870000000 1.0
C      1  0.4997040000000  0.4075700000000  0.5587160000000 1.0
C      1  0.4703850000000  0.4085050000000  0.5567230000000 1.0
C      1  0.5539740000000  0.5053320000000  0.4127310000000 1.0
C      1  0.4894480000000  0.4458370000000  0.6060260000000 1.0
C      1  0.5160070000000  0.4160590000000  0.5806760000000 1.0
C      1  0.3941280000000  0.5521430000000  0.5049510000000 1.0
C      1  0.4383220000000  0.5494520000000  0.5197250000000 1.0
C      1  0.4873350000000  0.4983070000000  0.5634460000000 1.0
C      1  0.5476270000000  0.3878770000000  0.4757970000000 1.0
C      1  0.5134990000000  0.4988860000000  0.5200600000000 1.0
C      1  0.5309340000000  0.4484980000000  0.4421440000000 1.0
C      1  0.3942280000000  0.5223320000000  0.5124650000000 1.0
C      1  0.3914730000000  0.5596820000000  0.4761340000000 1.0
C      1  0.5060990000000  0.4795190000000  0.4135200000000 1.0
C      1  0.5713590000000  0.5837340000000  0.5073510000000 1.0
C      1  0.5042670000000  0.4186940000000  0.4681440000000 1.0
C      1  0.4744910000000  0.4891910000000  0.5889990000000 1.0
C      1  0.5704810000000  0.4812810000000  0.5043790000000 1.0
C      1  0.6014860000000  0.4774190000000  0.5273200000000 1.0
C      1  0.4758210000000  0.5258930000000  0.5573470000000 1.0
C      1  0.5320960000000  0.5172030000000  0.3979620000000 1.0
C      1  0.4546590000000  0.4558740000000  0.5388160000000 1.0
C      1  0.5565930000000  0.4753430000000  0.4107640000000 1.0
C      1  0.5053030000000  0.5501810000000  0.5301370000000 1.0
C      1  0.5381910000000  0.5167550000000  0.5251950000000 1.0
C      1  0.4755590000000  0.5811510000000  0.5885110000000 1.0
C      1  0.4110540000000  0.5128790000000  0.5369100000000 1.0
C      1  0.4260160000000  0.4525020000000  0.4271590000000 1.0
C      1  0.4294750000000  0.4355980000000  0.5601680000000 1.0
C      1  0.3927010000000  0.4901460000000  0.4450400000000 1.0
C      1  0.4556450000000  0.4110370000000  0.4501330000000 1.0
C      1  0.4827490000000  0.5858960000000  0.4173840000000 1.0
C      1  0.4022410000000  0.4643960000000  0.5368300000000 1.0
C      1  0.5057100000000  0.5658500000000  0.5056760000000 1.0
C      1  0.4364630000000  0.5718760000000  0.4413840000000 1.0
C      1  0.5481990000000  0.4615360000000  0.5633610000000 1.0
C      1  0.5621800000000  0.4335840000000  0.5908300000000 1.0
C      1  0.5283020000000  0.5338570000000  0.4445510000000 1.0
C      1  0.5395810000000  0.3969900000000  0.5293770000000 1.0
C      1  0.5088200000000  0.4852170000000  0.5472680000000 1.0
C      1  0.5112910000000  0.5855640000000  0.4548050000000 1.0
C      1  0.4625690000000  0.5886070000000  0.4398530000000 1.0
C      1  0.5382010000000  0.5844040000000  0.5630690000000 1.0
C      1  0.5747810000000  0.4178660000000  0.4942630000000 1.0
C      1  0.3990470000000  0.4752820000000  0.4904540000000 1.0
C      1  0.4646710000000  0.4431280000000  0.5105410000000 1.0
C      1  0.5843500000000  0.4956580000000  0.5477570000000 1.0
C      1  0.5540310000000  0.5115720000000  0.5759470000000 1.0
C      1  0.5032100000000  0.4428930000000  0.4503980000000 1.0
C      1  0.4477990000000  0.5950900000000  0.4838450000000 1.0
C      1  0.4957090000000  0.6060950000000  0.4719600000000 1.0
C      1  0.5718970000000  0.4189630000000  0.4462890000000 1.0
C      1  0.4267690000000  0.5844760000000  0.4658070000000 1.0
C      1  0.6089890000000  0.5295790000000  0.5327730000000 1.0
C      1  0.5744060000000  0.5032490000000  0.4841230000000 1.0
C      1  0.3899000000000  0.5121600000000  0.4627250000000 1.0
C      1  0.5750060000000  0.5552560000000  0.5069330000000 1.0
C      1  0.4820290000000  0.4591510000000  0.4359080000000 1.0
C      1  0.5917640000000  0.5223310000000  0.4420660000000 1.0
C      1  0.4543020000000  0.4974860000000  0.4050530000000 1.0
C      1  0.4714390000000  0.5454960000000  0.4374530000000 1.0
C      1  0.5100690000000  0.4989940000000  0.3911330000000 1.0
C      1  0.4781090000000  0.6105810000000  0.5250000000000 1.0
C      1  0.5989850000000  0.5440370000000  0.5533290000000 1.0
C      1  0.6105130000000  0.4811240000000  0.4715320000000 1.0
C      1  0.5253590000000  0.5357440000000  0.5453300000000 1.0
C      1  0.4379770000000  0.5506900000000  0.5697280000000 1.0
C      1  0.4461320000000  0.5017060000000  0.5871020000000 1.0
C      1  0.5794360000000  0.4395690000000  0.5693740000000 1.0
C      1  0.4400860000000  0.5298980000000  0.4968260000000 1.0
C      1  0.5040720000000  0.4543310000000  0.5432420000000 1.0
C      1  0.5287560000000  0.4402690000000  0.5532350000000 1.0
C      1  0.5487420000000  0.5139420000000  0.4780700000000 1.0
C      1  0.4917510000000  0.4302250000000  0.5158950000000 1.0
C      1  0.5729990000000  0.5280770000000  0.4192200000000 1.0
C      1  0.4058380000000  0.4555950000000  0.5105270000000 1.0
END
