TITL C-3577079-311-740 5.82836716139202e-07 125000 -682.0114335029 0 0 111 (C1) n - 1
REM
REM in /home/bkarasulu/work/CARBON/AIRSS/Generating-Clusters/EDIP-Nigel-Params/with-SteepDescent/Higher-Symm/SD-CG/HFTN-CG
REM
REM
REM
REM
REM
REM ./C.cell (12c818d87b63d06a65506943cc24bca4)
REM
REM compiler GCC version 9.2.1 20190827 (Red Hat 9.2.1-1)
REM options -cpp -mtune=generic -march=x86-64 -g -O0 -fpre-include=/usr/include/finclude/math-vector-fortran.h
REM seed 181137371 -997676338 660853671 -1889620621 -1403847202 -1403307899 -1755919620 -321961507 167634339 1861809351 -1601340993 1338998097 -1488553120 -1587538446 -2006743206 -798732167 973623797 -1450523543 -446927675 -1762754110 -331069343 -645804652 -1803879974 713598257 -1899016382 -245647905 2003016065 1829167934 1697246706 -1699696938 61802213 -1790388779 -732002476
REM
CELL 1.54180   50.00000   50.00000   50.00000   90.00000   90.00000   90.00000
LATT -1
SFAC C  
C      1  0.4204840000000  0.5221830000000  0.4915870000000 1.0
C      1  0.4191190000000  0.5019910000000  0.5248060000000 1.0
C      1  0.4203300000000  0.4814120000000  0.4858350000000 1.0
C      1  0.4533210000000  0.4981600000000  0.4772560000000 1.0
C      1  0.4545710000000  0.5161580000000  0.5169930000000 1.0
C      1  0.4552270000000  0.4812720000000  0.5105840000000 1.0
C      1  0.5183080000000  0.5256060000000  0.5812050000000 1.0
C      1  0.5070130000000  0.4129650000000  0.4906120000000 1.0
C      1  0.5090390000000  0.5485970000000  0.4251280000000 1.0
C      1  0.5621080000000  0.4963470000000  0.4699810000000 1.0
C      1  0.5740830000000  0.5500130000000  0.5146040000000 1.0
C      1  0.5806140000000  0.4708350000000  0.5228220000000 1.0
C      1  0.4676350000000  0.5192250000000  0.4240660000000 1.0
C      1  0.4727090000000  0.5502160000000  0.5522310000000 1.0
C      1  0.4679700000000  0.4273030000000  0.5200770000000 1.0
C      1  0.4833210000000  0.4709630000000  0.4185290000000 1.0
C      1  0.4946280000000  0.5832260000000  0.5148100000000 1.0
C      1  0.4815610000000  0.4503710000000  0.5557020000000 1.0
C      1  0.4520790000000  0.5677220000000  0.5416260000000 1.0
C      1  0.4434850000000  0.4319030000000  0.5364950000000 1.0
C      1  0.4440380000000  0.5017030000000  0.4211370000000 1.0
C      1  0.4984700000000  0.5392460000000  0.5180940000000 1.0
C      1  0.5082920000000  0.4670900000000  0.5193860000000 1.0
C      1  0.5014320000000  0.4972400000000  0.4536510000000 1.0
C      1  0.5449470000000  0.4800870000000  0.4308750000000 1.0
C      1  0.5327730000000  0.5770340000000  0.5210060000000 1.0
C      1  0.5450990000000  0.4474160000000  0.5480800000000 1.0
C      1  0.5274210000000  0.5049370000000  0.4392140000000 1.0
C      1  0.5228350000000  0.5496140000000  0.5357280000000 1.0
C      1  0.5299800000000  0.4459360000000  0.5216390000000 1.0
C      1  0.4199800000000  0.4785250000000  0.4568270000000 1.0
C      1  0.4267410000000  0.5484570000000  0.5047740000000 1.0
C      1  0.4216960000000  0.4757700000000  0.5383460000000 1.0
C      1  0.5813510000000  0.5121150000000  0.4306640000000 1.0
C      1  0.5645580000000  0.5625980000000  0.5589860000000 1.0
C      1  0.5794640000000  0.4241100000000  0.5230120000000 1.0
C      1  0.5152280000000  0.4196790000000  0.5169230000000 1.0
C      1  0.5158770000000  0.5224970000000  0.4174150000000 1.0
C      1  0.5147710000000  0.5499870000000  0.5659080000000 1.0
C      1  0.4833850000000  0.5362640000000  0.4727240000000 1.0
C      1  0.4901090000000  0.5004830000000  0.5461070000000 1.0
C      1  0.4876470000000  0.4599430000000  0.4783090000000 1.0
C      1  0.5202040000000  0.4351990000000  0.4306100000000 1.0
C      1  0.5215970000000  0.5909670000000  0.4745290000000 1.0
C      1  0.5209820000000  0.4689770000000  0.5869500000000 1.0
C      1  0.4499070000000  0.4928140000000  0.5788760000000 1.0
C      1  0.4502680000000  0.4354830000000  0.4550560000000 1.0
C      1  0.4523840000000  0.5701610000000  0.4677400000000 1.0
C      1  0.5450040000000  0.5197640000000  0.4619130000000 1.0
C      1  0.5469900000000  0.5289870000000  0.5310360000000 1.0
C      1  0.5522770000000  0.4554700000000  0.5014980000000 1.0
C      1  0.4236980000000  0.5043270000000  0.4444040000000 1.0
C      1  0.4271110000000  0.5500270000000  0.5337110000000 1.0
C      1  0.4249300000000  0.4516410000000  0.5232840000000 1.0
C      1  0.4900780000000  0.5615730000000  0.5713040000000 1.0
C      1  0.4923990000000  0.4216270000000  0.5353660000000 1.0
C      1  0.4914240000000  0.5075850000000  0.4118780000000 1.0
C      1  0.5015830000000  0.5709530000000  0.4399830000000 1.0
C      1  0.4986730000000  0.5104050000000  0.5967500000000 1.0
C      1  0.4992300000000  0.4111590000000  0.4636390000000 1.0
C      1  0.5840770000000  0.5043800000000  0.4876160000000 1.0
C      1  0.5887870000000  0.5255700000000  0.5193590000000 1.0
C      1  0.5774970000000  0.4986510000000  0.5147900000000 1.0
C      1  0.4722130000000  0.5380880000000  0.5007780000000 1.0
C      1  0.4826810000000  0.4731510000000  0.5338070000000 1.0
C      1  0.4747440000000  0.4805000000000  0.4592620000000 1.0
C      1  0.5286910000000  0.5241370000000  0.4852570000000 1.0
C      1  0.5346150000000  0.5087140000000  0.5105430000000 1.0
C      1  0.5404570000000  0.4783650000000  0.4865410000000 1.0
C      1  0.5580450000000  0.4916930000000  0.5652990000000 1.0
C      1  0.5603810000000  0.4405930000000  0.4560970000000 1.0
C      1  0.5606740000000  0.5639900000000  0.4749330000000 1.0
C      1  0.5674290000000  0.5397960000000  0.5736740000000 1.0
C      1  0.5792030000000  0.4170330000000  0.4966910000000 1.0
C      1  0.5820250000000  0.5382270000000  0.4377670000000 1.0
C      1  0.5583040000000  0.5187090000000  0.5573510000000 1.0
C      1  0.5623620000000  0.4348800000000  0.4834390000000 1.0
C      1  0.5612170000000  0.5436520000000  0.4554120000000 1.0
C      1  0.4524020000000  0.4454050000000  0.5612470000000 1.0
C      1  0.4543670000000  0.4738600000000  0.4208060000000 1.0
C      1  0.4644580000000  0.5814020000000  0.5172830000000 1.0
C      1  0.4218520000000  0.5229910000000  0.5464490000000 1.0
C      1  0.4220540000000  0.4530280000000  0.4943490000000 1.0
C      1  0.4189070000000  0.5286900000000  0.4621260000000 1.0
C      1  0.4621220000000  0.5246240000000  0.4546300000000 1.0
C      1  0.4663160000000  0.5211260000000  0.5461410000000 1.0
C      1  0.4662100000000  0.4505380000000  0.4991100000000 1.0
C      1  0.5710710000000  0.4885750000000  0.4420000000000 1.0
C      1  0.5619850000000  0.5702940000000  0.5320800000000 1.0
C      1  0.5738440000000  0.4470540000000  0.5387460000000 1.0
C      1  0.4956040000000  0.5863340000000  0.4858590000000 1.0
C      1  0.4921880000000  0.4630940000000  0.5815920000000 1.0
C      1  0.4922690000000  0.4442190000000  0.4272860000000 1.0
C      1  0.4525940000000  0.5615640000000  0.4973640000000 1.0
C      1  0.4379860000000  0.4712600000000  0.5623650000000 1.0
C      1  0.4426850000000  0.4626190000000  0.4455850000000 1.0
C      1  0.5224450000000  0.5883600000000  0.4464090000000 1.0
C      1  0.5215990000000  0.4934510000000  0.6029230000000 1.0
C      1  0.5200100000000  0.4103160000000  0.4445480000000 1.0
C      1  0.5405340000000  0.5766760000000  0.4905470000000 1.0
C      1  0.5387460000000  0.4714460000000  0.5637910000000 1.0
C      1  0.5396700000000  0.4534290000000  0.4419660000000 1.0
C      1  0.4805460000000  0.4906410000000  0.5824250000000 1.0
C      1  0.4806440000000  0.4321520000000  0.4520720000000 1.0
C      1  0.4840130000000  0.5678080000000  0.4645920000000 1.0
C      1  0.5060240000000  0.5110630000000  0.5217670000000 1.0
C      1  0.5088340000000  0.4780020000000  0.4925780000000 1.0
C      1  0.5025370000000  0.5137280000000  0.4780810000000 1.0
C      1  0.4411050000000  0.5470890000000  0.4522320000000 1.0
C      1  0.4444530000000  0.5188240000000  0.5664000000000 1.0
C      1  0.4440870000000  0.4358910000000  0.4837550000000 1.0
END
