TITL C-3577087-600-117 0.00145917953684485 125000 -74.9861265976594 0 0 15 (Cs) n - 1
REM
REM in /home/bkarasulu/work/CARBON/AIRSS/Generating-Clusters/EDIP-Nigel-Params/with-SteepDescent/Higher-Symm/SD-CG/HFTN-CG
REM
REM
REM
REM
REM
REM ./C.cell (12c818d87b63d06a65506943cc24bca4)
REM
REM compiler GCC version 9.2.1 20190827 (Red Hat 9.2.1-1)
REM options -cpp -mtune=generic -march=x86-64 -g -O0 -fpre-include=/usr/include/finclude/math-vector-fortran.h
REM seed -1737030950 -78578786 300035681 877173093 1151115391 -1835738414 -908846018 1326728542 -1078231919 1329481129 1394563595 -2144044443 2024915096 -488003848 791649299 -1967016903 1864683125 -214652651 23465530 -1136866748 -1736075982 1554039591 74824242 702154207 -642688771 -2084760852 321782159 376490715 966001089 799937101 -1126728443 212381303 -715845450
REM
CELL 1.54180   50.00000   50.00000   50.00000   90.00000   90.00000   90.00000
LATT -1
SFAC C  
C      1  0.5483510000000  0.5067740000000  0.4177970000000 1.0
C      1  0.5370970000000  0.5067560000000  0.5868690000000 1.0
C      1  0.5230910000000  0.5064160000000  0.5654770000000 1.0
C      1  0.5316330000000  0.5064300000000  0.4371430000000 1.0
C      1  0.5157270000000  0.5061060000000  0.4582340000000 1.0
C      1  0.5101210000000  0.5060970000000  0.5424640000000 1.0
C      1  0.4959360000000  0.5056930000000  0.4772800000000 1.0
C      1  0.4930280000000  0.5056890000000  0.5209630000000 1.0
C      1  0.4773460000000  0.4630930000000  0.4979760000000 1.0
C      1  0.4633990000000  0.4406750000000  0.4970460000000 1.0
C      1  0.4953370000000  0.4838170000000  0.4991760000000 1.0
C      1  0.4754850000000  0.5475170000000  0.4978610000000 1.0
C      1  0.4943560000000  0.5275870000000  0.4991150000000 1.0
C      1  0.4484900000000  0.4199230000000  0.4960510000000 1.0
C      1  0.4614400000000  0.5689010000000  0.4969290000000 1.0
END
