TITL C-3577089-586-279 0.00024420406296341 125000 -73.5579211330325 0 0 14 (C1) n - 1
REM
REM in /home/bkarasulu/work/CARBON/AIRSS/Generating-Clusters/EDIP-Nigel-Params/with-SteepDescent/Higher-Symm/SD-CG/HFTN-CG
REM
REM
REM
REM
REM
REM ./C.cell (12c818d87b63d06a65506943cc24bca4)
REM
REM compiler GCC version 9.2.1 20190827 (Red Hat 9.2.1-1)
REM options -cpp -mtune=generic -march=x86-64 -g -O0 -fpre-include=/usr/include/finclude/math-vector-fortran.h
REM seed 663056160 -1970599878 1387766956 779579642 -613874958 -1009260235 743856598 -2106966348 1972174218 -1053483702 1382619559 2041633497 -1719597063 838866853 126404591 426755281 707210483 -1994708980 -1751154853 1622878426 -1880526168 1685182247 1647065937 -268919428 198445278 580017175 -131155816 2051564949 161591755 1774239341 331657438 -1290820719 1710169214
REM
CELL 1.54180   50.00000   50.00000   50.00000   90.00000   90.00000   90.00000
LATT -1
SFAC C  
C      1  0.5130750000000  0.4697180000000  0.4827610000000 1.0
C      1  0.4530710000000  0.4858900000000  0.4996490000000 1.0
C      1  0.5147650000000  0.4674890000000  0.5310240000000 1.0
C      1  0.5219980000000  0.5185910000000  0.4712650000000 1.0
C      1  0.4694740000000  0.5089460000000  0.4986760000000 1.0
C      1  0.5078530000000  0.4968880000000  0.5293670000000 1.0
C      1  0.5127890000000  0.4838920000000  0.5542910000000 1.0
C      1  0.5199060000000  0.4914050000000  0.4685930000000 1.0
C      1  0.4563220000000  0.4982250000000  0.4760170000000 1.0
C      1  0.5133890000000  0.5325560000000  0.4943450000000 1.0
C      1  0.5156390000000  0.4543290000000  0.5053950000000 1.0
C      1  0.5001550000000  0.5553990000000  0.4922780000000 1.0
C      1  0.5206870000000  0.4284660000000  0.5036540000000 1.0
C      1  0.4990440000000  0.5065130000000  0.5018180000000 1.0
END
