TITL C-3577077-324-584 1.16010176426195e-06 125000 -388.018423281578 0 0 64 (S4) n - 1
REM
REM in /home/bkarasulu/work/CARBON/AIRSS/Generating-Clusters/EDIP-Nigel-Params/with-SteepDescent/Higher-Symm/SD-CG/HFTN-CG
REM
REM
REM
REM
REM
REM ./C.cell (12c818d87b63d06a65506943cc24bca4)
REM
REM compiler GCC version 9.2.1 20190827 (Red Hat 9.2.1-1)
REM options -cpp -mtune=generic -march=x86-64 -g -O0 -fpre-include=/usr/include/finclude/math-vector-fortran.h
REM seed -1687028109 -892728410 -385255157 -1667072952 1950044680 1291787746 -585954931 1978869127 458705699 948671535 622043407 1392827328 -1198442693 -1682803742 1052860247 1402852670 -321283574 -518477385 -1393432020 -1985465902 -1014447230 899399534 -849962986 904415982 -1751468295 -1889976936 1593426524 1492728003 -1735917589 -2005945406 -1660559748 1032287768 -682863476
REM
CELL 1.54180   50.00000   50.00000   50.00000   90.00000   90.00000   90.00000
LATT -1
SFAC C  
C      1  0.5018000000000  0.4297510000000  0.4892510000000 1.0
C      1  0.4296940000000  0.4981760000000  0.5103700000000 1.0
C      1  0.4982310000000  0.5703300000000  0.4897860000000 1.0
C      1  0.5702740000000  0.5017440000000  0.5105930000000 1.0
C      1  0.4707770000000  0.4444800000000  0.5562740000000 1.0
C      1  0.4447800000000  0.5293560000000  0.4435000000000 1.0
C      1  0.5290550000000  0.5550860000000  0.5567860000000 1.0
C      1  0.5553880000000  0.4710780000000  0.4434400000000 1.0
C      1  0.4842440000000  0.5019440000000  0.4365010000000 1.0
C      1  0.5016050000000  0.5156060000000  0.5635460000000 1.0
C      1  0.5159440000000  0.4985440000000  0.4365350000000 1.0
C      1  0.4982060000000  0.4839060000000  0.5634190000000 1.0
C      1  0.4883920000000  0.5299310000000  0.4743210000000 1.0
C      1  0.5297930000000  0.5115470000000  0.5258650000000 1.0
C      1  0.5116850000000  0.4702670000000  0.4741270000000 1.0
C      1  0.4701300000000  0.4882550000000  0.5256870000000 1.0
C      1  0.5429770000000  0.5396360000000  0.4413380000000 1.0
C      1  0.5393230000000  0.4568850000000  0.5587710000000 1.0
C      1  0.4571980000000  0.4608160000000  0.4409080000000 1.0
C      1  0.4605020000000  0.5426630000000  0.5589830000000 1.0
C      1  0.5073780000000  0.4566200000000  0.4478700000000 1.0
C      1  0.4563430000000  0.4925000000000  0.5518810000000 1.0
C      1  0.4927770000000  0.5437790000000  0.4481830000000 1.0
C      1  0.5435030000000  0.5071010000000  0.5520660000000 1.0
C      1  0.5093160000000  0.5665930000000  0.4608500000000 1.0
C      1  0.5663840000000  0.4905910000000  0.5394820000000 1.0
C      1  0.4908010000000  0.4337100000000  0.4603120000000 1.0
C      1  0.4334990000000  0.5091070000000  0.5393560000000 1.0
C      1  0.4661990000000  0.4598800000000  0.4907590000000 1.0
C      1  0.4598320000000  0.5337800000000  0.5091070000000 1.0
C      1  0.5338280000000  0.5401890000000  0.4911670000000 1.0
C      1  0.5401410000000  0.4661510000000  0.5089670000000 1.0
C      1  0.4625280000000  0.4684960000000  0.5680370000000 1.0
C      1  0.4688590000000  0.5376320000000  0.4318840000000 1.0
C      1  0.5372690000000  0.5309800000000  0.5683880000000 1.0
C      1  0.5313440000000  0.4628920000000  0.4316900000000 1.0
C      1  0.5539420000000  0.4893070000000  0.4651070000000 1.0
C      1  0.4891210000000  0.4459760000000  0.5347090000000 1.0
C      1  0.4461620000000  0.5109610000000  0.4650300000000 1.0
C      1  0.5107750000000  0.5537560000000  0.5351550000000 1.0
C      1  0.4861330000000  0.4825850000000  0.4858880000000 1.0
C      1  0.4825100000000  0.5138340000000  0.5140520000000 1.0
C      1  0.5139090000000  0.5175230000000  0.4860630000000 1.0
C      1  0.5174480000000  0.4860580000000  0.5139970000000 1.0
C      1  0.4751230000000  0.5045000000000  0.4660710000000 1.0
C      1  0.5043190000000  0.5247970000000  0.5340110000000 1.0
C      1  0.5249770000000  0.4957600000000  0.4661120000000 1.0
C      1  0.4955800000000  0.4749430000000  0.5338070000000 1.0
C      1  0.4715690000000  0.5578080000000  0.4951940000000 1.0
C      1  0.5577820000000  0.5284190000000  0.5051810000000 1.0
C      1  0.5284460000000  0.4422300000000  0.4948350000000 1.0
C      1  0.4422040000000  0.4715430000000  0.5047910000000 1.0
C      1  0.4691290000000  0.4799900000000  0.4260660000000 1.0
C      1  0.4795970000000  0.5306980000000  0.5738990000000 1.0
C      1  0.5310910000000  0.5205770000000  0.4263140000000 1.0
C      1  0.5201840000000  0.4687360000000  0.5737220000000 1.0
C      1  0.5201940000000  0.5617640000000  0.5084510000000 1.0
C      1  0.5618080000000  0.4798260000000  0.4918310000000 1.0
C      1  0.4797820000000  0.4381730000000  0.5079160000000 1.0
C      1  0.4382170000000  0.5202370000000  0.4918020000000 1.0
C      1  0.4627930000000  0.4451720000000  0.4635200000000 1.0
C      1  0.4449780000000  0.5371210000000  0.5362750000000 1.0
C      1  0.5373140000000  0.5551060000000  0.4640530000000 1.0
C      1  0.5549140000000  0.4626010000000  0.5361520000000 1.0
END
