TITL C-3577080-309-95 -6.91524593628688e-08 125000 -211.347757922111 0 0 35 (C1) n - 1
REM
REM in /home/bkarasulu/work/CARBON/AIRSS/Generating-Clusters/EDIP-Nigel-Params/with-SteepDescent/Higher-Symm/SD-CG/HFTN-CG
REM
REM
REM
REM
REM
REM ./C.cell (12c818d87b63d06a65506943cc24bca4)
REM
REM compiler GCC version 9.2.1 20190827 (Red Hat 9.2.1-1)
REM options -cpp -mtune=generic -march=x86-64 -g -O0 -fpre-include=/usr/include/finclude/math-vector-fortran.h
REM seed 1016467668 -860185384 -1151498252 811818331 1268643857 -1654440838 1679070303 -1221060704 1226746055 104319862 -1986189597 437633345 -49098438 644283159 -340953625 1824001363 -222890221 222686191 -1800578037 -384623298 -579134932 891544633 -744186975 -245788364 -1929303014 -1703081353 1974022130 965847121 1369809947 1871488500 -1652815781 591157008 -854102519
REM
CELL 1.54180   50.00000   50.00000   50.00000   90.00000   90.00000   90.00000
LATT -1
SFAC C  
C      1  0.5216280000000  0.5172810000000  0.5253740000000 1.0
C      1  0.5308000000000  0.5062050000000  0.4991230000000 1.0
C      1  0.5187770000000  0.5152430000000  0.4735970000000 1.0
C      1  0.4906640000000  0.5061150000000  0.4713630000000 1.0
C      1  0.4689080000000  0.5178440000000  0.4883070000000 1.0
C      1  0.4703480000000  0.5106300000000  0.5173780000000 1.0
C      1  0.4941210000000  0.5082230000000  0.5331780000000 1.0
C      1  0.5393990000000  0.5038120000000  0.5445040000000 1.0
C      1  0.5584390000000  0.5005270000000  0.4971040000000 1.0
C      1  0.5333900000000  0.5011420000000  0.4525470000000 1.0
C      1  0.4831630000000  0.5001610000000  0.4447520000000 1.0
C      1  0.4450640000000  0.5037920000000  0.4784270000000 1.0
C      1  0.4478930000000  0.4981090000000  0.5286680000000 1.0
C      1  0.4900750000000  0.4982660000000  0.5591890000000 1.0
C      1  0.4483240000000  0.4701200000000  0.5277330000000 1.0
C      1  0.4911930000000  0.4704090000000  0.5564570000000 1.0
C      1  0.5406580000000  0.4752450000000  0.5446800000000 1.0
C      1  0.5596500000000  0.4726070000000  0.4973790000000 1.0
C      1  0.5327950000000  0.4727650000000  0.4536910000000 1.0
C      1  0.4825140000000  0.4722490000000  0.4439530000000 1.0
C      1  0.4439430000000  0.4752560000000  0.4772650000000 1.0
C      1  0.5218740000000  0.5477280000000  0.5224090000000 1.0
C      1  0.5310080000000  0.5548890000000  0.4967110000000 1.0
C      1  0.5191280000000  0.5453920000000  0.4729860000000 1.0
C      1  0.4929090000000  0.5549210000000  0.4690170000000 1.0
C      1  0.4714760000000  0.5481710000000  0.4860390000000 1.0
C      1  0.4751460000000  0.5605240000000  0.5109920000000 1.0
C      1  0.4970230000000  0.5599140000000  0.5270970000000 1.0
C      1  0.5474130000000  0.4616170000000  0.4747480000000 1.0
C      1  0.5079950000000  0.4613280000000  0.4477000000000 1.0
C      1  0.4605320000000  0.4630310000000  0.4584150000000 1.0
C      1  0.4426410000000  0.4619340000000  0.5017500000000 1.0
C      1  0.4701060000000  0.4592050000000  0.5416450000000 1.0
C      1  0.5175020000000  0.4620310000000  0.5528820000000 1.0
C      1  0.5535040000000  0.4633130000000  0.5229380000000 1.0
END
