TITL C-3578209-2550-211 1.77185246524484e-06 125000 -328.687531792099 0 0 56 (S8) n - 1
REM
REM in /home/bkarasulu/work/CARBON/AIRSS/Generating-Clusters/EDIP-Nigel-Params/with-SteepDescent/Higher-Symm/SD-CG/HFTN-CG
REM
REM
REM
REM
REM
REM ./C.cell (12c818d87b63d06a65506943cc24bca4)
REM
REM compiler GCC version 9.2.1 20190827 (Red Hat 9.2.1-1)
REM options -cpp -mtune=generic -march=x86-64 -g -O0 -fpre-include=/usr/include/finclude/math-vector-fortran.h
REM seed -1809363088 -219728405 -788557433 1623828820 -1465336773 -1934734269 1709778315 -1585053549 -1382712646 -391203125 -886539199 -77450244 -1684157078 1617173882 7769082 -836300127 -1166082699 1483029645 1059435898 -1902450216 -327274960 -1413301314 424146297 1475111507 -1584569162 1473392709 915583503 -2032920157 -452931549 -2040572379 534220059 1585729532 -178958385
REM
CELL 1.54180   50.00000   50.00000   50.00000   90.00000   90.00000   90.00000
LATT -1
SFAC C  
C      1  0.4717290000000  0.5268020000000  0.5715060000000 1.0
C      1  0.5305730000000  0.4732020000000  0.5705540000000 1.0
C      1  0.5715060000000  0.5268040000000  0.5282700000000 1.0
C      1  0.5705540000000  0.4732000000000  0.4694280000000 1.0
C      1  0.5282700000000  0.5268000000000  0.4284930000000 1.0
C      1  0.4694280000000  0.4731960000000  0.4294480000000 1.0
C      1  0.4284930000000  0.5267980000000  0.4717290000000 1.0
C      1  0.4294480000000  0.4731980000000  0.5305730000000 1.0
C      1  0.5031010000000  0.4433560000000  0.4725410000000 1.0
C      1  0.4827730000000  0.5566420000000  0.4783890000000 1.0
C      1  0.4725410000000  0.4433560000000  0.4969020000000 1.0
C      1  0.4783890000000  0.5566430000000  0.5172240000000 1.0
C      1  0.4969020000000  0.4433570000000  0.5274620000000 1.0
C      1  0.5172240000000  0.5566440000000  0.5216080000000 1.0
C      1  0.5274620000000  0.4433580000000  0.5031010000000 1.0
C      1  0.5216080000000  0.5566430000000  0.4827730000000 1.0
C      1  0.5443310000000  0.5664500000000  0.5261480000000 1.0
C      1  0.5498410000000  0.4335530000000  0.4871440000000 1.0
C      1  0.5261480000000  0.5664470000000  0.4556650000000 1.0
C      1  0.4871440000000  0.4335500000000  0.4501630000000 1.0
C      1  0.4556650000000  0.5664460000000  0.4738490000000 1.0
C      1  0.4501630000000  0.4335510000000  0.5128590000000 1.0
C      1  0.4738480000000  0.5664480000000  0.5443310000000 1.0
C      1  0.5128590000000  0.4335540000000  0.5498400000000 1.0
C      1  0.4643540000000  0.4640520000000  0.4766240000000 1.0
C      1  0.4582630000000  0.5359450000000  0.5086750000000 1.0
C      1  0.4766240000000  0.4640540000000  0.5356480000000 1.0
C      1  0.5086750000000  0.5359480000000  0.5417350000000 1.0
C      1  0.5356480000000  0.4640550000000  0.5233780000000 1.0
C      1  0.5417350000000  0.5359470000000  0.4913230000000 1.0
C      1  0.5233780000000  0.4640530000000  0.4643540000000 1.0
C      1  0.4913230000000  0.5359450000000  0.4582630000000 1.0
C      1  0.4352330000000  0.4959850000000  0.5175980000000 1.0
C      1  0.4666460000000  0.5040140000000  0.5582410000000 1.0
C      1  0.5175980000000  0.4959890000000  0.5647670000000 1.0
C      1  0.5582410000000  0.5040160000000  0.5333530000000 1.0
C      1  0.5647670000000  0.4959880000000  0.4824020000000 1.0
C      1  0.5333530000000  0.5040130000000  0.4417590000000 1.0
C      1  0.4824020000000  0.4959840000000  0.4352330000000 1.0
C      1  0.4417590000000  0.5040110000000  0.4666460000000 1.0
C      1  0.5127310000000  0.5462300000000  0.4411010000000 1.0
C      1  0.4673570000000  0.4537670000000  0.4493510000000 1.0
C      1  0.4411010000000  0.5462290000000  0.4872670000000 1.0
C      1  0.4493510000000  0.4537690000000  0.5326460000000 1.0
C      1  0.4872670000000  0.5462320000000  0.5588970000000 1.0
C      1  0.5326460000000  0.4537710000000  0.5506520000000 1.0
C      1  0.5588970000000  0.5462330000000  0.5127310000000 1.0
C      1  0.5506520000000  0.4537700000000  0.4673570000000 1.0
C      1  0.5344920000000  0.4944090000000  0.5203540000000 1.0
C      1  0.5387810000000  0.5055930000000  0.4900030000000 1.0
C      1  0.5203540000000  0.4944070000000  0.4655090000000 1.0
C      1  0.4900030000000  0.5055910000000  0.4612180000000 1.0
C      1  0.4655090000000  0.4944060000000  0.4796460000000 1.0
C      1  0.4612180000000  0.5055920000000  0.5099970000000 1.0
C      1  0.4796460000000  0.4944080000000  0.5344920000000 1.0
C      1  0.5099970000000  0.5055940000000  0.5387810000000 1.0
END
