TITL C-3577080-309-115 -7.13513882988105e-07 125000 -129.424539718552 0 0 22 (D2d) n - 1
REM
REM in /home/bkarasulu/work/CARBON/AIRSS/Generating-Clusters/EDIP-Nigel-Params/with-SteepDescent/Higher-Symm/SD-CG/HFTN-CG
REM
REM
REM
REM
REM
REM ./C.cell (12c818d87b63d06a65506943cc24bca4)
REM
REM compiler GCC version 9.2.1 20190827 (Red Hat 9.2.1-1)
REM options -cpp -mtune=generic -march=x86-64 -g -O0 -fpre-include=/usr/include/finclude/math-vector-fortran.h
REM seed -933897883 524470710 46427056 -2045330886 -659536662 -678751382 823214607 -1193436920 963170479 1830073171 -289011516 -1893446597 -1476645916 -1460397444 1133105935 1216958357 672880174 -1464222712 -823308168 -1154015446 -338038721 1372349946 -356623704 -1631432108 -2066137113 -254088268 1626157195 1915801786 85837866 -15131977 -466918090 2085459381 1132511128
REM
CELL 1.54180   50.00000   50.00000   50.00000   90.00000   90.00000   90.00000
LATT -1
SFAC C  
C      1  0.5351390000000  0.5046930000000  0.4615970000000 1.0
C      1  0.5351390000000  0.4953080000000  0.5384030000000 1.0
C      1  0.4595320000000  0.4953070000000  0.4615970000000 1.0
C      1  0.4595320000000  0.5046920000000  0.5384030000000 1.0
C      1  0.5351390000000  0.4615970000000  0.5046920000000 1.0
C      1  0.5351390000000  0.5384040000000  0.4953070000000 1.0
C      1  0.4595320000000  0.4615960000000  0.4953080000000 1.0
C      1  0.4595320000000  0.5384030000000  0.5046930000000 1.0
C      1  0.5080760000000  0.4893800000000  0.5317190000000 1.0
C      1  0.5080760000000  0.5106200000000  0.4682810000000 1.0
C      1  0.4865940000000  0.5106200000000  0.5317190000000 1.0
C      1  0.4865940000000  0.4893800000000  0.4682810000000 1.0
C      1  0.5080760000000  0.5317190000000  0.4893800000000 1.0
C      1  0.5080760000000  0.4682810000000  0.5106200000000 1.0
C      1  0.4865940000000  0.5317190000000  0.5106200000000 1.0
C      1  0.4865940000000  0.4682810000000  0.4893800000000 1.0
C      1  0.5495690000000  0.5175820000000  0.4824180000000 1.0
C      1  0.4451010000000  0.5175820000000  0.5175820000000 1.0
C      1  0.5495690000000  0.4824180000000  0.5175820000000 1.0
C      1  0.4451010000000  0.4824180000000  0.4824180000000 1.0
C      1  0.4323890000000  0.5000000000000  0.5000000000000 1.0
C      1  0.5622810000000  0.5000000000000  0.5000000000000 1.0
END
