TITL C-3578194-7807-423 -5.43916072538403e-07 125000 -407.414023466147 0 0 65 (C1) n - 1
REM
REM in /home/bkarasulu/work/CARBON/AIRSS/Generating-Clusters/EDIP-Nigel-Params/with-SteepDescent/Higher-Symm/SD-CG/HFTN-CG
REM
REM
REM
REM
REM
REM ./C.cell (12c818d87b63d06a65506943cc24bca4)
REM
REM compiler GCC version 9.2.1 20190827 (Red Hat 9.2.1-1)
REM options -cpp -mtune=generic -march=x86-64 -g -O0 -fpre-include=/usr/include/finclude/math-vector-fortran.h
REM seed 516913410 1723768545 -300359757 2247104 1138052964 1081852267 375845293 -281772608 -1676974302 -2140817613 -954833620 1887696769 643306247 -1656193981 424505654 989008430 859534680 483261349 -971204998 1878805068 -1274460700 -1881451706 -1206619006 966548497 -160795884 -1673173495 1447126891 -739587650 -798080223 -1493493700 -253611712 71708670 279062039
REM
CELL 1.54180   50.00000   50.00000   50.00000   90.00000   90.00000   90.00000
LATT -1
SFAC C  
C      1  0.5619740000000  0.4650350000000  0.5077710000000 1.0
C      1  0.5625200000000  0.4697850000000  0.4792840000000 1.0
C      1  0.5780830000000  0.4911140000000  0.4697990000000 1.0
C      1  0.5665950000000  0.5156960000000  0.4625030000000 1.0
C      1  0.5710680000000  0.5358920000000  0.4812560000000 1.0
C      1  0.5653640000000  0.5422720000000  0.5078760000000 1.0
C      1  0.5765340000000  0.5264300000000  0.5280990000000 1.0
C      1  0.5713600000000  0.5019730000000  0.5409610000000 1.0
C      1  0.5784660000000  0.4803150000000  0.5245510000000 1.0
C      1  0.4536880000000  0.5244260000000  0.4329490000000 1.0
C      1  0.4584710000000  0.5529080000000  0.4688210000000 1.0
C      1  0.4553350000000  0.5670220000000  0.5128000000000 1.0
C      1  0.4532820000000  0.5443110000000  0.5538210000000 1.0
C      1  0.4511780000000  0.5011380000000  0.5731340000000 1.0
C      1  0.4523760000000  0.4569780000000  0.5548100000000 1.0
C      1  0.4546170000000  0.4378210000000  0.5117640000000 1.0
C      1  0.4554490000000  0.4456140000000  0.4670810000000 1.0
C      1  0.4524880000000  0.4770960000000  0.4319030000000 1.0
C      1  0.4968810000000  0.4458630000000  0.5367980000000 1.0
C      1  0.5005230000000  0.4416750000000  0.4884130000000 1.0
C      1  0.4990460000000  0.4529510000000  0.4400650000000 1.0
C      1  0.4967320000000  0.5005480000000  0.4263230000000 1.0
C      1  0.5013650000000  0.5464750000000  0.4421110000000 1.0
C      1  0.5028790000000  0.5698000000000  0.4872130000000 1.0
C      1  0.4974890000000  0.5540780000000  0.5322670000000 1.0
C      1  0.4961420000000  0.5194260000000  0.5663620000000 1.0
C      1  0.4974720000000  0.4749160000000  0.5774720000000 1.0
C      1  0.4327670000000  0.4856010000000  0.4537360000000 1.0
C      1  0.4327930000000  0.5163090000000  0.4541070000000 1.0
C      1  0.4379010000000  0.5347000000000  0.4793570000000 1.0
C      1  0.4348540000000  0.5440180000000  0.5090710000000 1.0
C      1  0.4385150000000  0.5275940000000  0.5342640000000 1.0
C      1  0.4327950000000  0.5014190000000  0.5484130000000 1.0
C      1  0.4338780000000  0.4726700000000  0.5366100000000 1.0
C      1  0.4371970000000  0.4618590000000  0.5081500000000 1.0
C      1  0.4366380000000  0.4661290000000  0.4779920000000 1.0
C      1  0.4678240000000  0.5260710000000  0.5732430000000 1.0
C      1  0.4683520000000  0.4773510000000  0.5691870000000 1.0
C      1  0.4685410000000  0.4382570000000  0.5381030000000 1.0
C      1  0.4720880000000  0.4330660000000  0.4879240000000 1.0
C      1  0.4701490000000  0.4576280000000  0.4452310000000 1.0
C      1  0.4672200000000  0.5008090000000  0.4209620000000 1.0
C      1  0.4728440000000  0.5405860000000  0.4478310000000 1.0
C      1  0.4738220000000  0.5632890000000  0.4901580000000 1.0
C      1  0.4702660000000  0.5640600000000  0.5385760000000 1.0
C      1  0.5402840000000  0.5120810000000  0.4461100000000 1.0
C      1  0.5282720000000  0.5273060000000  0.4801400000000 1.0
C      1  0.5359810000000  0.5389240000000  0.5095430000000 1.0
C      1  0.5302020000000  0.5214900000000  0.5350610000000 1.0
C      1  0.5424660000000  0.4989670000000  0.5531630000000 1.0
C      1  0.5356470000000  0.4689980000000  0.5473800000000 1.0
C      1  0.5364730000000  0.4599840000000  0.5198980000000 1.0
C      1  0.5383600000000  0.4654450000000  0.4637800000000 1.0
C      1  0.5376790000000  0.4819910000000  0.4400630000000 1.0
C      1  0.5158040000000  0.4462830000000  0.4638910000000 1.0
C      1  0.5121890000000  0.4758020000000  0.4259370000000 1.0
C      1  0.5150660000000  0.5235070000000  0.4295540000000 1.0
C      1  0.5174710000000  0.5534760000000  0.4664250000000 1.0
C      1  0.5169800000000  0.5639170000000  0.5125670000000 1.0
C      1  0.5107250000000  0.5363500000000  0.5495800000000 1.0
C      1  0.5137980000000  0.4992430000000  0.5772920000000 1.0
C      1  0.5116710000000  0.4566740000000  0.5594020000000 1.0
C      1  0.5139650000000  0.4422770000000  0.5138500000000 1.0
C      1  0.4859400000000  0.4998680000000  0.4970320000000 1.0
C      1  0.5070840000000  0.5092810000000  0.4860070000000 1.0
END
