TITL C-3577082-504-132 1.11711615045507e-06 125000 -883.907146058135 0 0 141 (C1) n - 1
REM
REM in /home/bkarasulu/work/CARBON/AIRSS/Generating-Clusters/EDIP-Nigel-Params/with-SteepDescent/Higher-Symm/SD-CG/HFTN-CG
REM
REM
REM
REM
REM
REM ./C.cell (12c818d87b63d06a65506943cc24bca4)
REM
REM compiler GCC version 9.2.1 20190827 (Red Hat 9.2.1-1)
REM options -cpp -mtune=generic -march=x86-64 -g -O0 -fpre-include=/usr/include/finclude/math-vector-fortran.h
REM seed -548921490 1773665090 -300046806 -1599965854 1179559375 1798770781 -649445795 1439332501 171827729 1010602680 169975132 -1927161687 1644392762 -739139624 -1990326108 -897169553 308131464 490168914 2031147482 1600890315 -1432960240 -1011098301 1968791025 1897442086 -1600346747 1030326451 -1559170475 -2043864363 -345849940 481918501 1532798288 598678667 482193415
REM
CELL 1.54180   50.00000   50.00000   50.00000   90.00000   90.00000   90.00000
LATT -1
SFAC C  
C      1  0.5474940000000  0.5380650000000  0.4188170000000 1.0
C      1  0.4677870000000  0.5337490000000  0.5480070000000 1.0
C      1  0.5223450000000  0.4235390000000  0.4609980000000 1.0
C      1  0.5555230000000  0.4159130000000  0.4974440000000 1.0
C      1  0.5611700000000  0.4292760000000  0.4376690000000 1.0
C      1  0.4099350000000  0.5537550000000  0.4774530000000 1.0
C      1  0.4691730000000  0.4197360000000  0.4455230000000 1.0
C      1  0.5562400000000  0.4519900000000  0.5818120000000 1.0
C      1  0.5365400000000  0.4031440000000  0.4786680000000 1.0
C      1  0.4862570000000  0.5529180000000  0.4790130000000 1.0
C      1  0.4300660000000  0.5501660000000  0.5212610000000 1.0
C      1  0.4300440000000  0.5142700000000  0.5608310000000 1.0
C      1  0.5265870000000  0.5634130000000  0.5105140000000 1.0
C      1  0.4236190000000  0.5045710000000  0.4478080000000 1.0
C      1  0.5393980000000  0.4764590000000  0.5771860000000 1.0
C      1  0.5740140000000  0.5188580000000  0.4672030000000 1.0
C      1  0.4478770000000  0.4948970000000  0.4643140000000 1.0
C      1  0.4565680000000  0.5659920000000  0.4482230000000 1.0
C      1  0.5231440000000  0.5983500000000  0.4937200000000 1.0
C      1  0.5639560000000  0.5837340000000  0.5210320000000 1.0
C      1  0.4649980000000  0.5891990000000  0.4882650000000 1.0
C      1  0.5391850000000  0.4943750000000  0.4029410000000 1.0
C      1  0.5744460000000  0.4445660000000  0.4573190000000 1.0
C      1  0.5236390000000  0.4692810000000  0.5519750000000 1.0
C      1  0.5691620000000  0.4992040000000  0.4040160000000 1.0
C      1  0.4851560000000  0.5231210000000  0.5966480000000 1.0
C      1  0.5136060000000  0.5177660000000  0.6002820000000 1.0
C      1  0.5607020000000  0.5626580000000  0.4819030000000 1.0
C      1  0.4444420000000  0.4504280000000  0.4966280000000 1.0
C      1  0.5441380000000  0.4270040000000  0.5725430000000 1.0
C      1  0.4681260000000  0.4494790000000  0.5635430000000 1.0
C      1  0.4888740000000  0.4763250000000  0.6002020000000 1.0
C      1  0.5174930000000  0.4874090000000  0.5985870000000 1.0
C      1  0.5847370000000  0.4563090000000  0.5057370000000 1.0
C      1  0.5686760000000  0.4738880000000  0.4534830000000 1.0
C      1  0.4994240000000  0.5351410000000  0.4210400000000 1.0
C      1  0.4443140000000  0.4494520000000  0.4166310000000 1.0
C      1  0.4632330000000  0.4827520000000  0.5246630000000 1.0
C      1  0.4784860000000  0.5891380000000  0.5619980000000 1.0
C      1  0.4227710000000  0.4386810000000  0.4326760000000 1.0
C      1  0.4704470000000  0.4648800000000  0.5036000000000 1.0
C      1  0.4697450000000  0.4062600000000  0.5025820000000 1.0
C      1  0.5395710000000  0.4666240000000  0.4104190000000 1.0
C      1  0.5412850000000  0.4194420000000  0.5229820000000 1.0
C      1  0.5682770000000  0.5439260000000  0.5524220000000 1.0
C      1  0.5203650000000  0.4476130000000  0.4185830000000 1.0
C      1  0.5351580000000  0.4748570000000  0.5208030000000 1.0
C      1  0.3964660000000  0.5093340000000  0.4749320000000 1.0
C      1  0.4409080000000  0.5779750000000  0.5316130000000 1.0
C      1  0.5852010000000  0.4940020000000  0.5676900000000 1.0
C      1  0.5140390000000  0.5980790000000  0.5221950000000 1.0
C      1  0.5332080000000  0.5777400000000  0.5565100000000 1.0
C      1  0.4872290000000  0.5952500000000  0.5335610000000 1.0
C      1  0.5735790000000  0.4905440000000  0.4801880000000 1.0
C      1  0.4522640000000  0.5150990000000  0.4897040000000 1.0
C      1  0.5199830000000  0.5632390000000  0.5771810000000 1.0
C      1  0.5391800000000  0.4736530000000  0.4484140000000 1.0
C      1  0.5823260000000  0.5417170000000  0.4854800000000 1.0
C      1  0.4824460000000  0.5806480000000  0.4446170000000 1.0
C      1  0.4027580000000  0.5446030000000  0.5063750000000 1.0
C      1  0.4500620000000  0.5785270000000  0.5604870000000 1.0
C      1  0.5881420000000  0.5161490000000  0.4401700000000 1.0
C      1  0.5456430000000  0.5620090000000  0.4352890000000 1.0
C      1  0.4864810000000  0.5450500000000  0.5288330000000 1.0
C      1  0.4502630000000  0.4785690000000  0.4120690000000 1.0
C      1  0.4930990000000  0.4145790000000  0.4611500000000 1.0
C      1  0.5587370000000  0.5707810000000  0.5455830000000 1.0
C      1  0.5152900000000  0.3907290000000  0.4958560000000 1.0
C      1  0.5020550000000  0.5645870000000  0.4285490000000 1.0
C      1  0.5557260000000  0.5899380000000  0.4945040000000 1.0
C      1  0.4643390000000  0.5885620000000  0.5169720000000 1.0
C      1  0.4910360000000  0.5909490000000  0.4733500000000 1.0
C      1  0.4088920000000  0.4956150000000  0.5529280000000 1.0
C      1  0.4976850000000  0.4865080000000  0.4873030000000 1.0
C      1  0.5746870000000  0.5274840000000  0.4149460000000 1.0
C      1  0.4435890000000  0.5729290000000  0.4742570000000 1.0
C      1  0.4737130000000  0.5246320000000  0.4323470000000 1.0
C      1  0.4887180000000  0.3951580000000  0.4826210000000 1.0
C      1  0.5255180000000  0.5166660000000  0.4209210000000 1.0
C      1  0.5713270000000  0.5149310000000  0.5275330000000 1.0
C      1  0.5155200000000  0.4049570000000  0.5222840000000 1.0
C      1  0.4700150000000  0.4361610000000  0.4220300000000 1.0
C      1  0.5314020000000  0.4524150000000  0.4721550000000 1.0
C      1  0.5664120000000  0.4415310000000  0.4865430000000 1.0
C      1  0.5121320000000  0.5045870000000  0.5308930000000 1.0
C      1  0.4892780000000  0.4213230000000  0.5214670000000 1.0
C      1  0.4813370000000  0.4511570000000  0.5892510000000 1.0
C      1  0.5300090000000  0.5252220000000  0.5403390000000 1.0
C      1  0.4686390000000  0.4986100000000  0.5975800000000 1.0
C      1  0.5757630000000  0.4645660000000  0.5323210000000 1.0
C      1  0.4425660000000  0.4183230000000  0.4585910000000 1.0
C      1  0.4349620000000  0.5038960000000  0.4189270000000 1.0
C      1  0.4223520000000  0.4519360000000  0.5172510000000 1.0
C      1  0.4507110000000  0.4933790000000  0.5727480000000 1.0
C      1  0.4784880000000  0.4278250000000  0.5473080000000 1.0
C      1  0.5154020000000  0.5504840000000  0.5358790000000 1.0
C      1  0.4941100000000  0.4476490000000  0.5085800000000 1.0
C      1  0.4925410000000  0.5715290000000  0.5827700000000 1.0
C      1  0.4261950000000  0.4401790000000  0.5420750000000 1.0
C      1  0.4381830000000  0.4473450000000  0.5660420000000 1.0
C      1  0.3960020000000  0.5155120000000  0.5034910000000 1.0
C      1  0.5334360000000  0.4254570000000  0.4334860000000 1.0
C      1  0.4532060000000  0.5503380000000  0.5716850000000 1.0
C      1  0.4071900000000  0.4936290000000  0.5224530000000 1.0
C      1  0.4917380000000  0.4543900000000  0.4170810000000 1.0
C      1  0.4713870000000  0.4786250000000  0.5522990000000 1.0
C      1  0.5840210000000  0.4873210000000  0.4306340000000 1.0
C      1  0.5582850000000  0.4993390000000  0.5732180000000 1.0
C      1  0.3998710000000  0.4676320000000  0.5134990000000 1.0
C      1  0.5969920000000  0.4785160000000  0.4926900000000 1.0
C      1  0.4514950000000  0.5261490000000  0.4135680000000 1.0
C      1  0.5428340000000  0.5222510000000  0.4664660000000 1.0
C      1  0.4676290000000  0.5404780000000  0.4561620000000 1.0
C      1  0.5338230000000  0.5176230000000  0.4939430000000 1.0
C      1  0.4201000000000  0.4499230000000  0.4580500000000 1.0
C      1  0.4282230000000  0.4729480000000  0.5755350000000 1.0
C      1  0.5524590000000  0.4992360000000  0.5074480000000 1.0
C      1  0.5396320000000  0.5522570000000  0.4635950000000 1.0
C      1  0.4059990000000  0.5310250000000  0.4582420000000 1.0
C      1  0.5478780000000  0.5257330000000  0.5643290000000 1.0
C      1  0.4421260000000  0.5254940000000  0.5363700000000 1.0
C      1  0.5746220000000  0.4440370000000  0.5552810000000 1.0
C      1  0.4848460000000  0.5324910000000  0.5019920000000 1.0
C      1  0.4745490000000  0.4966030000000  0.4438830000000 1.0
C      1  0.5315170000000  0.5375930000000  0.5864160000000 1.0
C      1  0.5260670000000  0.5786160000000  0.4245380000000 1.0
C      1  0.5166690000000  0.4637590000000  0.4972160000000 1.0
C      1  0.5265080000000  0.5023500000000  0.4487020000000 1.0
C      1  0.5880620000000  0.5316140000000  0.5108430000000 1.0
C      1  0.4795480000000  0.4798700000000  0.4102560000000 1.0
C      1  0.5164470000000  0.5567960000000  0.4822110000000 1.0
C      1  0.4390050000000  0.4660180000000  0.4721820000000 1.0
C      1  0.4995950000000  0.4937500000000  0.4590260000000 1.0
C      1  0.4444370000000  0.5464870000000  0.4933670000000 1.0
C      1  0.4739560000000  0.5504270000000  0.5931970000000 1.0
C      1  0.5059930000000  0.5108740000000  0.5018930000000 1.0
C      1  0.5568720000000  0.4193180000000  0.5474090000000 1.0
C      1  0.4445210000000  0.5029620000000  0.5161970000000 1.0
C      1  0.4999390000000  0.4876650000000  0.5535020000000 1.0
C      1  0.5859730000000  0.4913010000000  0.5398950000000 1.0
C      1  0.4477480000000  0.4217060000000  0.4886220000000 1.0
END
