TITL C-3578196-9646-65 -2.22390775257496e-07 125000 -273.793436071791 0 0 45 (C1) n - 1
REM
REM in /home/bkarasulu/work/CARBON/AIRSS/Generating-Clusters/EDIP-Nigel-Params/with-SteepDescent/Higher-Symm/SD-CG/HFTN-CG
REM
REM
REM
REM
REM
REM ./C.cell (12c818d87b63d06a65506943cc24bca4)
REM
REM compiler GCC version 9.2.1 20190827 (Red Hat 9.2.1-1)
REM options -cpp -mtune=generic -march=x86-64 -g -O0 -fpre-include=/usr/include/finclude/math-vector-fortran.h
REM seed 1222545410 220139317 626949751 -166152345 -1268978718 -1741197846 1102866068 -1239930159 698645095 317870259 -1225136412 -391427966 1402808018 -1463039536 -1658675013 -1826271952 -1175383739 -397266714 -493676438 586310060 -1253073649 1212110139 973990516 1574293064 1163230973 1216028319 660935470 1865436781 2124304236 2105034842 -857931150 -1159701554 1509532602
REM
CELL 1.54180   50.00000   50.00000   50.00000   90.00000   90.00000   90.00000
LATT -1
SFAC C  
C      1  0.5342970000000  0.4540260000000  0.4939590000000 1.0
C      1  0.5365570000000  0.5341290000000  0.4505070000000 1.0
C      1  0.5424250000000  0.5266740000000  0.4787940000000 1.0
C      1  0.5397470000000  0.5494600000000  0.4960100000000 1.0
C      1  0.5197620000000  0.4975460000000  0.5174040000000 1.0
C      1  0.4679800000000  0.5456270000000  0.5191140000000 1.0
C      1  0.4732780000000  0.4623190000000  0.5180780000000 1.0
C      1  0.4411610000000  0.5016140000000  0.4499960000000 1.0
C      1  0.5331950000000  0.5119310000000  0.4340240000000 1.0
C      1  0.4582450000000  0.4868160000000  0.5201450000000 1.0
C      1  0.5123410000000  0.4935000000000  0.4330510000000 1.0
C      1  0.5449320000000  0.5061410000000  0.5341140000000 1.0
C      1  0.4952330000000  0.4517330000000  0.4528830000000 1.0
C      1  0.4647380000000  0.5165490000000  0.4465520000000 1.0
C      1  0.4872430000000  0.4970390000000  0.5709200000000 1.0
C      1  0.4821900000000  0.5052890000000  0.5178130000000 1.0
C      1  0.4322180000000  0.5208360000000  0.4966910000000 1.0
C      1  0.5142360000000  0.4605320000000  0.5506410000000 1.0
C      1  0.4846960000000  0.5219570000000  0.5586020000000 1.0
C      1  0.5041260000000  0.4684750000000  0.5229780000000 1.0
C      1  0.4973500000000  0.5468270000000  0.5201490000000 1.0
C      1  0.4718540000000  0.5362550000000  0.4685900000000 1.0
C      1  0.4858930000000  0.5033350000000  0.4335540000000 1.0
C      1  0.5337070000000  0.5256060000000  0.5522640000000 1.0
C      1  0.4657510000000  0.4539860000000  0.4909410000000 1.0
C      1  0.4884760000000  0.4400330000000  0.4783380000000 1.0
C      1  0.5172030000000  0.4700940000000  0.4501200000000 1.0
C      1  0.5099610000000  0.4805210000000  0.5729440000000 1.0
C      1  0.5097800000000  0.4402920000000  0.4977200000000 1.0
C      1  0.4572400000000  0.5336440000000  0.4945540000000 1.0
C      1  0.5534630000000  0.4859130000000  0.5546010000000 1.0
C      1  0.5117560000000  0.5533330000000  0.4959940000000 1.0
C      1  0.4487640000000  0.4831570000000  0.4710820000000 1.0
C      1  0.4992360000000  0.5478880000000  0.4703640000000 1.0
C      1  0.5154580000000  0.5527530000000  0.4480480000000 1.0
C      1  0.4916440000000  0.5072840000000  0.4860930000000 1.0
C      1  0.5437860000000  0.4594970000000  0.5448600000000 1.0
C      1  0.5331840000000  0.4763960000000  0.4745250000000 1.0
C      1  0.5349410000000  0.4955140000000  0.5757170000000 1.0
C      1  0.5069950000000  0.5313130000000  0.5431570000000 1.0
C      1  0.4390390000000  0.4933490000000  0.4977750000000 1.0
C      1  0.5243800000000  0.5026970000000  0.4868410000000 1.0
C      1  0.4624010000000  0.5284010000000  0.5419220000000 1.0
C      1  0.4799660000000  0.4826410000000  0.4702210000000 1.0
C      1  0.5491730000000  0.4570790000000  0.5173520000000 1.0
END
