TITL C-3577084-3642-306 -2.03968443056002e-06 125000 -399.245017837687 0 0 66 (C1) n - 1
REM
REM in /home/bkarasulu/work/CARBON/AIRSS/Generating-Clusters/EDIP-Nigel-Params/with-SteepDescent/Higher-Symm/SD-CG/HFTN-CG
REM
REM
REM
REM
REM
REM ./C.cell (12c818d87b63d06a65506943cc24bca4)
REM
REM compiler GCC version 9.2.1 20190827 (Red Hat 9.2.1-1)
REM options -cpp -mtune=generic -march=x86-64 -g -O0 -fpre-include=/usr/include/finclude/math-vector-fortran.h
REM seed 440582726 -1983474419 -1690548451 2065912062 325617730 1949334469 -725304379 919972323 331877948 -1165018234 367041131 -1355748281 -1875161210 40850869 -639732566 1030439087 -508001870 1164884456 -469285639 -1238577210 -126006979 -331798291 -1416329960 706803514 -982642985 1303955526 -1429379993 1174433034 -1303785158 957926436 1684906479 -897713990 40127755
REM
CELL 1.54180   50.00000   50.00000   50.00000   90.00000   90.00000   90.00000
LATT -1
SFAC C  
C      1  0.4671110000000  0.5090560000000  0.4236320000000 1.0
C      1  0.5238240000000  0.4965790000000  0.5460430000000 1.0
C      1  0.4507400000000  0.4523590000000  0.4979340000000 1.0
C      1  0.5175900000000  0.5734220000000  0.4848700000000 1.0
C      1  0.3970520000000  0.5383430000000  0.5134330000000 1.0
C      1  0.4025010000000  0.5407010000000  0.4871760000000 1.0
C      1  0.4782280000000  0.5334950000000  0.4240340000000 1.0
C      1  0.5050560000000  0.5287090000000  0.5087390000000 1.0
C      1  0.4689420000000  0.5690120000000  0.5404300000000 1.0
C      1  0.5493250000000  0.4909640000000  0.5274090000000 1.0
C      1  0.4992790000000  0.4569020000000  0.5583540000000 1.0
C      1  0.4794010000000  0.4855760000000  0.4318410000000 1.0
C      1  0.5820560000000  0.5388130000000  0.4878860000000 1.0
C      1  0.4887220000000  0.4252410000000  0.5108920000000 1.0
C      1  0.5623710000000  0.4647040000000  0.5339760000000 1.0
C      1  0.4681390000000  0.4447360000000  0.5200720000000 1.0
C      1  0.5256770000000  0.4273850000000  0.4862030000000 1.0
C      1  0.4740030000000  0.4626430000000  0.5432410000000 1.0
C      1  0.5555240000000  0.5109260000000  0.4557140000000 1.0
C      1  0.5227330000000  0.5455810000000  0.4399190000000 1.0
C      1  0.4429350000000  0.5310940000000  0.5561520000000 1.0
C      1  0.5097540000000  0.5722980000000  0.5119920000000 1.0
C      1  0.5771920000000  0.5260020000000  0.4646860000000 1.0
C      1  0.4225890000000  0.4826290000000  0.4734590000000 1.0
C      1  0.4967480000000  0.5340210000000  0.4452750000000 1.0
C      1  0.4614830000000  0.5063910000000  0.4913490000000 1.0
C      1  0.5601370000000  0.5252830000000  0.5411610000000 1.0
C      1  0.4556970000000  0.4471590000000  0.4500460000000 1.0
C      1  0.4465590000000  0.4368820000000  0.4741460000000 1.0
C      1  0.4736120000000  0.4938530000000  0.5419220000000 1.0
C      1  0.4855040000000  0.5019280000000  0.5694340000000 1.0
C      1  0.4693350000000  0.4720180000000  0.4570100000000 1.0
C      1  0.4431750000000  0.5191750000000  0.5099220000000 1.0
C      1  0.5568850000000  0.5458850000000  0.4988130000000 1.0
C      1  0.4902280000000  0.5305540000000  0.5611970000000 1.0
C      1  0.4840910000000  0.5782490000000  0.5203730000000 1.0
C      1  0.5279880000000  0.5634860000000  0.4615140000000 1.0
C      1  0.5471210000000  0.4489780000000  0.5512710000000 1.0
C      1  0.5171560000000  0.5415840000000  0.5574000000000 1.0
C      1  0.5026500000000  0.5087410000000  0.4617570000000 1.0
C      1  0.5009170000000  0.5005810000000  0.5238220000000 1.0
C      1  0.5334890000000  0.5073800000000  0.4759800000000 1.0
C      1  0.5568500000000  0.4636370000000  0.4897170000000 1.0
C      1  0.5404530000000  0.4480380000000  0.4714560000000 1.0
C      1  0.4494370000000  0.4915300000000  0.4696120000000 1.0
C      1  0.5249040000000  0.5539630000000  0.5308500000000 1.0
C      1  0.4152260000000  0.5198250000000  0.5017490000000 1.0
C      1  0.5374510000000  0.4850360000000  0.4984700000000 1.0
C      1  0.4952750000000  0.4632220000000  0.4777980000000 1.0
C      1  0.5396750000000  0.5218070000000  0.4342350000000 1.0
C      1  0.4664490000000  0.5463830000000  0.5563390000000 1.0
C      1  0.5151190000000  0.4246320000000  0.5232350000000 1.0
C      1  0.5229980000000  0.4869570000000  0.4377730000000 1.0
C      1  0.5091470000000  0.4826550000000  0.5695550000000 1.0
C      1  0.4868480000000  0.5193070000000  0.4858550000000 1.0
C      1  0.5200620000000  0.4674470000000  0.4612450000000 1.0
C      1  0.5370580000000  0.5202970000000  0.5581720000000 1.0
C      1  0.4479790000000  0.5107200000000  0.5373010000000 1.0
C      1  0.4970600000000  0.4326370000000  0.4834620000000 1.0
C      1  0.5546320000000  0.5502640000000  0.5272130000000 1.0
C      1  0.5207820000000  0.4414370000000  0.5457000000000 1.0
C      1  0.4246670000000  0.4628780000000  0.4927960000000 1.0
C      1  0.5034680000000  0.4797060000000  0.4184980000000 1.0
C      1  0.5705440000000  0.4510080000000  0.5108080000000 1.0
C      1  0.5078070000000  0.4781770000000  0.5027550000000 1.0
C      1  0.5325920000000  0.5291160000000  0.4949230000000 1.0
END
