TITL C-3577076-40-448 1.142110178397e-06 125000 -1035.09126806213 0 0 166 (C1) n - 1
REM
REM in /home/bkarasulu/work/CARBON/AIRSS/Generating-Clusters/EDIP-Nigel-Params/with-SteepDescent/Higher-Symm/SD-CG/HFTN-CG
REM
REM
REM
REM
REM
REM ./C.cell (12c818d87b63d06a65506943cc24bca4)
REM
REM compiler GCC version 9.2.1 20190827 (Red Hat 9.2.1-1)
REM options -cpp -mtune=generic -march=x86-64 -g -O0 -fpre-include=/usr/include/finclude/math-vector-fortran.h
REM seed 1048336844 2065342028 -265433905 1253845112 -611790619 271935670 57444317 174111503 -1680554087 -1761463001 2135708915 867743680 -710204072 -1916883758 1773880260 98408916 -1860825282 -261327939 -1612259558 2077927505 1587231240 -2101100054 -1092134796 -1687875244 -823933911 799587943 -127475445 1825222450 230861942 832832985 -753096735 -1948929761 290616343
REM
CELL 1.54180   50.00000   50.00000   50.00000   90.00000   90.00000   90.00000
LATT -1
SFAC C  
C      1  0.4557390000000  0.5591030000000  0.4857680000000 1.0
C      1  0.4475440000000  0.4573940000000  0.4807940000000 1.0
C      1  0.5459840000000  0.4546930000000  0.4817870000000 1.0
C      1  0.5510780000000  0.5334170000000  0.4801260000000 1.0
C      1  0.4590570000000  0.5738390000000  0.5136320000000 1.0
C      1  0.4483140000000  0.4585240000000  0.5184790000000 1.0
C      1  0.5442230000000  0.4557960000000  0.5138660000000 1.0
C      1  0.5516760000000  0.5356700000000  0.5194210000000 1.0
C      1  0.4485560000000  0.4675970000000  0.4223600000000 1.0
C      1  0.5326490000000  0.4402120000000  0.4137100000000 1.0
C      1  0.5528170000000  0.5266710000000  0.4212560000000 1.0
C      1  0.4681400000000  0.5588370000000  0.4177160000000 1.0
C      1  0.4488940000000  0.4677540000000  0.5774470000000 1.0
C      1  0.5322460000000  0.4378630000000  0.5840550000000 1.0
C      1  0.5503450000000  0.5264680000000  0.5780630000000 1.0
C      1  0.4666780000000  0.5639610000000  0.5830710000000 1.0
C      1  0.5115080000000  0.4196610000000  0.4182050000000 1.0
C      1  0.5771490000000  0.5099750000000  0.4172170000000 1.0
C      1  0.4886330000000  0.5798120000000  0.4238580000000 1.0
C      1  0.4258850000000  0.4876040000000  0.4242150000000 1.0
C      1  0.5121010000000  0.4162380000000  0.5810260000000 1.0
C      1  0.5742490000000  0.5093040000000  0.5822810000000 1.0
C      1  0.4907240000000  0.5826950000000  0.5787530000000 1.0
C      1  0.4258540000000  0.4870500000000  0.5797510000000 1.0
C      1  0.4460170000000  0.5283940000000  0.4919440000000 1.0
C      1  0.4747350000000  0.4400440000000  0.4784280000000 1.0
C      1  0.5627250000000  0.4828100000000  0.4815950000000 1.0
C      1  0.5290150000000  0.5534930000000  0.4854100000000 1.0
C      1  0.4393320000000  0.5205320000000  0.5216280000000 1.0
C      1  0.4749400000000  0.4418670000000  0.5111780000000 1.0
C      1  0.5625810000000  0.4832030000000  0.5151520000000 1.0
C      1  0.5283680000000  0.5552770000000  0.5165340000000 1.0
C      1  0.4682010000000  0.4256660000000  0.5670410000000 1.0
C      1  0.5662860000000  0.4690660000000  0.5643320000000 1.0
C      1  0.5379130000000  0.5743660000000  0.5702860000000 1.0
C      1  0.4238940000000  0.5342010000000  0.5702720000000 1.0
C      1  0.4696790000000  0.4295980000000  0.4358740000000 1.0
C      1  0.5758230000000  0.4648540000000  0.4299140000000 1.0
C      1  0.5347420000000  0.5722840000000  0.4345570000000 1.0
C      1  0.4260300000000  0.5326430000000  0.4342740000000 1.0
C      1  0.4138080000000  0.5561920000000  0.5154880000000 1.0
C      1  0.4396230000000  0.4153420000000  0.5150440000000 1.0
C      1  0.5856400000000  0.4394750000000  0.5151840000000 1.0
C      1  0.5671310000000  0.5770000000000  0.5166640000000 1.0
C      1  0.4113840000000  0.5587990000000  0.4854750000000 1.0
C      1  0.4397380000000  0.4139470000000  0.4845860000000 1.0
C      1  0.5873410000000  0.4389260000000  0.4848560000000 1.0
C      1  0.5668430000000  0.5761570000000  0.4856360000000 1.0
C      1  0.4872350000000  0.4347600000000  0.4134910000000 1.0
C      1  0.5664940000000  0.4837580000000  0.4085790000000 1.0
C      1  0.5143560000000  0.5683530000000  0.4136800000000 1.0
C      1  0.4365490000000  0.5134390000000  0.4149650000000 1.0
C      1  0.4871450000000  0.4295540000000  0.5887130000000 1.0
C      1  0.5609340000000  0.4839390000000  0.5883190000000 1.0
C      1  0.5156740000000  0.5696400000000  0.5896620000000 1.0
C      1  0.4348580000000  0.5138490000000  0.5885260000000 1.0
C      1  0.5965300000000  0.4653710000000  0.4752550000000 1.0
C      1  0.5412220000000  0.5896370000000  0.4794850000000 1.0
C      1  0.4100550000000  0.5306080000000  0.4789030000000 1.0
C      1  0.4664200000000  0.4034070000000  0.4764350000000 1.0
C      1  0.5952950000000  0.4658770000000  0.5244210000000 1.0
C      1  0.5420060000000  0.5904950000000  0.5238380000000 1.0
C      1  0.4023710000000  0.5316050000000  0.5258640000000 1.0
C      1  0.4664290000000  0.4061560000000  0.5226990000000 1.0
C      1  0.4053810000000  0.4561990000000  0.4649850000000 1.0
C      1  0.5364390000000  0.4099490000000  0.4673970000000 1.0
C      1  0.5948490000000  0.5312870000000  0.4612310000000 1.0
C      1  0.4445400000000  0.5992920000000  0.4646850000000 1.0
C      1  0.4085490000000  0.4652690000000  0.5368620000000 1.0
C      1  0.5359710000000  0.4105090000000  0.5308360000000 1.0
C      1  0.5948500000000  0.5318670000000  0.5396820000000 1.0
C      1  0.4830180000000  0.6098500000000  0.5370580000000 1.0
C      1  0.4602090000000  0.5356720000000  0.5425520000000 1.0
C      1  0.4675890000000  0.4757950000000  0.5558330000000 1.0
C      1  0.5236780000000  0.4616780000000  0.5548930000000 1.0
C      1  0.5307490000000  0.5132030000000  0.5571160000000 1.0
C      1  0.4678630000000  0.5418820000000  0.4446820000000 1.0
C      1  0.4681370000000  0.4728330000000  0.4451230000000 1.0
C      1  0.5331580000000  0.4602120000000  0.4391250000000 1.0
C      1  0.5335300000000  0.5115600000000  0.4407190000000 1.0
C      1  0.4982500000000  0.5410000000000  0.5150130000000 1.0
C      1  0.4779860000000  0.4931240000000  0.5125590000000 1.0
C      1  0.4941740000000  0.4662300000000  0.5081170000000 1.0
C      1  0.5217170000000  0.5009650000000  0.5126830000000 1.0
C      1  0.4998300000000  0.5422800000000  0.4834960000000 1.0
C      1  0.4678500000000  0.5052800000000  0.4855650000000 1.0
C      1  0.5000380000000  0.4695710000000  0.4751920000000 1.0
C      1  0.5163320000000  0.4977830000000  0.4833610000000 1.0
C      1  0.5083460000000  0.5275470000000  0.4352800000000 1.0
C      1  0.4816280000000  0.5136910000000  0.4336770000000 1.0
C      1  0.4925930000000  0.4856960000000  0.4358090000000 1.0
C      1  0.5238760000000  0.4862470000000  0.4288870000000 1.0
C      1  0.5074100000000  0.5327750000000  0.5614600000000 1.0
C      1  0.4801330000000  0.5209000000000  0.5625810000000 1.0
C      1  0.4870760000000  0.4922880000000  0.5689970000000 1.0
C      1  0.5178530000000  0.4878100000000  0.5683500000000 1.0
C      1  0.5094060000000  0.4160820000000  0.5191690000000 1.0
C      1  0.5966580000000  0.5096900000000  0.5206680000000 1.0
C      1  0.4704680000000  0.6018370000000  0.5138860000000 1.0
C      1  0.4151880000000  0.4900080000000  0.5198680000000 1.0
C      1  0.5093080000000  0.4150610000000  0.4802220000000 1.0
C      1  0.5973980000000  0.5089850000000  0.4800230000000 1.0
C      1  0.4720310000000  0.6056270000000  0.4649410000000 1.0
C      1  0.4107850000000  0.4815830000000  0.4764250000000 1.0
C      1  0.4055530000000  0.4893660000000  0.5579250000000 1.0
C      1  0.5079910000000  0.4016830000000  0.5551180000000 1.0
C      1  0.5947240000000  0.5063360000000  0.5597870000000 1.0
C      1  0.4996800000000  0.5952680000000  0.5535630000000 1.0
C      1  0.4060740000000  0.4914150000000  0.4478830000000 1.0
C      1  0.5083850000000  0.4029200000000  0.4431210000000 1.0
C      1  0.5962150000000  0.5067830000000  0.4405230000000 1.0
C      1  0.4914020000000  0.5846910000000  0.4541170000000 1.0
C      1  0.5891400000000  0.4777370000000  0.5500000000000 1.0
C      1  0.5283100000000  0.5915230000000  0.5490770000000 1.0
C      1  0.4068300000000  0.5196610000000  0.5514000000000 1.0
C      1  0.4782660000000  0.4060010000000  0.5486870000000 1.0
C      1  0.5922380000000  0.4776880000000  0.4494380000000 1.0
C      1  0.5230560000000  0.5865570000000  0.4572710000000 1.0
C      1  0.4068080000000  0.5213550000000  0.4521450000000 1.0
C      1  0.4783960000000  0.4064910000000  0.4502350000000 1.0
C      1  0.5606480000000  0.4305360000000  0.4672750000000 1.0
C      1  0.5706230000000  0.5495050000000  0.4636330000000 1.0
C      1  0.4341530000000  0.5722410000000  0.4674000000000 1.0
C      1  0.4294540000000  0.4388880000000  0.4640170000000 1.0
C      1  0.5570090000000  0.4326580000000  0.5306920000000 1.0
C      1  0.5710860000000  0.5506850000000  0.5374760000000 1.0
C      1  0.4345400000000  0.5705460000000  0.5315190000000 1.0
C      1  0.4297570000000  0.4416920000000  0.5369080000000 1.0
C      1  0.4428660000000  0.4401340000000  0.5650680000000 1.0
C      1  0.5566920000000  0.4420500000000  0.5614890000000 1.0
C      1  0.5576580000000  0.5530920000000  0.5652330000000 1.0
C      1  0.4433940000000  0.5549480000000  0.5596250000000 1.0
C      1  0.4418900000000  0.4386840000000  0.4355600000000 1.0
C      1  0.5644190000000  0.4379800000000  0.4358280000000 1.0
C      1  0.5574730000000  0.5532150000000  0.4361040000000 1.0
C      1  0.4347340000000  0.5605350000000  0.4377260000000 1.0
C      1  0.4763130000000  0.5550510000000  0.5275170000000 1.0
C      1  0.4566800000000  0.4842360000000  0.5307400000000 1.0
C      1  0.5179230000000  0.4589590000000  0.5258350000000 1.0
C      1  0.5444210000000  0.5084540000000  0.5287120000000 1.0
C      1  0.4802560000000  0.5583100000000  0.4677040000000 1.0
C      1  0.4546450000000  0.4838050000000  0.4685940000000 1.0
C      1  0.5220330000000  0.4544630000000  0.4655220000000 1.0
C      1  0.5424060000000  0.5061670000000  0.4699280000000 1.0
C      1  0.4919170000000  0.4551550000000  0.6028640000000 1.0
C      1  0.5316680000000  0.4881260000000  0.5960750000000 1.0
C      1  0.5079400000000  0.5407630000000  0.5910280000000 1.0
C      1  0.4633590000000  0.5146520000000  0.5974330000000 1.0
C      1  0.4938890000000  0.4623090000000  0.4043610000000 1.0
C      1  0.5365130000000  0.4885970000000  0.4002290000000 1.0
C      1  0.5091950000000  0.5391400000000  0.4076980000000 1.0
C      1  0.4661280000000  0.5106840000000  0.4064010000000 1.0
C      1  0.5213980000000  0.4599010000000  0.6034820000000 1.0
C      1  0.5299640000000  0.5220920000000  0.6028870000000 1.0
C      1  0.4775870000000  0.5414820000000  0.6005350000000 1.0
C      1  0.4704580000000  0.4764160000000  0.6000870000000 1.0
C      1  0.5225340000000  0.4617070000000  0.3920160000000 1.0
C      1  0.5333410000000  0.5229360000000  0.3957510000000 1.0
C      1  0.4794190000000  0.5378880000000  0.3966150000000 1.0
C      1  0.4685490000000  0.4791170000000  0.3996080000000 1.0
C      1  0.3964390000000  0.4916040000000  0.4982420000000 1.0
C      1  0.5029080000000  0.3950070000000  0.5001500000000 1.0
C      1  0.6165800000000  0.5118150000000  0.5006440000000 1.0
C      1  0.4788140000000  0.6134900000000  0.4903330000000 1.0
C      1  0.4948670000000  0.5153090000000  0.4757240000000 1.0
C      1  0.4981280000000  0.5122200000000  0.5235830000000 1.0
END
