TITL C-3578200-9634-363 -4.68809499399842e-06 125000 -374.525261222977 0 0 63 (C1) n - 1
REM
REM in /home/bkarasulu/work/CARBON/AIRSS/Generating-Clusters/EDIP-Nigel-Params/with-SteepDescent/Higher-Symm/SD-CG/HFTN-CG
REM
REM
REM
REM
REM
REM ./C.cell (12c818d87b63d06a65506943cc24bca4)
REM
REM compiler GCC version 9.2.1 20190827 (Red Hat 9.2.1-1)
REM options -cpp -mtune=generic -march=x86-64 -g -O0 -fpre-include=/usr/include/finclude/math-vector-fortran.h
REM seed -1983709970 1093268563 -519048596 -1340336391 -1157251043 -1545899661 1353339828 2141858928 -861374166 1133946440 980815481 1198963721 947593363 61149196 64849280 -220736473 -1511689552 1205248957 -1485568911 -111351302 -1687207401 -480740824 -364469913 299969612 -38564855 -890750206 1784183821 1828409545 -1308467817 -680152101 1696965303 1822835808 613507427
REM
CELL 1.54180   50.00000   50.00000   50.00000   90.00000   90.00000   90.00000
LATT -1
SFAC C  
C      1  0.5255070000000  0.4870740000000  0.5631300000000 1.0
C      1  0.5103470000000  0.4671630000000  0.5505540000000 1.0
C      1  0.4835740000000  0.4616770000000  0.5608480000000 1.0
C      1  0.4600780000000  0.4783600000000  0.5540530000000 1.0
C      1  0.4656850000000  0.5068060000000  0.5516180000000 1.0
C      1  0.4870250000000  0.5191100000000  0.5653250000000 1.0
C      1  0.5029610000000  0.5396770000000  0.5546010000000 1.0
C      1  0.5317350000000  0.5351740000000  0.5500580000000 1.0
C      1  0.5421650000000  0.5088170000000  0.5582860000000 1.0
C      1  0.5033200000000  0.5740340000000  0.5100470000000 1.0
C      1  0.5621570000000  0.5568930000000  0.5079390000000 1.0
C      1  0.5852940000000  0.5042900000000  0.5100190000000 1.0
C      1  0.5654860000000  0.4453450000000  0.5027850000000 1.0
C      1  0.5178290000000  0.4377990000000  0.5013010000000 1.0
C      1  0.4696230000000  0.4295190000000  0.5064460000000 1.0
C      1  0.4243850000000  0.4715250000000  0.5099740000000 1.0
C      1  0.4204500000000  0.5225180000000  0.5053560000000 1.0
C      1  0.4539990000000  0.5618550000000  0.5035430000000 1.0
C      1  0.4898980000000  0.4293910000000  0.4625630000000 1.0
C      1  0.4535940000000  0.4560780000000  0.4658300000000 1.0
C      1  0.4306200000000  0.4943820000000  0.4678940000000 1.0
C      1  0.4394480000000  0.5406930000000  0.4612830000000 1.0
C      1  0.4829980000000  0.5661560000000  0.4651090000000 1.0
C      1  0.5275170000000  0.5567160000000  0.4695170000000 1.0
C      1  0.5613970000000  0.5235800000000  0.4707040000000 1.0
C      1  0.5663940000000  0.4754910000000  0.4705690000000 1.0
C      1  0.5417310000000  0.4374930000000  0.4599770000000 1.0
C      1  0.4608950000000  0.5500230000000  0.5301000000000 1.0
C      1  0.4911750000000  0.5493630000000  0.5285270000000 1.0
C      1  0.5370220000000  0.5482150000000  0.5216700000000 1.0
C      1  0.5606500000000  0.5119070000000  0.5256580000000 1.0
C      1  0.5495320000000  0.4617900000000  0.5218840000000 1.0
C      1  0.5251160000000  0.4480880000000  0.5329900000000 1.0
C      1  0.4783750000000  0.4527970000000  0.5235800000000 1.0
C      1  0.4442000000000  0.4672380000000  0.5313180000000 1.0
C      1  0.4499900000000  0.5219920000000  0.5308660000000 1.0
C      1  0.4325250000000  0.5454180000000  0.4882180000000 1.0
C      1  0.4789890000000  0.5757980000000  0.4914310000000 1.0
C      1  0.5305960000000  0.5739870000000  0.4937750000000 1.0
C      1  0.5762840000000  0.5356550000000  0.4928140000000 1.0
C      1  0.5825780000000  0.4787830000000  0.4947010000000 1.0
C      1  0.5441710000000  0.4312240000000  0.4874450000000 1.0
C      1  0.4933940000000  0.4225370000000  0.4899320000000 1.0
C      1  0.4470830000000  0.4459030000000  0.4929200000000 1.0
C      1  0.4167820000000  0.4947720000000  0.4926970000000 1.0
C      1  0.5430630000000  0.4836590000000  0.4546370000000 1.0
C      1  0.5272080000000  0.4592950000000  0.4490960000000 1.0
C      1  0.4973660000000  0.4564900000000  0.4551280000000 1.0
C      1  0.4720370000000  0.4743960000000  0.4518560000000 1.0
C      1  0.4555920000000  0.4990290000000  0.4556010000000 1.0
C      1  0.4600620000000  0.5265120000000  0.4483940000000 1.0
C      1  0.4870330000000  0.5401940000000  0.4530100000000 1.0
C      1  0.5168440000000  0.5334410000000  0.4557460000000 1.0
C      1  0.5377050000000  0.5126460000000  0.4579460000000 1.0
C      1  0.5427180000000  0.5086940000000  0.5016130000000 1.0
C      1  0.5387340000000  0.4786890000000  0.4979840000000 1.0
C      1  0.5118880000000  0.4657500000000  0.4899730000000 1.0
C      1  0.4901750000000  0.4749700000000  0.5069090000000 1.0
C      1  0.4641440000000  0.4806040000000  0.4944990000000 1.0
C      1  0.4567190000000  0.5105610000000  0.5005060000000 1.0
C      1  0.4747270000000  0.5324260000000  0.4892720000000 1.0
C      1  0.4963590000000  0.5278040000000  0.5087810000000 1.0
C      1  0.5230550000000  0.5317370000000  0.4991920000000 1.0
END
