TITL C-3578201-9217-539 -4.04278021859142e-07 125000 -40.2751400152366 0 0 8 (C2h) n - 1
REM
REM in /home/bkarasulu/work/CARBON/AIRSS/Generating-Clusters/EDIP-Nigel-Params/with-SteepDescent/Higher-Symm/SD-CG/HFTN-CG
REM
REM
REM
REM
REM
REM ./C.cell (12c818d87b63d06a65506943cc24bca4)
REM
REM compiler GCC version 9.2.1 20190827 (Red Hat 9.2.1-1)
REM options -cpp -mtune=generic -march=x86-64 -g -O0 -fpre-include=/usr/include/finclude/math-vector-fortran.h
REM seed -807543638 -1985512365 1314261631 333412766 1782467629 -2039168925 795655284 136229497 -1153329151 469105082 1894593092 -2008645010 -67994189 840728173 -1720214026 857105564 -1960002743 -241812209 1006946687 -563722430 701220086 -356967565 -1730702312 920488790 -1781308675 -135463348 -1565611892 593643974 -1275699566 -249166648 -1245584248 -271655632 -1869239953
REM
CELL 1.54180   50.00000   50.00000   50.00000   90.00000   90.00000   90.00000
LATT -1
SFAC C  
C      1  0.4883670000000  0.5108430000000  0.4880330000000 1.0
C      1  0.5203900000000  0.5136780000000  0.5229230000000 1.0
C      1  0.4854230000000  0.4841750000000  0.4846460000000 1.0
C      1  0.5174460000000  0.4870100000000  0.5195360000000 1.0
C      1  0.5024780000000  0.5530440000000  0.5036850000000 1.0
C      1  0.5021250000000  0.4711770000000  0.5027450000000 1.0
C      1  0.5033350000000  0.4448080000000  0.5038840000000 1.0
C      1  0.5036880000000  0.5266750000000  0.5048230000000 1.0
END
