TITL C-3578195-8548-207 7.37826320296057e-07 125000 -755.305760330871 0 0 120 (C1) n - 1
REM
REM in /home/bkarasulu/work/CARBON/AIRSS/Generating-Clusters/EDIP-Nigel-Params/with-SteepDescent/Higher-Symm/SD-CG/HFTN-CG
REM
REM
REM
REM
REM
REM ./C.cell (12c818d87b63d06a65506943cc24bca4)
REM
REM compiler GCC version 9.2.1 20190827 (Red Hat 9.2.1-1)
REM options -cpp -mtune=generic -march=x86-64 -g -O0 -fpre-include=/usr/include/finclude/math-vector-fortran.h
REM seed -1866768305 1159071698 1282063507 -1225332376 -1448956860 1177708208 -1911498238 1408396165 -1156651576 -8802081 40023787 -1973675513 1843435406 705765065 770936987 2004403519 -1380592980 -1876994114 1882613868 719029342 1582242198 1202440665 -1592872768 1926698706 1508071822 -1179487816 1741620552 336038298 876219401 -1131623598 -1528234642 -1771204086 930333188
REM
CELL 1.54180   50.00000   50.00000   50.00000   90.00000   90.00000   90.00000
LATT -1
SFAC C  
C      1  0.4408320000000  0.5150440000000  0.5717030000000 1.0
C      1  0.4378550000000  0.5540580000000  0.4508100000000 1.0
C      1  0.4405720000000  0.4299300000000  0.4763520000000 1.0
C      1  0.4406590000000  0.4858700000000  0.5719590000000 1.0
C      1  0.4406820000000  0.4444460000000  0.4510320000000 1.0
C      1  0.4392370000000  0.5690440000000  0.4755640000000 1.0
C      1  0.5634250000000  0.5551250000000  0.4965150000000 1.0
C      1  0.5635330000000  0.4676830000000  0.4533560000000 1.0
C      1  0.5627770000000  0.4739030000000  0.5510120000000 1.0
C      1  0.5626220000000  0.4424170000000  0.4972890000000 1.0
C      1  0.5642220000000  0.5289350000000  0.4530920000000 1.0
C      1  0.5632530000000  0.5246650000000  0.5505220000000 1.0
C      1  0.4348830000000  0.5254920000000  0.5437030000000 1.0
C      1  0.4330800000000  0.5245950000000  0.4561900000000 1.0
C      1  0.4347680000000  0.4488280000000  0.4997850000000 1.0
C      1  0.4348970000000  0.4747990000000  0.5440710000000 1.0
C      1  0.4343900000000  0.4737650000000  0.4559770000000 1.0
C      1  0.4339920000000  0.5505710000000  0.4992460000000 1.0
C      1  0.5240270000000  0.6095360000000  0.5439400000000 1.0
C      1  0.5261440000000  0.4954230000000  0.3878420000000 1.0
C      1  0.5224160000000  0.4028300000000  0.5715950000000 1.0
C      1  0.5225930000000  0.3895010000000  0.5485260000000 1.0
C      1  0.5262550000000  0.5221890000000  0.3886410000000 1.0
C      1  0.5239880000000  0.5970740000000  0.5674970000000 1.0
C      1  0.4625530000000  0.5292300000000  0.4192880000000 1.0
C      1  0.4656060000000  0.4153700000000  0.5147210000000 1.0
C      1  0.4661090000000  0.5554990000000  0.5645890000000 1.0
C      1  0.4657290000000  0.4712330000000  0.4193620000000 1.0
C      1  0.4658550000000  0.5834530000000  0.5123160000000 1.0
C      1  0.4654930000000  0.4450870000000  0.5660490000000 1.0
C      1  0.5429990000000  0.5144810000000  0.5723930000000 1.0
C      1  0.5452930000000  0.5535410000000  0.4505420000000 1.0
C      1  0.5424930000000  0.4297020000000  0.4763520000000 1.0
C      1  0.5427890000000  0.4853670000000  0.5727160000000 1.0
C      1  0.5426890000000  0.4444870000000  0.4512220000000 1.0
C      1  0.5443300000000  0.5685930000000  0.4752210000000 1.0
C      1  0.4656020000000  0.5296060000000  0.5805980000000 1.0
C      1  0.4599650000000  0.5564420000000  0.4309920000000 1.0
C      1  0.4653440000000  0.4149810000000  0.4842220000000 1.0
C      1  0.4652210000000  0.4713920000000  0.5813990000000 1.0
C      1  0.4655280000000  0.4443320000000  0.4337820000000 1.0
C      1  0.4647340000000  0.5833700000000  0.4819280000000 1.0
C      1  0.5153690000000  0.5526250000000  0.4458790000000 1.0
C      1  0.5158880000000  0.4196860000000  0.4865290000000 1.0
C      1  0.5164390000000  0.5288400000000  0.5757890000000 1.0
C      1  0.5161750000000  0.4495140000000  0.4372370000000 1.0
C      1  0.5157300000000  0.5779690000000  0.4826190000000 1.0
C      1  0.5160610000000  0.4716000000000  0.5765980000000 1.0
C      1  0.4572850000000  0.5148900000000  0.5253450000000 1.0
C      1  0.4561550000000  0.5145350000000  0.4738150000000 1.0
C      1  0.4571940000000  0.4700080000000  0.4997580000000 1.0
C      1  0.4572930000000  0.4851400000000  0.5255640000000 1.0
C      1  0.4569110000000  0.4847050000000  0.4739330000000 1.0
C      1  0.4566290000000  0.5295820000000  0.4993230000000 1.0
C      1  0.5900250000000  0.5547070000000  0.4843260000000 1.0
C      1  0.5891370000000  0.4556790000000  0.4595740000000 1.0
C      1  0.5889840000000  0.4846880000000  0.5575880000000 1.0
C      1  0.5888910000000  0.4416380000000  0.4847250000000 1.0
C      1  0.5904480000000  0.5396320000000  0.4597170000000 1.0
C      1  0.5891680000000  0.5135190000000  0.5574080000000 1.0
C      1  0.5565580000000  0.4851250000000  0.5247890000000 1.0
C      1  0.5565590000000  0.5269490000000  0.4999680000000 1.0
C      1  0.5573450000000  0.4845910000000  0.4762450000000 1.0
C      1  0.5568410000000  0.5130180000000  0.5245370000000 1.0
C      1  0.5566760000000  0.4708140000000  0.5004140000000 1.0
C      1  0.5567420000000  0.5126770000000  0.4759730000000 1.0
C      1  0.5786100000000  0.4492560000000  0.5462090000000 1.0
C      1  0.5794280000000  0.5632960000000  0.5203210000000 1.0
C      1  0.5794400000000  0.4834670000000  0.4343380000000 1.0
C      1  0.5792570000000  0.5490000000000  0.5455640000000 1.0
C      1  0.5785000000000  0.4344880000000  0.5211840000000 1.0
C      1  0.5800400000000  0.5123590000000  0.4344000000000 1.0
C      1  0.4403710000000  0.4845830000000  0.4284020000000 1.0
C      1  0.4412490000000  0.4454830000000  0.5484810000000 1.0
C      1  0.4411950000000  0.5693050000000  0.5219280000000 1.0
C      1  0.4388880000000  0.5137710000000  0.4286060000000 1.0
C      1  0.4414530000000  0.5549350000000  0.5475650000000 1.0
C      1  0.4412560000000  0.4306300000000  0.5231190000000 1.0
C      1  0.4090160000000  0.4842260000000  0.5270250000000 1.0
C      1  0.4081450000000  0.5304130000000  0.5000430000000 1.0
C      1  0.4083200000000  0.4836540000000  0.4734580000000 1.0
C      1  0.4088140000000  0.5152090000000  0.5268820000000 1.0
C      1  0.4088220000000  0.4684510000000  0.5003070000000 1.0
C      1  0.4077620000000  0.5146110000000  0.4733590000000 1.0
C      1  0.5208900000000  0.4518080000000  0.4084260000000 1.0
C      1  0.5203460000000  0.4467690000000  0.5913420000000 1.0
C      1  0.5197780000000  0.6035890000000  0.4961830000000 1.0
C      1  0.5101130000000  0.5607050000000  0.4166720000000 1.0
C      1  0.5209810000000  0.5542270000000  0.5894870000000 1.0
C      1  0.5202010000000  0.3944380000000  0.5005670000000 1.0
C      1  0.4926640000000  0.4225400000000  0.5267890000000 1.0
C      1  0.4932220000000  0.5616590000000  0.5518960000000 1.0
C      1  0.4906910000000  0.5180340000000  0.4228850000000 1.0
C      1  0.4930230000000  0.5765130000000  0.5239830000000 1.0
C      1  0.4926220000000  0.4382600000000  0.5539790000000 1.0
C      1  0.4923730000000  0.4865500000000  0.4213790000000 1.0
C      1  0.5095880000000  0.6011350000000  0.5220210000000 1.0
C      1  0.5103290000000  0.4764030000000  0.4000780000000 1.0
C      1  0.5090060000000  0.4265060000000  0.5759070000000 1.0
C      1  0.5091150000000  0.3977230000000  0.5259410000000 1.0
C      1  0.5057300000000  0.5347620000000  0.4026080000000 1.0
C      1  0.5099510000000  0.5740670000000  0.5732140000000 1.0
C      1  0.4915680000000  0.4322900000000  0.4433330000000 1.0
C      1  0.4912190000000  0.4859330000000  0.5870500000000 1.0
C      1  0.4894880000000  0.5813540000000  0.4645100000000 1.0
C      1  0.4849120000000  0.5739230000000  0.4342560000000 1.0
C      1  0.4914380000000  0.5150800000000  0.5867510000000 1.0
C      1  0.4912560000000  0.4177980000000  0.4687380000000 1.0
C      1  0.5005640000000  0.5138280000000  0.4756250000000 1.0
C      1  0.5015130000000  0.4692280000000  0.5012280000000 1.0
C      1  0.5016320000000  0.5149830000000  0.5265990000000 1.0
C      1  0.5013000000000  0.4846250000000  0.4748190000000 1.0
C      1  0.5010010000000  0.5293230000000  0.5010670000000 1.0
C      1  0.5016040000000  0.4841230000000  0.5266930000000 1.0
C      1  0.5072280000000  0.5351430000000  0.5481630000000 1.0
C      1  0.5036840000000  0.5260660000000  0.4492250000000 1.0
C      1  0.5068510000000  0.4400040000000  0.5065870000000 1.0
C      1  0.5068720000000  0.4645270000000  0.5490750000000 1.0
C      1  0.5064220000000  0.4762850000000  0.4463600000000 1.0
C      1  0.5063220000000  0.5586380000000  0.5038060000000 1.0
END
