TITL C-3577079-311-169 -2.71335825409797e-06 125000 -262.86351544912 0 0 44 (C1) n - 1
REM
REM in /home/bkarasulu/work/CARBON/AIRSS/Generating-Clusters/EDIP-Nigel-Params/with-SteepDescent/Higher-Symm/SD-CG/HFTN-CG
REM
REM
REM
REM
REM
REM ./C.cell (12c818d87b63d06a65506943cc24bca4)
REM
REM compiler GCC version 9.2.1 20190827 (Red Hat 9.2.1-1)
REM options -cpp -mtune=generic -march=x86-64 -g -O0 -fpre-include=/usr/include/finclude/math-vector-fortran.h
REM seed 4138749 -564946743 1155293998 2055989393 -178349192 151267694 -426965073 -183622905 1171193663 -1993305849 -1941865770 1675388086 483819502 165413257 888430742 -105594726 -1640505895 2057588957 -497086239 -1265983078 577749497 1396004240 -1124247680 -2071574405 -1645782625 -1238805776 -1053790538 387035633 770204181 1918590726 35704831 -145416870 961163138
REM
CELL 1.54180   50.00000   50.00000   50.00000   90.00000   90.00000   90.00000
LATT -1
SFAC C  
C      1  0.5049060000000  0.4964530000000  0.5127450000000 1.0
C      1  0.5608940000000  0.5086010000000  0.5020620000000 1.0
C      1  0.4779910000000  0.5468130000000  0.5262770000000 1.0
C      1  0.5447480000000  0.4826030000000  0.5367470000000 1.0
C      1  0.5646630000000  0.5028910000000  0.5301160000000 1.0
C      1  0.4668380000000  0.4426450000000  0.4728600000000 1.0
C      1  0.5562200000000  0.4816830000000  0.4611640000000 1.0
C      1  0.4939860000000  0.4447250000000  0.4654400000000 1.0
C      1  0.4756550000000  0.5345990000000  0.5014130000000 1.0
C      1  0.4290120000000  0.5217000000000  0.5080440000000 1.0
C      1  0.4706740000000  0.4414170000000  0.5230660000000 1.0
C      1  0.4439580000000  0.5009450000000  0.5466470000000 1.0
C      1  0.5066060000000  0.5140370000000  0.4687700000000 1.0
C      1  0.5548660000000  0.5386490000000  0.4659830000000 1.0
C      1  0.4588090000000  0.4892160000000  0.5239010000000 1.0
C      1  0.5079740000000  0.4693400000000  0.4624290000000 1.0
C      1  0.5003030000000  0.5589850000000  0.4644300000000 1.0
C      1  0.4545220000000  0.4928650000000  0.4768000000000 1.0
C      1  0.5109910000000  0.5210040000000  0.5544960000000 1.0
C      1  0.5147250000000  0.4458290000000  0.5186110000000 1.0
C      1  0.4929170000000  0.4560180000000  0.5370600000000 1.0
C      1  0.4257490000000  0.5186250000000  0.5349470000000 1.0
C      1  0.5143840000000  0.4899890000000  0.4842440000000 1.0
C      1  0.5018210000000  0.5384050000000  0.4852290000000 1.0
C      1  0.5255030000000  0.4729150000000  0.4399010000000 1.0
C      1  0.5384790000000  0.5324820000000  0.4444930000000 1.0
C      1  0.4623710000000  0.5100960000000  0.5658080000000 1.0
C      1  0.4867890000000  0.4851520000000  0.5332910000000 1.0
C      1  0.4881160000000  0.5013510000000  0.5583570000000 1.0
C      1  0.5261750000000  0.5079030000000  0.5298680000000 1.0
C      1  0.5238770000000  0.5507710000000  0.5322720000000 1.0
C      1  0.5260690000000  0.5436320000000  0.5041760000000 1.0
C      1  0.4505210000000  0.4619800000000  0.5139070000000 1.0
C      1  0.4909140000000  0.4311870000000  0.5010950000000 1.0
C      1  0.5157680000000  0.5493500000000  0.4437450000000 1.0
C      1  0.5398740000000  0.4619220000000  0.5162020000000 1.0
C      1  0.4601170000000  0.5011840000000  0.4506830000000 1.0
C      1  0.4983980000000  0.5481570000000  0.5453200000000 1.0
C      1  0.4856840000000  0.5098210000000  0.4503480000000 1.0
C      1  0.5530940000000  0.5362320000000  0.4938670000000 1.0
C      1  0.5432710000000  0.4963880000000  0.4392610000000 1.0
C      1  0.4514340000000  0.4643290000000  0.4844360000000 1.0
C      1  0.4551800000000  0.5108680000000  0.5011420000000 1.0
C      1  0.5451510000000  0.4862450000000  0.4883470000000 1.0
END
