TITL C-3577084-3642-418 -9.44792825865201e-09 125000 -692.505768010218 0 0 110 (C1) n - 1
REM
REM in /home/bkarasulu/work/CARBON/AIRSS/Generating-Clusters/EDIP-Nigel-Params/with-SteepDescent/Higher-Symm/SD-CG/HFTN-CG
REM
REM
REM
REM
REM
REM ./C.cell (12c818d87b63d06a65506943cc24bca4)
REM
REM compiler GCC version 9.2.1 20190827 (Red Hat 9.2.1-1)
REM options -cpp -mtune=generic -march=x86-64 -g -O0 -fpre-include=/usr/include/finclude/math-vector-fortran.h
REM seed 1016466008 -1342790537 828082654 -284413038 756870515 -347838679 1786834323 -515596096 -246943149 660591255 1104142715 960466016 -1146145619 1233243911 1842501275 -311444462 -1615776954 834788980 139847239 -1266991753 -1310477522 2095297050 -816837404 665995401 -472131393 -1751330731 1398389757 -864504845 1877286189 1343276587 1123868520 1535471813 -938649518
REM
CELL 1.54180   50.00000   50.00000   50.00000   90.00000   90.00000   90.00000
LATT -1
SFAC C  
C      1  0.5169650000000  0.5275610000000  0.4321940000000 1.0
C      1  0.4304020000000  0.5248270000000  0.5185700000000 1.0
C      1  0.5536880000000  0.5275740000000  0.5489830000000 1.0
C      1  0.5173260000000  0.4703170000000  0.4286510000000 1.0
C      1  0.4305670000000  0.4731760000000  0.5201230000000 1.0
C      1  0.5521330000000  0.4720790000000  0.5503250000000 1.0
C      1  0.5666760000000  0.5145610000000  0.4404040000000 1.0
C      1  0.4131650000000  0.5132720000000  0.4715810000000 1.0
C      1  0.5206300000000  0.5181420000000  0.5864240000000 1.0
C      1  0.5657570000000  0.4836650000000  0.4389070000000 1.0
C      1  0.4141170000000  0.4820730000000  0.4730120000000 1.0
C      1  0.5202170000000  0.4872400000000  0.5880780000000 1.0
C      1  0.5262110000000  0.4115470000000  0.4908670000000 1.0
C      1  0.4797220000000  0.4122820000000  0.4758750000000 1.0
C      1  0.4922350000000  0.4178090000000  0.5238150000000 1.0
C      1  0.5401030000000  0.5921340000000  0.5012100000000 1.0
C      1  0.4895440000000  0.5732990000000  0.4897670000000 1.0
C      1  0.4810020000000  0.5934170000000  0.5328280000000 1.0
C      1  0.5381460000000  0.4243280000000  0.5393420000000 1.0
C      1  0.5149720000000  0.4224280000000  0.4433040000000 1.0
C      1  0.4449850000000  0.4249810000000  0.5106470000000 1.0
C      1  0.5421870000000  0.5807650000000  0.5439370000000 1.0
C      1  0.5146780000000  0.5740060000000  0.4536490000000 1.0
C      1  0.4436080000000  0.5753000000000  0.5075870000000 1.0
C      1  0.4438650000000  0.5541670000000  0.4684860000000 1.0
C      1  0.5025440000000  0.5582340000000  0.5588530000000 1.0
C      1  0.5553630000000  0.5547730000000  0.4691310000000 1.0
C      1  0.4394870000000  0.4386930000000  0.4616950000000 1.0
C      1  0.5028910000000  0.4463230000000  0.5640510000000 1.0
C      1  0.5543090000000  0.4424390000000  0.4649690000000 1.0
C      1  0.5017010000000  0.5163990000000  0.5390670000000 1.0
C      1  0.5345130000000  0.5099990000000  0.4785630000000 1.0
C      1  0.4636340000000  0.5134600000000  0.4777620000000 1.0
C      1  0.5017600000000  0.4856820000000  0.5408400000000 1.0
C      1  0.5326270000000  0.4801690000000  0.4782010000000 1.0
C      1  0.4656870000000  0.4742580000000  0.4789820000000 1.0
C      1  0.5304630000000  0.4601850000000  0.5075060000000 1.0
C      1  0.4909490000000  0.4541740000000  0.4670150000000 1.0
C      1  0.4792950000000  0.4697630000000  0.5277940000000 1.0
C      1  0.5321280000000  0.5454530000000  0.5115900000000 1.0
C      1  0.4844800000000  0.5349000000000  0.4689710000000 1.0
C      1  0.4788320000000  0.5303510000000  0.5229720000000 1.0
C      1  0.4549320000000  0.4265280000000  0.4833630000000 1.0
C      1  0.5126100000000  0.4382380000000  0.5354630000000 1.0
C      1  0.5250230000000  0.4337170000000  0.4689110000000 1.0
C      1  0.4630720000000  0.5571260000000  0.4932030000000 1.0
C      1  0.5190830000000  0.5655750000000  0.5327850000000 1.0
C      1  0.5259150000000  0.5542870000000  0.4740690000000 1.0
C      1  0.4515320000000  0.4286720000000  0.4386350000000 1.0
C      1  0.4778620000000  0.4351080000000  0.5677360000000 1.0
C      1  0.5701650000000  0.4310160000000  0.4845530000000 1.0
C      1  0.4551240000000  0.5674280000000  0.4459240000000 1.0
C      1  0.4773990000000  0.5716670000000  0.5530010000000 1.0
C      1  0.5616320000000  0.5735850000000  0.4919310000000 1.0
C      1  0.5490540000000  0.4856800000000  0.5776760000000 1.0
C      1  0.5425930000000  0.4845330000000  0.4191010000000 1.0
C      1  0.4081250000000  0.4834690000000  0.5033130000000 1.0
C      1  0.5499710000000  0.5175210000000  0.5770060000000 1.0
C      1  0.5429820000000  0.5165500000000  0.4206500000000 1.0
C      1  0.4073060000000  0.5145900000000  0.5019190000000 1.0
C      1  0.5806490000000  0.4685430000000  0.5115750000000 1.0
C      1  0.4696840000000  0.4686840000000  0.4221440000000 1.0
C      1  0.4491120000000  0.4716090000000  0.5653790000000 1.0
C      1  0.5823840000000  0.5279280000000  0.5113300000000 1.0
C      1  0.4686510000000  0.5264570000000  0.4227610000000 1.0
C      1  0.4498200000000  0.5299810000000  0.5628120000000 1.0
C      1  0.5631310000000  0.5523570000000  0.5130910000000 1.0
C      1  0.4775730000000  0.5489510000000  0.4404850000000 1.0
C      1  0.4611790000000  0.5485470000000  0.5416960000000 1.0
C      1  0.5601890000000  0.4463300000000  0.5082680000000 1.0
C      1  0.4767710000000  0.4442460000000  0.4386640000000 1.0
C      1  0.4628770000000  0.4513620000000  0.5474070000000 1.0
C      1  0.4291260000000  0.4847910000000  0.5481280000000 1.0
C      1  0.5760400000000  0.4835490000000  0.5363740000000 1.0
C      1  0.4940440000000  0.4834270000000  0.4156530000000 1.0
C      1  0.4293620000000  0.5140660000000  0.5472540000000 1.0
C      1  0.5771690000000  0.5130780000000  0.5361890000000 1.0
C      1  0.4936520000000  0.5118250000000  0.4207600000000 1.0
C      1  0.4931790000000  0.5875110000000  0.4655430000000 1.0
C      1  0.4564690000000  0.5972960000000  0.5194840000000 1.0
C      1  0.5459900000000  0.6025160000000  0.5264530000000 1.0
C      1  0.4901520000000  0.4091630000000  0.4487180000000 1.0
C      1  0.4640010000000  0.4170360000000  0.5299640000000 1.0
C      1  0.5444830000000  0.4113170000000  0.5144790000000 1.0
C      1  0.5555650000000  0.4429160000000  0.5514140000000 1.0
C      1  0.5169300000000  0.4416330000000  0.4227760000000 1.0
C      1  0.4288120000000  0.4447710000000  0.5208890000000 1.0
C      1  0.5628840000000  0.5599250000000  0.5435510000000 1.0
C      1  0.5063140000000  0.5582020000000  0.4301990000000 1.0
C      1  0.4347230000000  0.5554880000000  0.5266660000000 1.0
C      1  0.4591760000000  0.4820610000000  0.5093830000000 1.0
C      1  0.5290340000000  0.4781660000000  0.5310360000000 1.0
C      1  0.5115190000000  0.4738260000000  0.4583980000000 1.0
C      1  0.4584400000000  0.5138320000000  0.5080930000000 1.0
C      1  0.5295480000000  0.5223780000000  0.5296640000000 1.0
C      1  0.5146970000000  0.5275380000000  0.4643100000000 1.0
C      1  0.4400720000000  0.4691600000000  0.4622860000000 1.0
C      1  0.4994760000000  0.4760940000000  0.5696250000000 1.0
C      1  0.5595320000000  0.4718930000000  0.4660950000000 1.0
C      1  0.4396000000000  0.5242210000000  0.4625980000000 1.0
C      1  0.4993250000000  0.5283830000000  0.5670680000000 1.0
C      1  0.5605120000000  0.5236720000000  0.4686160000000 1.0
C      1  0.5818560000000  0.5128520000000  0.4863330000000 1.0
C      1  0.4456910000000  0.5126550000000  0.4349020000000 1.0
C      1  0.4720990000000  0.5169660000000  0.5765680000000 1.0
C      1  0.5806650000000  0.4829180000000  0.4860590000000 1.0
C      1  0.4472200000000  0.4826340000000  0.4354820000000 1.0
C      1  0.4717520000000  0.4870960000000  0.5778990000000 1.0
C      1  0.4985140000000  0.4067810000000  0.4977420000000 1.0
C      1  0.5042160000000  0.5855610000000  0.5139630000000 1.0
END
