TITL C-3577085-527-375 -8.33190076906358e-08 125000 -828.641956669895 0 0 132 (C1) n - 1
REM
REM in /home/bkarasulu/work/CARBON/AIRSS/Generating-Clusters/EDIP-Nigel-Params/with-SteepDescent/Higher-Symm/SD-CG/HFTN-CG
REM
REM
REM
REM
REM
REM ./C.cell (12c818d87b63d06a65506943cc24bca4)
REM
REM compiler GCC version 9.2.1 20190827 (Red Hat 9.2.1-1)
REM options -cpp -mtune=generic -march=x86-64 -g -O0 -fpre-include=/usr/include/finclude/math-vector-fortran.h
REM seed -387170109 -1771479900 -737975526 1862506342 -888348618 -1522372428 -1937549633 422785660 2008440700 604993170 -1377001331 -1035955778 401456131 -2114487004 725170898 -1348967900 -2004780649 1822105851 663481219 -1870146117 214696806 1121331486 118754842 904508970 -2043932219 -1364018437 203304399 1738579361 -1689291741 -87849250 -1338272278 1778890352 1955076109
REM
CELL 1.54180   50.00000   50.00000   50.00000   90.00000   90.00000   90.00000
LATT -1
SFAC C  
C      1  0.5845330000000  0.5423950000000  0.4737280000000 1.0
C      1  0.4221050000000  0.4516390000000  0.4702340000000 1.0
C      1  0.5804630000000  0.5456420000000  0.5268530000000 1.0
C      1  0.4196280000000  0.4535960000000  0.5284540000000 1.0
C      1  0.5972170000000  0.4617790000000  0.4714300000000 1.0
C      1  0.4063030000000  0.5289820000000  0.4709900000000 1.0
C      1  0.5969930000000  0.4650190000000  0.5334690000000 1.0
C      1  0.4048550000000  0.5352900000000  0.5321050000000 1.0
C      1  0.4867850000000  0.4575870000000  0.4031000000000 1.0
C      1  0.5094300000000  0.5571840000000  0.4029050000000 1.0
C      1  0.4855120000000  0.4488060000000  0.5927880000000 1.0
C      1  0.5151520000000  0.5448290000000  0.5961850000000 1.0
C      1  0.4229170000000  0.5384240000000  0.5545660000000 1.0
C      1  0.5805440000000  0.4621880000000  0.5578360000000 1.0
C      1  0.4191940000000  0.5356940000000  0.4449400000000 1.0
C      1  0.5787170000000  0.4615680000000  0.4491050000000 1.0
C      1  0.4616400000000  0.4754730000000  0.4710820000000 1.0
C      1  0.5324970000000  0.5465230000000  0.4750630000000 1.0
C      1  0.4617520000000  0.4738970000000  0.5325440000000 1.0
C      1  0.5347420000000  0.5400820000000  0.5255960000000 1.0
C      1  0.5755590000000  0.5870780000000  0.4967770000000 1.0
C      1  0.4414290000000  0.4100230000000  0.5128480000000 1.0
C      1  0.5573620000000  0.5853050000000  0.4754690000000 1.0
C      1  0.4331450000000  0.4052490000000  0.4864160000000 1.0
C      1  0.4949970000000  0.4215490000000  0.4684050000000 1.0
C      1  0.4828500000000  0.5867380000000  0.4676380000000 1.0
C      1  0.5158480000000  0.4098620000000  0.5342040000000 1.0
C      1  0.5113450000000  0.5824370000000  0.5336110000000 1.0
C      1  0.4983180000000  0.4920820000000  0.4388650000000 1.0
C      1  0.5066100000000  0.5206020000000  0.4327640000000 1.0
C      1  0.4969900000000  0.4803770000000  0.5654280000000 1.0
C      1  0.5024980000000  0.5094000000000  0.5621820000000 1.0
C      1  0.4437750000000  0.4614630000000  0.5147140000000 1.0
C      1  0.5589510000000  0.5304010000000  0.5127710000000 1.0
C      1  0.4393660000000  0.4694110000000  0.4874630000000 1.0
C      1  0.5580200000000  0.5339190000000  0.4844240000000 1.0
C      1  0.5737520000000  0.4879760000000  0.4392530000000 1.0
C      1  0.4274640000000  0.5116770000000  0.4311920000000 1.0
C      1  0.5742030000000  0.4874080000000  0.5716490000000 1.0
C      1  0.4302950000000  0.5129380000000  0.5641960000000 1.0
C      1  0.5139040000000  0.5671620000000  0.4290830000000 1.0
C      1  0.4804990000000  0.4425280000000  0.4268990000000 1.0
C      1  0.5234710000000  0.5552740000000  0.5715120000000 1.0
C      1  0.4834460000000  0.4360200000000  0.5677250000000 1.0
C      1  0.4895930000000  0.5138260000000  0.5282030000000 1.0
C      1  0.5090170000000  0.4692510000000  0.5302370000000 1.0
C      1  0.4888790000000  0.5228420000000  0.4674600000000 1.0
C      1  0.5058840000000  0.4824020000000  0.4711610000000 1.0
C      1  0.5478160000000  0.4940310000000  0.4286740000000 1.0
C      1  0.4539140000000  0.5100570000000  0.4188800000000 1.0
C      1  0.5461140000000  0.4912090000000  0.5807180000000 1.0
C      1  0.4536330000000  0.5099450000000  0.5793980000000 1.0
C      1  0.4546970000000  0.5891810000000  0.4818850000000 1.0
C      1  0.5370820000000  0.4169750000000  0.4919130000000 1.0
C      1  0.4622780000000  0.5815500000000  0.5102200000000 1.0
C      1  0.5428610000000  0.4127180000000  0.5205720000000 1.0
C      1  0.4137030000000  0.4910270000000  0.5558700000000 1.0
C      1  0.5865170000000  0.5100570000000  0.5571900000000 1.0
C      1  0.4131460000000  0.4892900000000  0.4434760000000 1.0
C      1  0.5933140000000  0.5074550000000  0.4478040000000 1.0
C      1  0.6046080000000  0.5239060000000  0.4875560000000 1.0
C      1  0.3956460000000  0.4743330000000  0.4869780000000 1.0
C      1  0.6030130000000  0.5261840000000  0.5171670000000 1.0
C      1  0.3970360000000  0.4725410000000  0.5163300000000 1.0
C      1  0.5561810000000  0.4430190000000  0.4521670000000 1.0
C      1  0.4380810000000  0.5579250000000  0.4456710000000 1.0
C      1  0.5596670000000  0.4415130000000  0.5567000000000 1.0
C      1  0.4442340000000  0.5588390000000  0.5516700000000 1.0
C      1  0.4671880000000  0.5283960000000  0.5139690000000 1.0
C      1  0.5314650000000  0.4791460000000  0.5145150000000 1.0
C      1  0.4641790000000  0.5160660000000  0.4867190000000 1.0
C      1  0.5286410000000  0.4705510000000  0.4873900000000 1.0
C      1  0.4632990000000  0.5581420000000  0.4307240000000 1.0
C      1  0.5306280000000  0.4470910000000  0.4377660000000 1.0
C      1  0.4718790000000  0.5551300000000  0.5630090000000 1.0
C      1  0.5329130000000  0.4455080000000  0.5665540000000 1.0
C      1  0.4705210000000  0.4853880000000  0.4245280000000 1.0
C      1  0.5365590000000  0.5215880000000  0.4315740000000 1.0
C      1  0.4629990000000  0.4827540000000  0.5827460000000 1.0
C      1  0.5316530000000  0.5083270000000  0.5611690000000 1.0
C      1  0.5118430000000  0.5260080000000  0.5132300000000 1.0
C      1  0.4854630000000  0.4837830000000  0.5189900000000 1.0
C      1  0.5118050000000  0.5284500000000  0.4845820000000 1.0
C      1  0.4844000000000  0.4709850000000  0.4880560000000 1.0
C      1  0.4165950000000  0.5529140000000  0.4866050000000 1.0
C      1  0.5843650000000  0.4416150000000  0.4884420000000 1.0
C      1  0.4147380000000  0.5573840000000  0.5151970000000 1.0
C      1  0.5844930000000  0.4438890000000  0.5172580000000 1.0
C      1  0.4028880000000  0.4978070000000  0.4701240000000 1.0
C      1  0.6065890000000  0.4985990000000  0.4725980000000 1.0
C      1  0.3985570000000  0.4979430000000  0.5316830000000 1.0
C      1  0.6032230000000  0.5021870000000  0.5342770000000 1.0
C      1  0.5367530000000  0.5512100000000  0.4441330000000 1.0
C      1  0.4571660000000  0.4650490000000  0.4431400000000 1.0
C      1  0.5409890000000  0.5355380000000  0.5553290000000 1.0
C      1  0.4573750000000  0.4630770000000  0.5606260000000 1.0
C      1  0.4974640000000  0.5240170000000  0.5892250000000 1.0
C      1  0.5037450000000  0.4708320000000  0.5940270000000 1.0
C      1  0.4961030000000  0.5326200000000  0.4076180000000 1.0
C      1  0.5081940000000  0.4758350000000  0.4050700000000 1.0
C      1  0.5178380000000  0.4423670000000  0.4919710000000 1.0
C      1  0.4712110000000  0.5495570000000  0.4730370000000 1.0
C      1  0.5026770000000  0.4423210000000  0.5180670000000 1.0
C      1  0.4744820000000  0.5553380000000  0.5031030000000 1.0
C      1  0.5056350000000  0.5915340000000  0.4868700000000 1.0
C      1  0.5096170000000  0.4000890000000  0.4855490000000 1.0
C      1  0.4925980000000  0.5941580000000  0.5138570000000 1.0
C      1  0.4943600000000  0.4006950000000  0.5123490000000 1.0
C      1  0.5316280000000  0.4705480000000  0.4201830000000 1.0
C      1  0.4673870000000  0.5356730000000  0.4120570000000 1.0
C      1  0.5318440000000  0.4651930000000  0.5881480000000 1.0
C      1  0.4711790000000  0.5332390000000  0.5829130000000 1.0
C      1  0.4214010000000  0.4247390000000  0.5265400000000 1.0
C      1  0.5680320000000  0.5750280000000  0.5210580000000 1.0
C      1  0.4424460000000  0.4277370000000  0.4723590000000 1.0
C      1  0.5641970000000  0.5671250000000  0.4511830000000 1.0
C      1  0.5627000000000  0.4309120000000  0.5309220000000 1.0
C      1  0.4372810000000  0.5738640000000  0.5275750000000 1.0
C      1  0.5615670000000  0.4268680000000  0.4757400000000 1.0
C      1  0.4331550000000  0.5714610000000  0.4707050000000 1.0
C      1  0.5103400000000  0.4282050000000  0.5587220000000 1.0
C      1  0.5002380000000  0.5664460000000  0.5563990000000 1.0
C      1  0.5040230000000  0.4330830000000  0.4417400000000 1.0
C      1  0.4870080000000  0.5730910000000  0.4408230000000 1.0
C      1  0.5316850000000  0.5745760000000  0.4885990000000 1.0
C      1  0.4709050000000  0.4347830000000  0.4833050000000 1.0
C      1  0.5367360000000  0.5703710000000  0.5191120000000 1.0
C      1  0.4705160000000  0.4214760000000  0.5112040000000 1.0
C      1  0.4258190000000  0.4632250000000  0.5564490000000 1.0
C      1  0.5722600000000  0.5364670000000  0.5549360000000 1.0
C      1  0.4263290000000  0.4626660000000  0.4420460000000 1.0
C      1  0.5862430000000  0.5357830000000  0.4452440000000 1.0
END
