TITL C-3578198-8939-51 -1.70551149833585e-06 125000 -869.598198265857 0 0 139 (C1) n - 1
REM
REM in /home/bkarasulu/work/CARBON/AIRSS/Generating-Clusters/EDIP-Nigel-Params/with-SteepDescent/Higher-Symm/SD-CG/HFTN-CG
REM
REM
REM
REM
REM
REM ./C.cell (12c818d87b63d06a65506943cc24bca4)
REM
REM compiler GCC version 9.2.1 20190827 (Red Hat 9.2.1-1)
REM options -cpp -mtune=generic -march=x86-64 -g -O0 -fpre-include=/usr/include/finclude/math-vector-fortran.h
REM seed 1524667164 710346865 1197844767 1761276771 26526989 -174239829 -1510864590 145964205 -8385663 -661393760 294121 -1282834251 -1208592037 573274867 -88252357 -775520526 -1549721198 -5830117 182628100 -1600620505 -1471007120 -310514172 -93577691 143462100 1611174395 1307668981 -1265827162 835407461 876075598 1888564541 -1624202558 -342223219 521739841
REM
CELL 1.54180   50.00000   50.00000   50.00000   90.00000   90.00000   90.00000
LATT -1
SFAC C  
C      1  0.5467150000000  0.4294800000000  0.4992400000000 1.0
C      1  0.4530170000000  0.4371590000000  0.4851250000000 1.0
C      1  0.4184130000000  0.5293210000000  0.4935010000000 1.0
C      1  0.5032420000000  0.5846160000000  0.4917310000000 1.0
C      1  0.5810080000000  0.5266120000000  0.4887750000000 1.0
C      1  0.4128920000000  0.5607960000000  0.5322990000000 1.0
C      1  0.5289300000000  0.5846990000000  0.5354960000000 1.0
C      1  0.5948390000000  0.5082530000000  0.5356490000000 1.0
C      1  0.5247640000000  0.3971000000000  0.5329830000000 1.0
C      1  0.4276840000000  0.4438680000000  0.5285470000000 1.0
C      1  0.4636730000000  0.5452720000000  0.4384340000000 1.0
C      1  0.5255740000000  0.5370690000000  0.4307840000000 1.0
C      1  0.5478980000000  0.4814480000000  0.4369760000000 1.0
C      1  0.4999450000000  0.4491410000000  0.4375220000000 1.0
C      1  0.4506670000000  0.4876320000000  0.4305730000000 1.0
C      1  0.5422850000000  0.4233700000000  0.4517520000000 1.0
C      1  0.4445100000000  0.4400750000000  0.4415580000000 1.0
C      1  0.4151980000000  0.5405060000000  0.4488980000000 1.0
C      1  0.5043110000000  0.5804680000000  0.4446160000000 1.0
C      1  0.5854010000000  0.5153510000000  0.4439620000000 1.0
C      1  0.5703700000000  0.4626310000000  0.4496630000000 1.0
C      1  0.4899720000000  0.4220320000000  0.4478540000000 1.0
C      1  0.4221140000000  0.4902170000000  0.4462120000000 1.0
C      1  0.4573400000000  0.5715840000000  0.4511760000000 1.0
C      1  0.5508720000000  0.5507040000000  0.4444790000000 1.0
C      1  0.4638540000000  0.4559180000000  0.5360820000000 1.0
C      1  0.4393830000000  0.5214510000000  0.5391660000000 1.0
C      1  0.5050400000000  0.5598340000000  0.5524140000000 1.0
C      1  0.5398200000000  0.5241280000000  0.5421280000000 1.0
C      1  0.5315610000000  0.4406840000000  0.5473730000000 1.0
C      1  0.5730300000000  0.4609860000000  0.5164790000000 1.0
C      1  0.4786780000000  0.4181250000000  0.5182920000000 1.0
C      1  0.4127170000000  0.4933570000000  0.5217480000000 1.0
C      1  0.4702670000000  0.5801380000000  0.5226900000000 1.0
C      1  0.5612140000000  0.5428200000000  0.5300880000000 1.0
C      1  0.4209030000000  0.4749140000000  0.4709750000000 1.0
C      1  0.4457270000000  0.5689290000000  0.4772020000000 1.0
C      1  0.5473680000000  0.5706160000000  0.4652330000000 1.0
C      1  0.5832920000000  0.4750030000000  0.4724310000000 1.0
C      1  0.5009250000000  0.4169350000000  0.4745550000000 1.0
C      1  0.4757080000000  0.5242480000000  0.5992890000000 1.0
C      1  0.5641510000000  0.5251910000000  0.5841520000000 1.0
C      1  0.5379030000000  0.4660410000000  0.6045690000000 1.0
C      1  0.5097700000000  0.4651260000000  0.6014930000000 1.0
C      1  0.4698830000000  0.4961290000000  0.5980620000000 1.0
C      1  0.4809740000000  0.5184550000000  0.4028440000000 1.0
C      1  0.5295530000000  0.5199950000000  0.4062890000000 1.0
C      1  0.5346830000000  0.4760140000000  0.4091810000000 1.0
C      1  0.4969890000000  0.4643360000000  0.4106490000000 1.0
C      1  0.4540320000000  0.5055530000000  0.4060700000000 1.0
C      1  0.4739180000000  0.4360920000000  0.5685220000000 1.0
C      1  0.4319470000000  0.5026680000000  0.5650040000000 1.0
C      1  0.4776380000000  0.5636050000000  0.5664070000000 1.0
C      1  0.5806450000000  0.5455920000000  0.5738220000000 1.0
C      1  0.5528990000000  0.4577700000000  0.5598370000000 1.0
C      1  0.4445150000000  0.5129670000000  0.4920120000000 1.0
C      1  0.4963420000000  0.5544650000000  0.4943900000000 1.0
C      1  0.5500600000000  0.5305590000000  0.4826020000000 1.0
C      1  0.5373190000000  0.4581010000000  0.5012780000000 1.0
C      1  0.4840180000000  0.4605940000000  0.4883840000000 1.0
C      1  0.5229210000000  0.5856020000000  0.4671430000000 1.0
C      1  0.5913820000000  0.5033890000000  0.4709920000000 1.0
C      1  0.5298950000000  0.4157630000000  0.4773750000000 1.0
C      1  0.4308820000000  0.4476680000000  0.4678590000000 1.0
C      1  0.4207930000000  0.5536400000000  0.4760680000000 1.0
C      1  0.4960970000000  0.4719210000000  0.4594290000000 1.0
C      1  0.4740910000000  0.4920480000000  0.4496410000000 1.0
C      1  0.4809310000000  0.5200630000000  0.4572310000000 1.0
C      1  0.5110570000000  0.5192740000000  0.4507750000000 1.0
C      1  0.5239130000000  0.4927450000000  0.4584810000000 1.0
C      1  0.4547950000000  0.5899200000000  0.4967440000000 1.0
C      1  0.5696230000000  0.5735340000000  0.4830850000000 1.0
C      1  0.5905620000000  0.4553130000000  0.4935770000000 1.0
C      1  0.4825270000000  0.4015890000000  0.4916490000000 1.0
C      1  0.3997420000000  0.4838490000000  0.4909400000000 1.0
C      1  0.5455470000000  0.5554450000000  0.5067050000000 1.0
C      1  0.5462420000000  0.4865060000000  0.5048480000000 1.0
C      1  0.4967000000000  0.4422360000000  0.5106840000000 1.0
C      1  0.4397180000000  0.4897870000000  0.5083220000000 1.0
C      1  0.4759140000000  0.5519450000000  0.5148670000000 1.0
C      1  0.4129470000000  0.4832770000000  0.5511310000000 1.0
C      1  0.4573600000000  0.5771660000000  0.5498210000000 1.0
C      1  0.5695820000000  0.5609440000000  0.5526370000000 1.0
C      1  0.5773360000000  0.4639280000000  0.5454100000000 1.0
C      1  0.4808310000000  0.4123410000000  0.5489360000000 1.0
C      1  0.4994320000000  0.4439390000000  0.5827320000000 1.0
C      1  0.4548250000000  0.4866350000000  0.5753120000000 1.0
C      1  0.4640190000000  0.5420280000000  0.5804320000000 1.0
C      1  0.5366400000000  0.5278460000000  0.5731920000000 1.0
C      1  0.5457170000000  0.4788130000000  0.5796940000000 1.0
C      1  0.4747150000000  0.5164840000000  0.4892740000000 1.0
C      1  0.5184350000000  0.5384310000000  0.5044590000000 1.0
C      1  0.5358340000000  0.5039380000000  0.4839110000000 1.0
C      1  0.5083310000000  0.4863570000000  0.5281690000000 1.0
C      1  0.4858020000000  0.4880390000000  0.5040450000000 1.0
C      1  0.4476250000000  0.4278600000000  0.5137300000000 1.0
C      1  0.4151300000000  0.5336310000000  0.5238240000000 1.0
C      1  0.5033150000000  0.5918410000000  0.5228170000000 1.0
C      1  0.5843090000000  0.5277210000000  0.5189840000000 1.0
C      1  0.5417410000000  0.4190580000000  0.5279290000000 1.0
C      1  0.4330470000000  0.5242670000000  0.4053530000000 1.0
C      1  0.4809550000000  0.5470190000000  0.4142470000000 1.0
C      1  0.5566070000000  0.5135950000000  0.4021520000000 1.0
C      1  0.5375550000000  0.4475380000000  0.4075090000000 1.0
C      1  0.4722880000000  0.4547170000000  0.4007720000000 1.0
C      1  0.4780890000000  0.5914400000000  0.4524750000000 1.0
C      1  0.5802350000000  0.5443050000000  0.4470420000000 1.0
C      1  0.5693100000000  0.4334500000000  0.4565510000000 1.0
C      1  0.4614570000000  0.4158980000000  0.4469420000000 1.0
C      1  0.4032510000000  0.5133950000000  0.4526660000000 1.0
C      1  0.4632180000000  0.4816750000000  0.5216980000000 1.0
C      1  0.4688960000000  0.5244150000000  0.5268420000000 1.0
C      1  0.5111580000000  0.5339770000000  0.5351510000000 1.0
C      1  0.5367290000000  0.4960750000000  0.5304820000000 1.0
C      1  0.5077820000000  0.4565030000000  0.5341990000000 1.0
C      1  0.5647820000000  0.5032030000000  0.4269940000000 1.0
C      1  0.5275640000000  0.4401450000000  0.4329720000000 1.0
C      1  0.4542560000000  0.4598100000000  0.4217520000000 1.0
C      1  0.4365600000000  0.5389890000000  0.4290780000000 1.0
C      1  0.5066310000000  0.5588150000000  0.4236070000000 1.0
C      1  0.5887980000000  0.5530300000000  0.4750580000000 1.0
C      1  0.5762840000000  0.4296890000000  0.4858510000000 1.0
C      1  0.4575280000000  0.4077550000000  0.4755190000000 1.0
C      1  0.3956560000000  0.5118090000000  0.4818120000000 1.0
C      1  0.4787240000000  0.5998460000000  0.4813160000000 1.0
C      1  0.4239330000000  0.4558640000000  0.5543990000000 1.0
C      1  0.4316610000000  0.5625600000000  0.5532480000000 1.0
C      1  0.5447410000000  0.5760730000000  0.5597290000000 1.0
C      1  0.5871810000000  0.4897980000000  0.5554330000000 1.0
C      1  0.5081420000000  0.4031000000000  0.5554850000000 1.0
C      1  0.5262190000000  0.5565360000000  0.5742260000000 1.0
C      1  0.5706250000000  0.4967190000000  0.5798270000000 1.0
C      1  0.5197780000000  0.4258990000000  0.5711110000000 1.0
C      1  0.4487190000000  0.4577750000000  0.5720660000000 1.0
C      1  0.4359010000000  0.5406370000000  0.5731640000000 1.0
C      1  0.5004350000000  0.4940490000000  0.5996950000000 1.0
C      1  0.5153680000000  0.5028190000000  0.5740940000000 1.0
C      1  0.5060520000000  0.5012090000000  0.4015960000000 1.0
C      1  0.4962940000000  0.5071700000000  0.5473330000000 1.0
END
