TITL C-3578194-7807-173 -3.19483005604937e-06 125000 -1214.68828024359 0 0 196 (C1) n - 1
REM
REM in /home/bkarasulu/work/CARBON/AIRSS/Generating-Clusters/EDIP-Nigel-Params/with-SteepDescent/Higher-Symm/SD-CG/HFTN-CG
REM
REM
REM
REM
REM
REM ./C.cell (12c818d87b63d06a65506943cc24bca4)
REM
REM compiler GCC version 9.2.1 20190827 (Red Hat 9.2.1-1)
REM options -cpp -mtune=generic -march=x86-64 -g -O0 -fpre-include=/usr/include/finclude/math-vector-fortran.h
REM seed 1509343462 -988198875 -663239028 -929129281 283038323 2142858104 -435359102 1271034068 -592577690 728506327 -875002916 -1011736253 1375264626 -208329535 -462695859 511788080 -1801467796 857423558 -648400651 -1170661201 227304013 145567573 117583803 1930832591 -387818981 -558565728 1391819190 -1417132008 1916067842 -716717781 1707280484 -670610581 1653252722
REM
CELL 1.54180   50.00000   50.00000   50.00000   90.00000   90.00000   90.00000
LATT -1
SFAC C  
C      1  0.4611900000000  0.5874440000000  0.4861150000000 1.0
C      1  0.4620210000000  0.5121630000000  0.5897580000000 1.0
C      1  0.4639400000000  0.4170750000000  0.5082450000000 1.0
C      1  0.4734430000000  0.4884440000000  0.4116350000000 1.0
C      1  0.4710190000000  0.5900240000000  0.5114580000000 1.0
C      1  0.4550990000000  0.5065170000000  0.4202190000000 1.0
C      1  0.4785890000000  0.4115400000000  0.4860270000000 1.0
C      1  0.4716210000000  0.4866250000000  0.5924590000000 1.0
C      1  0.5487040000000  0.5482110000000  0.4758220000000 1.0
C      1  0.5483150000000  0.5304090000000  0.5521760000000 1.0
C      1  0.5581250000000  0.4548810000000  0.5294470000000 1.0
C      1  0.5552600000000  0.4800310000000  0.4480650000000 1.0
C      1  0.5522020000000  0.5397530000000  0.5225670000000 1.0
C      1  0.5539620000000  0.5292910000000  0.4529420000000 1.0
C      1  0.5586990000000  0.4487630000000  0.4794530000000 1.0
C      1  0.5532270000000  0.4787750000000  0.5470790000000 1.0
C      1  0.5678920000000  0.5161190000000  0.5755530000000 1.0
C      1  0.5624320000000  0.4190750000000  0.5143690000000 1.0
C      1  0.5604990000000  0.4823780000000  0.4191310000000 1.0
C      1  0.5623250000000  0.5744030000000  0.4834360000000 1.0
C      1  0.5580300000000  0.5137830000000  0.4171670000000 1.0
C      1  0.5670180000000  0.4209990000000  0.4837650000000 1.0
C      1  0.5679010000000  0.4843590000000  0.5730000000000 1.0
C      1  0.5603050000000  0.5772050000000  0.5148410000000 1.0
C      1  0.6030720000000  0.4846480000000  0.4400480000000 1.0
C      1  0.6072870000000  0.5561980000000  0.4883030000000 1.0
C      1  0.6097400000000  0.5160830000000  0.5567500000000 1.0
C      1  0.6050540000000  0.4403370000000  0.5189850000000 1.0
C      1  0.6168990000000  0.4875060000000  0.5617230000000 1.0
C      1  0.6018760000000  0.5564080000000  0.5211220000000 1.0
C      1  0.6023460000000  0.5170470000000  0.4382480000000 1.0
C      1  0.6121490000000  0.4362550000000  0.4911810000000 1.0
C      1  0.5220220000000  0.5154200000000  0.5525550000000 1.0
C      1  0.5270490000000  0.4600930000000  0.5169330000000 1.0
C      1  0.5282840000000  0.4842130000000  0.4599150000000 1.0
C      1  0.5203310000000  0.5454180000000  0.4823790000000 1.0
C      1  0.5234940000000  0.5163720000000  0.4579930000000 1.0
C      1  0.5309890000000  0.4602080000000  0.4840620000000 1.0
C      1  0.5239580000000  0.4843390000000  0.5472360000000 1.0
C      1  0.5234920000000  0.5451680000000  0.5122980000000 1.0
C      1  0.5284380000000  0.4143290000000  0.5509280000000 1.0
C      1  0.5367590000000  0.4379900000000  0.4076250000000 1.0
C      1  0.5107940000000  0.5951570000000  0.4419730000000 1.0
C      1  0.5138400000000  0.5506110000000  0.6024910000000 1.0
C      1  0.5264340000000  0.3903250000000  0.4298660000000 1.0
C      1  0.5161150000000  0.4401830000000  0.5977480000000 1.0
C      1  0.5192040000000  0.5692560000000  0.5565270000000 1.0
C      1  0.5243360000000  0.5513070000000  0.4136580000000 1.0
C      1  0.4094560000000  0.4688480000000  0.4406810000000 1.0
C      1  0.4119220000000  0.5637800000000  0.4721370000000 1.0
C      1  0.4145870000000  0.5317980000000  0.5562970000000 1.0
C      1  0.4166830000000  0.4373270000000  0.5260260000000 1.0
C      1  0.4201480000000  0.4754700000000  0.5635340000000 1.0
C      1  0.4186860000000  0.5658960000000  0.5263060000000 1.0
C      1  0.4071460000000  0.5255720000000  0.4404300000000 1.0
C      1  0.4268060000000  0.4345600000000  0.4782320000000 1.0
C      1  0.3827920000000  0.4876390000000  0.4772750000000 1.0
C      1  0.3803010000000  0.5318620000000  0.4540140000000 1.0
C      1  0.3804300000000  0.5398690000000  0.5030070000000 1.0
C      1  0.3903760000000  0.4985020000000  0.5277110000000 1.0
C      1  0.3793310000000  0.4874820000000  0.5047390000000 1.0
C      1  0.3884500000000  0.5276250000000  0.5278320000000 1.0
C      1  0.3838610000000  0.5509500000000  0.4760720000000 1.0
C      1  0.3690930000000  0.5079240000000  0.4637390000000 1.0
C      1  0.5938800000000  0.5570880000000  0.5755740000000 1.0
C      1  0.5786430000000  0.4284670000000  0.5581530000000 1.0
C      1  0.5839620000000  0.4395470000000  0.4270680000000 1.0
C      1  0.5922990000000  0.5713190000000  0.4452350000000 1.0
C      1  0.5751510000000  0.5580850000000  0.4275040000000 1.0
C      1  0.5996790000000  0.4279530000000  0.4470720000000 1.0
C      1  0.5965080000000  0.4448700000000  0.5719710000000 1.0
C      1  0.5744300000000  0.5709020000000  0.5607810000000 1.0
C      1  0.5111650000000  0.4688310000000  0.5719740000000 1.0
C      1  0.5126370000000  0.4399460000000  0.4664420000000 1.0
C      1  0.5046210000000  0.5237680000000  0.4334700000000 1.0
C      1  0.5106310000000  0.5684210000000  0.5275170000000 1.0
C      1  0.5102970000000  0.4683230000000  0.4396500000000 1.0
C      1  0.5093340000000  0.4348910000000  0.5238570000000 1.0
C      1  0.5031830000000  0.5307310000000  0.5708350000000 1.0
C      1  0.5044950000000  0.5706920000000  0.4710890000000 1.0
C      1  0.4846550000000  0.4405050000000  0.4016640000000 1.0
C      1  0.4658520000000  0.5963110000000  0.4292400000000 1.0
C      1  0.4683310000000  0.5663270000000  0.5998260000000 1.0
C      1  0.4778480000000  0.3997130000000  0.5567290000000 1.0
C      1  0.4710740000000  0.4293580000000  0.5977810000000 1.0
C      1  0.4796820000000  0.5983190000000  0.5634590000000 1.0
C      1  0.4728910000000  0.5556320000000  0.3992920000000 1.0
C      1  0.4784930000000  0.4019480000000  0.4351140000000 1.0
C      1  0.4923360000000  0.5904600000000  0.4217800000000 1.0
C      1  0.4958530000000  0.5730370000000  0.5992070000000 1.0
C      1  0.5027820000000  0.4068350000000  0.5671550000000 1.0
C      1  0.5084580000000  0.4282260000000  0.4100190000000 1.0
C      1  0.5028720000000  0.5863570000000  0.5743350000000 1.0
C      1  0.4974580000000  0.5661460000000  0.4075580000000 1.0
C      1  0.5031710000000  0.4025960000000  0.4212630000000 1.0
C      1  0.4972780000000  0.4209890000000  0.5916260000000 1.0
C      1  0.4223940000000  0.5478770000000  0.4276010000000 1.0
C      1  0.4272780000000  0.5755010000000  0.5513010000000 1.0
C      1  0.4332250000000  0.4491170000000  0.5706000000000 1.0
C      1  0.4369280000000  0.4268190000000  0.4508900000000 1.0
C      1  0.4297170000000  0.5545710000000  0.5700400000000 1.0
C      1  0.4260500000000  0.5695740000000  0.4457370000000 1.0
C      1  0.4221190000000  0.4447260000000  0.4361360000000 1.0
C      1  0.4275880000000  0.4290280000000  0.5506790000000 1.0
C      1  0.5957030000000  0.4725260000000  0.5740050000000 1.0
C      1  0.5956830000000  0.4213340000000  0.4739600000000 1.0
C      1  0.5827630000000  0.5303170000000  0.4195260000000 1.0
C      1  0.5837530000000  0.5766480000000  0.5324920000000 1.0
C      1  0.5877980000000  0.4689960000000  0.4195730000000 1.0
C      1  0.5866490000000  0.4205450000000  0.5311450000000 1.0
C      1  0.5950460000000  0.5292030000000  0.5780680000000 1.0
C      1  0.5907320000000  0.5753490000000  0.4729640000000 1.0
C      1  0.4637940000000  0.4452190000000  0.5742720000000 1.0
C      1  0.4665910000000  0.4268030000000  0.4458680000000 1.0
C      1  0.4598420000000  0.5500100000000  0.4248730000000 1.0
C      1  0.4658320000000  0.5752680000000  0.5529200000000 1.0
C      1  0.4712530000000  0.4468090000000  0.4259930000000 1.0
C      1  0.4660900000000  0.4259530000000  0.5514140000000 1.0
C      1  0.4596060000000  0.5549630000000  0.5743050000000 1.0
C      1  0.4569310000000  0.5728490000000  0.4441490000000 1.0
C      1  0.5172640000000  0.4100470000000  0.5075270000000 1.0
C      1  0.5166380000000  0.4789010000000  0.4113870000000 1.0
C      1  0.5176450000000  0.5954340000000  0.4854120000000 1.0
C      1  0.5247420000000  0.5120480000000  0.5965840000000 1.0
C      1  0.5220270000000  0.4118340000000  0.4773910000000 1.0
C      1  0.5242470000000  0.4833110000000  0.5967420000000 1.0
C      1  0.5196460000000  0.5942170000000  0.5147760000000 1.0
C      1  0.5125940000000  0.5087340000000  0.4083570000000 1.0
C      1  0.4629000000000  0.4769700000000  0.3876190000000 1.0
C      1  0.4549720000000  0.6132700000000  0.4763450000000 1.0
C      1  0.4520660000000  0.5207150000000  0.6146960000000 1.0
C      1  0.4541190000000  0.3923050000000  0.5181030000000 1.0
C      1  0.4631620000000  0.4764180000000  0.6173250000000 1.0
C      1  0.4642070000000  0.6157540000000  0.5210950000000 1.0
C      1  0.4409510000000  0.5154810000000  0.3972530000000 1.0
C      1  0.4687570000000  0.3869340000000  0.4755020000000 1.0
C      1  0.5490780000000  0.4021270000000  0.4687750000000 1.0
C      1  0.5353020000000  0.5251070000000  0.4012660000000 1.0
C      1  0.5455250000000  0.6009590000000  0.5223450000000 1.0
C      1  0.5514310000000  0.4715150000000  0.5951880000000 1.0
C      1  0.5395110000000  0.4026200000000  0.5244930000000 1.0
C      1  0.5514580000000  0.5243310000000  0.5991560000000 1.0
C      1  0.5449410000000  0.5962130000000  0.4711920000000 1.0
C      1  0.5408890000000  0.4667610000000  0.4012400000000 1.0
C      1  0.4286320000000  0.5400060000000  0.5146180000000 1.0
C      1  0.4179120000000  0.4874540000000  0.5346910000000 1.0
C      1  0.4269320000000  0.4642670000000  0.4859510000000 1.0
C      1  0.4234840000000  0.5130040000000  0.4637330000000 1.0
C      1  0.4249290000000  0.5372060000000  0.4847430000000 1.0
C      1  0.4111420000000  0.4835130000000  0.4674220000000 1.0
C      1  0.4249380000000  0.4639420000000  0.5158160000000 1.0
C      1  0.4335580000000  0.5168400000000  0.5351290000000 1.0
C      1  0.4100660000000  0.5863970000000  0.5104920000000 1.0
C      1  0.4074490000000  0.4892200000000  0.5842860000000 1.0
C      1  0.4004210000000  0.4224230000000  0.4825220000000 1.0
C      1  0.4009630000000  0.5068210000000  0.4198470000000 1.0
C      1  0.4098180000000  0.5901760000000  0.4843520000000 1.0
C      1  0.3967880000000  0.4803610000000  0.4189230000000 1.0
C      1  0.4104970000000  0.4163560000000  0.5075370000000 1.0
C      1  0.4048050000000  0.5147570000000  0.5767640000000 1.0
C      1  0.5464230000000  0.5651850000000  0.4293100000000 1.0
C      1  0.5459440000000  0.5578300000000  0.5660440000000 1.0
C      1  0.5430590000000  0.4433860000000  0.5896300000000 1.0
C      1  0.5506540000000  0.4016620000000  0.4387790000000 1.0
C      1  0.5426460000000  0.5523210000000  0.5955810000000 1.0
C      1  0.5388030000000  0.5906340000000  0.4421750000000 1.0
C      1  0.5570900000000  0.4276840000000  0.4257470000000 1.0
C      1  0.5501760000000  0.4302200000000  0.5646140000000 1.0
C      1  0.6019250000000  0.4853570000000  0.5261880000000 1.0
C      1  0.5842650000000  0.4627890000000  0.4845680000000 1.0
C      1  0.5819520000000  0.5169820000000  0.4625330000000 1.0
C      1  0.5831820000000  0.5316490000000  0.5162590000000 1.0
C      1  0.5807490000000  0.4858820000000  0.4621300000000 1.0
C      1  0.5862790000000  0.4632390000000  0.5156020000000 1.0
C      1  0.5912340000000  0.5104130000000  0.5344130000000 1.0
C      1  0.5942630000000  0.5282680000000  0.4876520000000 1.0
C      1  0.4690190000000  0.5380190000000  0.4858050000000 1.0
C      1  0.4644510000000  0.5157980000000  0.5392340000000 1.0
C      1  0.4693910000000  0.4654340000000  0.5171050000000 1.0
C      1  0.4707900000000  0.4846960000000  0.4648820000000 1.0
C      1  0.4727090000000  0.5374040000000  0.5161440000000 1.0
C      1  0.4675380000000  0.5149790000000  0.4662650000000 1.0
C      1  0.4713420000000  0.4636790000000  0.4858870000000 1.0
C      1  0.4730220000000  0.4853220000000  0.5400060000000 1.0
C      1  0.4820460000000  0.4370540000000  0.4714700000000 1.0
C      1  0.4720590000000  0.5244220000000  0.4377120000000 1.0
C      1  0.4798010000000  0.5658940000000  0.5268090000000 1.0
C      1  0.4800220000000  0.4718580000000  0.5685120000000 1.0
C      1  0.4775250000000  0.4373030000000  0.5254190000000 1.0
C      1  0.4725940000000  0.5281420000000  0.5678540000000 1.0
C      1  0.4734020000000  0.5657020000000  0.4716050000000 1.0
C      1  0.4802670000000  0.4728330000000  0.4371150000000 1.0
C      1  0.4557550000000  0.3750450000000  0.4966510000000 1.0
C      1  0.4450130000000  0.4957320000000  0.3783920000000 1.0
C      1  0.4556550000000  0.6295390000000  0.4987190000000 1.0
C      1  0.4521590000000  0.4980540000000  0.6305370000000 1.0
END
