TITL C-3577089-586-274 -4.12367614284728e-07 125000 -326.981513775355 0 0 55 (C1) n - 1
REM
REM in /home/bkarasulu/work/CARBON/AIRSS/Generating-Clusters/EDIP-Nigel-Params/with-SteepDescent/Higher-Symm/SD-CG/HFTN-CG
REM
REM
REM
REM
REM
REM ./C.cell (12c818d87b63d06a65506943cc24bca4)
REM
REM compiler GCC version 9.2.1 20190827 (Red Hat 9.2.1-1)
REM options -cpp -mtune=generic -march=x86-64 -g -O0 -fpre-include=/usr/include/finclude/math-vector-fortran.h
REM seed -2130487788 -90828029 -1705049963 933824935 -1089141637 970503900 1687611872 870861879 -1486851274 -1014164446 -1335213991 1488377484 1381327810 1919528111 -1633143752 7952535 614302193 594349801 1106218335 -10424888 -58896222 -158305095 1387049288 701799194 764340176 -678139882 -29258750 -1868586505 -219931766 -1060488018 357048924 -367414429 198241319
REM
CELL 1.54180   50.00000   50.00000   50.00000   90.00000   90.00000   90.00000
LATT -1
SFAC C  
C      1  0.5584230000000  0.4606070000000  0.4831630000000 1.0
C      1  0.5606070000000  0.5345500000000  0.5176230000000 1.0
C      1  0.4642030000000  0.5505200000000  0.4624860000000 1.0
C      1  0.4693080000000  0.4500640000000  0.5381730000000 1.0
C      1  0.4498260000000  0.4649870000000  0.4661470000000 1.0
C      1  0.4473810000000  0.5332080000000  0.5352270000000 1.0
C      1  0.4561820000000  0.4922120000000  0.5220640000000 1.0
C      1  0.4544960000000  0.5069390000000  0.4786320000000 1.0
C      1  0.4673870000000  0.5215670000000  0.4549830000000 1.0
C      1  0.4699190000000  0.4789320000000  0.5457590000000 1.0
C      1  0.5007000000000  0.5135050000000  0.5653990000000 1.0
C      1  0.5002020000000  0.4854890000000  0.4404230000000 1.0
C      1  0.4686800000000  0.5479690000000  0.5465400000000 1.0
C      1  0.4705360000000  0.4502670000000  0.4543030000000 1.0
C      1  0.5546640000000  0.5232500000000  0.5443370000000 1.0
C      1  0.5518740000000  0.4703240000000  0.4566550000000 1.0
C      1  0.5285340000000  0.5139930000000  0.5715380000000 1.0
C      1  0.5270970000000  0.4819870000000  0.4291030000000 1.0
C      1  0.4376780000000  0.5105320000000  0.5510330000000 1.0
C      1  0.4382900000000  0.4865060000000  0.4498270000000 1.0
C      1  0.5208600000000  0.5279460000000  0.4407970000000 1.0
C      1  0.5192910000000  0.4695460000000  0.5588160000000 1.0
C      1  0.5397380000000  0.4963260000000  0.4649310000000 1.0
C      1  0.5368020000000  0.5013150000000  0.5341960000000 1.0
C      1  0.5224680000000  0.4429160000000  0.5148820000000 1.0
C      1  0.5239190000000  0.5515180000000  0.4836900000000 1.0
C      1  0.4333650000000  0.4770700000000  0.5120870000000 1.0
C      1  0.4310430000000  0.5197840000000  0.4903960000000 1.0
C      1  0.5218630000000  0.4921840000000  0.4889330000000 1.0
C      1  0.5230450000000  0.5141700000000  0.5085140000000 1.0
C      1  0.4599060000000  0.5567690000000  0.4904550000000 1.0
C      1  0.4662430000000  0.4421580000000  0.5097060000000 1.0
C      1  0.4980690000000  0.4888560000000  0.5512920000000 1.0
C      1  0.4969140000000  0.5129350000000  0.4516750000000 1.0
C      1  0.4498090000000  0.5081890000000  0.4351070000000 1.0
C      1  0.4509890000000  0.4899090000000  0.5656350000000 1.0
C      1  0.4951590000000  0.4554050000000  0.5098680000000 1.0
C      1  0.4949890000000  0.5427760000000  0.4840030000000 1.0
C      1  0.5362390000000  0.5088190000000  0.4262920000000 1.0
C      1  0.5371920000000  0.4867760000000  0.5726890000000 1.0
C      1  0.5360880000000  0.4570690000000  0.5372560000000 1.0
C      1  0.5394540000000  0.5404720000000  0.4611350000000 1.0
C      1  0.5376890000000  0.5501520000000  0.5090260000000 1.0
C      1  0.5408210000000  0.4409960000000  0.4933990000000 1.0
C      1  0.5640750000000  0.5246930000000  0.4691250000000 1.0
C      1  0.5607580000000  0.4720010000000  0.5302820000000 1.0
C      1  0.4942440000000  0.5244780000000  0.5079110000000 1.0
C      1  0.4955430000000  0.4777750000000  0.4885580000000 1.0
C      1  0.5626400000000  0.4826150000000  0.5031760000000 1.0
C      1  0.5657880000000  0.5132190000000  0.4966300000000 1.0
C      1  0.4935030000000  0.4654480000000  0.4603630000000 1.0
C      1  0.4903410000000  0.5403520000000  0.5317750000000 1.0
C      1  0.4428150000000  0.5392790000000  0.5063200000000 1.0
C      1  0.4458960000000  0.4587930000000  0.4950590000000 1.0
C      1  0.4754150000000  0.5001040000000  0.4995390000000 1.0
END
