TITL C-3577084-3642-291 -4.10363963105672e-06 125000 -1154.86089618526 0 0 185 (C1) n - 1
REM
REM in /home/bkarasulu/work/CARBON/AIRSS/Generating-Clusters/EDIP-Nigel-Params/with-SteepDescent/Higher-Symm/SD-CG/HFTN-CG
REM
REM
REM
REM
REM
REM ./C.cell (12c818d87b63d06a65506943cc24bca4)
REM
REM compiler GCC version 9.2.1 20190827 (Red Hat 9.2.1-1)
REM options -cpp -mtune=generic -march=x86-64 -g -O0 -fpre-include=/usr/include/finclude/math-vector-fortran.h
REM seed 129320582 1741454326 556382227 566116152 -867116338 887776922 1927197376 843009802 -166312877 -618974201 1307936124 649086221 544271122 -2145254947 49363962 -331356394 1547342159 -1643803590 1515327764 -637552694 2082956964 -353548881 2036892451 211312186 -62642443 -1513844790 775371747 -1721967453 -706128001 1424942159 -30851067 -553423769 -233599230
REM
CELL 1.54180   50.00000   50.00000   50.00000   90.00000   90.00000   90.00000
LATT -1
SFAC C  
C      1  0.4628450000000  0.5151710000000  0.5554120000000 1.0
C      1  0.5422360000000  0.4378740000000  0.5183990000000 1.0
C      1  0.4653860000000  0.4854960000000  0.4458350000000 1.0
C      1  0.5287300000000  0.5574520000000  0.4778420000000 1.0
C      1  0.5278730000000  0.5126960000000  0.4582340000000 1.0
C      1  0.4719430000000  0.5467560000000  0.5179150000000 1.0
C      1  0.5273310000000  0.4852560000000  0.5438740000000 1.0
C      1  0.4725750000000  0.4543310000000  0.4804080000000 1.0
C      1  0.5259900000000  0.5126770000000  0.5600960000000 1.0
C      1  0.4700480000000  0.4469910000000  0.5100010000000 1.0
C      1  0.5272320000000  0.4872990000000  0.4395670000000 1.0
C      1  0.4699390000000  0.5560230000000  0.4885080000000 1.0
C      1  0.4388350000000  0.4853790000000  0.4995660000000 1.0
C      1  0.5592440000000  0.4974650000000  0.4850000000000 1.0
C      1  0.4389900000000  0.5157290000000  0.5005740000000 1.0
C      1  0.5578420000000  0.4985640000000  0.5154190000000 1.0
C      1  0.4322990000000  0.5094110000000  0.5641580000000 1.0
C      1  0.5714590000000  0.4320330000000  0.5114350000000 1.0
C      1  0.4336330000000  0.4908280000000  0.4365220000000 1.0
C      1  0.5663050000000  0.5629900000000  0.4868190000000 1.0
C      1  0.5458310000000  0.4999100000000  0.3899550000000 1.0
C      1  0.4519360000000  0.6114530000000  0.4986940000000 1.0
C      1  0.5464950000000  0.5030090000000  0.6116320000000 1.0
C      1  0.4545420000000  0.3910130000000  0.5036730000000 1.0
C      1  0.5669360000000  0.4735320000000  0.5743710000000 1.0
C      1  0.4347120000000  0.4242600000000  0.4688420000000 1.0
C      1  0.5661110000000  0.5210700000000  0.4266990000000 1.0
C      1  0.4328330000000  0.5758720000000  0.5311690000000 1.0
C      1  0.5314390000000  0.6155640000000  0.5121670000000 1.0
C      1  0.4693210000000  0.4882460000000  0.6243070000000 1.0
C      1  0.5313890000000  0.3838760000000  0.4861900000000 1.0
C      1  0.4682960000000  0.5128250000000  0.3750590000000 1.0
C      1  0.6030810000000  0.4637750000000  0.4904390000000 1.0
C      1  0.3982130000000  0.5109940000000  0.4661750000000 1.0
C      1  0.5996290000000  0.5324980000000  0.5090090000000 1.0
C      1  0.3979010000000  0.4890610000000  0.5340560000000 1.0
C      1  0.5399950000000  0.4639040000000  0.5607130000000 1.0
C      1  0.4617040000000  0.4373540000000  0.4601970000000 1.0
C      1  0.5503660000000  0.5310050000000  0.4507850000000 1.0
C      1  0.4605430000000  0.5630780000000  0.5388730000000 1.0
C      1  0.5078160000000  0.4966310000000  0.5823030000000 1.0
C      1  0.4929460000000  0.4188730000000  0.4964230000000 1.0
C      1  0.5089490000000  0.5062350000000  0.4188590000000 1.0
C      1  0.4894210000000  0.5848460000000  0.5045080000000 1.0
C      1  0.4350460000000  0.5510870000000  0.5794440000000 1.0
C      1  0.5674010000000  0.4203940000000  0.5542300000000 1.0
C      1  0.4358830000000  0.4494740000000  0.4204150000000 1.0
C      1  0.5645690000000  0.5752440000000  0.4441630000000 1.0
C      1  0.5568070000000  0.6033550000000  0.5132400000000 1.0
C      1  0.4502760000000  0.4838530000000  0.6032010000000 1.0
C      1  0.5573980000000  0.3946290000000  0.4846630000000 1.0
C      1  0.4486480000000  0.5172970000000  0.3956450000000 1.0
C      1  0.5863740000000  0.4378590000000  0.5371760000000 1.0
C      1  0.4181790000000  0.4651560000000  0.4397160000000 1.0
C      1  0.5827600000000  0.5588230000000  0.4625970000000 1.0
C      1  0.4168220000000  0.5350560000000  0.5608130000000 1.0
C      1  0.5103440000000  0.5132360000000  0.6083800000000 1.0
C      1  0.4908740000000  0.3929580000000  0.5138940000000 1.0
C      1  0.5102980000000  0.4895520000000  0.3923630000000 1.0
C      1  0.4887020000000  0.6109470000000  0.4869440000000 1.0
C      1  0.4894050000000  0.4000740000000  0.5425920000000 1.0
C      1  0.5107230000000  0.4610720000000  0.4015450000000 1.0
C      1  0.4862930000000  0.6042640000000  0.4579640000000 1.0
C      1  0.5105610000000  0.5415400000000  0.5994650000000 1.0
C      1  0.4837010000000  0.5346680000000  0.3676890000000 1.0
C      1  0.5208070000000  0.6294450000000  0.5335150000000 1.0
C      1  0.4849040000000  0.4663380000000  0.6313220000000 1.0
C      1  0.5200470000000  0.3711050000000  0.4645470000000 1.0
C      1  0.5181720000000  0.6154760000000  0.4868280000000 1.0
C      1  0.4835850000000  0.5141530000000  0.6224430000000 1.0
C      1  0.5186350000000  0.3820360000000  0.5120350000000 1.0
C      1  0.4834910000000  0.4876950000000  0.3781630000000 1.0
C      1  0.4130170000000  0.5310170000000  0.5058890000000 1.0
C      1  0.5845370000000  0.4937650000000  0.5308170000000 1.0
C      1  0.4132370000000  0.4694460000000  0.4942240000000 1.0
C      1  0.5864050000000  0.5024780000000  0.4705770000000 1.0
C      1  0.5394300000000  0.4338110000000  0.5486420000000 1.0
C      1  0.4636760000000  0.4535090000000  0.4334410000000 1.0
C      1  0.5376540000000  0.5594050000000  0.4440350000000 1.0
C      1  0.4626030000000  0.5469750000000  0.5657200000000 1.0
C      1  0.4590880000000  0.5972080000000  0.4538330000000 1.0
C      1  0.5387140000000  0.5479720000000  0.5961710000000 1.0
C      1  0.4627720000000  0.4095850000000  0.5476290000000 1.0
C      1  0.5388030000000  0.4537600000000  0.4031820000000 1.0
C      1  0.4190870000000  0.4862750000000  0.5521840000000 1.0
C      1  0.5819280000000  0.4458430000000  0.4876480000000 1.0
C      1  0.4195370000000  0.5137540000000  0.4482320000000 1.0
C      1  0.5786700000000  0.5509010000000  0.5104700000000 1.0
C      1  0.4772150000000  0.4115350000000  0.4674790000000 1.0
C      1  0.5259690000000  0.5366030000000  0.4155480000000 1.0
C      1  0.4748240000000  0.5900650000000  0.5328200000000 1.0
C      1  0.5249840000000  0.4685120000000  0.5876590000000 1.0
C      1  0.5089680000000  0.5379510000000  0.5527850000000 1.0
C      1  0.4939150000000  0.4484570000000  0.5286910000000 1.0
C      1  0.5096440000000  0.4624730000000  0.4457460000000 1.0
C      1  0.4933300000000  0.5533560000000  0.4663520000000 1.0
C      1  0.4123750000000  0.5447450000000  0.5336320000000 1.0
C      1  0.5878110000000  0.4661220000000  0.5441850000000 1.0
C      1  0.4137380000000  0.4550190000000  0.4667210000000 1.0
C      1  0.5895190000000  0.5306220000000  0.4555780000000 1.0
C      1  0.4639960000000  0.5308910000000  0.4277330000000 1.0
C      1  0.5360140000000  0.5738950000000  0.5267480000000 1.0
C      1  0.4641600000000  0.4684110000000  0.5709550000000 1.0
C      1  0.5379000000000  0.4255190000000  0.4722990000000 1.0
C      1  0.4485580000000  0.4116810000000  0.5230090000000 1.0
C      1  0.5546020000000  0.4775580000000  0.4072190000000 1.0
C      1  0.4464490000000  0.5916360000000  0.4787620000000 1.0
C      1  0.5532570000000  0.5235860000000  0.5924580000000 1.0
C      1  0.4245420000000  0.5733890000000  0.4730460000000 1.0
C      1  0.5739530000000  0.5278680000000  0.5722380000000 1.0
C      1  0.4241980000000  0.4269220000000  0.5276040000000 1.0
C      1  0.5757800000000  0.4709870000000  0.4270090000000 1.0
C      1  0.5581100000000  0.5990010000000  0.4618950000000 1.0
C      1  0.4408480000000  0.5337110000000  0.6033770000000 1.0
C      1  0.5620720000000  0.3954950000000  0.5365780000000 1.0
C      1  0.4413820000000  0.4669980000000  0.3966250000000 1.0
C      1  0.5151360000000  0.4426520000000  0.5984390000000 1.0
C      1  0.4877770000000  0.3990570000000  0.4423320000000 1.0
C      1  0.5155180000000  0.5596770000000  0.3996100000000 1.0
C      1  0.4873180000000  0.6021920000000  0.5571440000000 1.0
C      1  0.4799270000000  0.5578730000000  0.4365420000000 1.0
C      1  0.5216660000000  0.5663840000000  0.5557520000000 1.0
C      1  0.4848190000000  0.4460890000000  0.5588550000000 1.0
C      1  0.5223630000000  0.4339410000000  0.4433740000000 1.0
C      1  0.5017710000000  0.5733060000000  0.4222630000000 1.0
C      1  0.5014230000000  0.5818220000000  0.5722280000000 1.0
C      1  0.5041420000000  0.4295540000000  0.5748850000000 1.0
C      1  0.5020150000000  0.4188860000000  0.4267830000000 1.0
C      1  0.4343960000000  0.4943410000000  0.4065320000000 1.0
C      1  0.5697010000000  0.5926580000000  0.4893620000000 1.0
C      1  0.4338310000000  0.5059700000000  0.5940300000000 1.0
C      1  0.5730930000000  0.4021160000000  0.5080650000000 1.0
C      1  0.4551210000000  0.5751710000000  0.4362270000000 1.0
C      1  0.5454790000000  0.5652030000000  0.5735660000000 1.0
C      1  0.4494840000000  0.4238020000000  0.5682960000000 1.0
C      1  0.5456120000000  0.4350120000000  0.4245940000000 1.0
C      1  0.4419290000000  0.5328200000000  0.4513020000000 1.0
C      1  0.5569010000000  0.5492520000000  0.5301350000000 1.0
C      1  0.4412180000000  0.4669910000000  0.5487560000000 1.0
C      1  0.5596730000000  0.4482990000000  0.4679730000000 1.0
C      1  0.5844590000000  0.5089060000000  0.5551080000000 1.0
C      1  0.4136580000000  0.4457730000000  0.5102540000000 1.0
C      1  0.5872930000000  0.4874950000000  0.4460800000000 1.0
C      1  0.4132010000000  0.5548950000000  0.4902520000000 1.0
C      1  0.5182400000000  0.4684610000000  0.4906070000000 1.0
C      1  0.4794500000000  0.5072840000000  0.4741610000000 1.0
C      1  0.5169130000000  0.5274030000000  0.5059400000000 1.0
C      1  0.4782160000000  0.4944710000000  0.5269900000000 1.0
C      1  0.5006070000000  0.5527190000000  0.3774040000000 1.0
C      1  0.5021910000000  0.6249910000000  0.5520080000000 1.0
C      1  0.4989780000000  0.4464560000000  0.6205310000000 1.0
C      1  0.5014090000000  0.3752400000000  0.4460440000000 1.0
C      1  0.5510260000000  0.5254820000000  0.4026520000000 1.0
C      1  0.4475760000000  0.6034980000000  0.5259210000000 1.0
C      1  0.5515350000000  0.4764380000000  0.6016810000000 1.0
C      1  0.4503250000000  0.3974630000000  0.4759000000000 1.0
C      1  0.4873760000000  0.4428800000000  0.4131640000000 1.0
C      1  0.5107860000000  0.5945920000000  0.4424740000000 1.0
C      1  0.4869610000000  0.5577480000000  0.5856960000000 1.0
C      1  0.5147290000000  0.4053860000000  0.5581670000000 1.0
C      1  0.5296310000000  0.5996410000000  0.4651730000000 1.0
C      1  0.4683060000000  0.5366380000000  0.6117590000000 1.0
C      1  0.5327360000000  0.3920120000000  0.5358830000000 1.0
C      1  0.4687360000000  0.4644240000000  0.3877530000000 1.0
C      1  0.4565380000000  0.5279830000000  0.4791340000000 1.0
C      1  0.5407320000000  0.5221120000000  0.5257710000000 1.0
C      1  0.4559380000000  0.4731560000000  0.5209590000000 1.0
C      1  0.5428720000000  0.4748080000000  0.4726210000000 1.0
C      1  0.4964880000000  0.5344220000000  0.5266830000000 1.0
C      1  0.4996070000000  0.4761470000000  0.5380540000000 1.0
C      1  0.4966450000000  0.4670740000000  0.4712240000000 1.0
C      1  0.5016200000000  0.5248030000000  0.4646350000000 1.0
C      1  0.5688690000000  0.4455780000000  0.4392720000000 1.0
C      1  0.4320540000000  0.5608230000000  0.4478700000000 1.0
C      1  0.5674200000000  0.5525380000000  0.5584060000000 1.0
C      1  0.4305790000000  0.4393490000000  0.5530890000000 1.0
C      1  0.3913560000000  0.4869710000000  0.5066690000000 1.0
C      1  0.6080700000000  0.4912020000000  0.4881140000000 1.0
C      1  0.3914000000000  0.5132540000000  0.4934500000000 1.0
C      1  0.6064150000000  0.5056280000000  0.5134540000000 1.0
C      1  0.4806660000000  0.5066180000000  0.4301710000000 1.0
C      1  0.5159980000000  0.5668180000000  0.5051350000000 1.0
C      1  0.4786220000000  0.4949500000000  0.5714570000000 1.0
C      1  0.5217980000000  0.4368370000000  0.4960480000000 1.0
C      1  0.4976150000000  0.4994030000000  0.5005880000000 1.0
END
