TITL C-3578205-846-235 0.0163278257594747 125000 -147.352131021576 0 0 27 (C1) n - 1
REM
REM in /home/bkarasulu/work/CARBON/AIRSS/Generating-Clusters/EDIP-Nigel-Params/with-SteepDescent/Higher-Symm/SD-CG/HFTN-CG
REM
REM
REM
REM
REM
REM ./C.cell (12c818d87b63d06a65506943cc24bca4)
REM
REM compiler GCC version 9.2.1 20190827 (Red Hat 9.2.1-1)
REM options -cpp -mtune=generic -march=x86-64 -g -O0 -fpre-include=/usr/include/finclude/math-vector-fortran.h
REM seed -1728998875 466972077 -1777699976 -1335741709 -73528829 -1135895806 -1084339041 -2046562665 1519280416 -696343174 1661163532 -1841994814 205413600 584408137 -1895854399 -302390647 -838913604 710662273 -2093045015 48594909 -936590080 -129366269 2108760157 -2006573694 -333260193 -42837367 -1241458383 -400553112 459551614 1742138354 -1118512659 454141885 1573865923
REM
CELL 1.54180   50.00000   50.00000   50.00000   90.00000   90.00000   90.00000
LATT -1
SFAC C  
C      1  0.5643990000000  0.5197150000000  0.4519110000000 1.0
C      1  0.5356690000000  0.5271650000000  0.4438200000000 1.0
C      1  0.4960430000000  0.4951800000000  0.4876440000000 1.0
C      1  0.5320480000000  0.4697070000000  0.4836310000000 1.0
C      1  0.4768380000000  0.5148280000000  0.4223700000000 1.0
C      1  0.4986480000000  0.5271440000000  0.5530280000000 1.0
C      1  0.5250550000000  0.4870740000000  0.5506490000000 1.0
C      1  0.5535320000000  0.4928520000000  0.4443390000000 1.0
C      1  0.5467380000000  0.4839010000000  0.5047180000000 1.0
C      1  0.4261190000000  0.4789180000000  0.4946470000000 1.0
C      1  0.4475750000000  0.4876830000000  0.4819720000000 1.0
C      1  0.5288660000000  0.4862230000000  0.4594090000000 1.0
C      1  0.4722510000000  0.5055360000000  0.4457660000000 1.0
C      1  0.4952720000000  0.4655910000000  0.5154550000000 1.0
C      1  0.4858870000000  0.5522100000000  0.5924980000000 1.0
C      1  0.5417380000000  0.4777170000000  0.5314410000000 1.0
C      1  0.3832620000000  0.4616680000000  0.5184080000000 1.0
C      1  0.5255380000000  0.5150730000000  0.4716210000000 1.0
C      1  0.4900910000000  0.4938110000000  0.5186270000000 1.0
C      1  0.4712540000000  0.4967520000000  0.4716540000000 1.0
C      1  0.5077680000000  0.5055850000000  0.5384830000000 1.0
C      1  0.4041820000000  0.4701550000000  0.5064010000000 1.0
C      1  0.4661750000000  0.5560110000000  0.5745040000000 1.0
C      1  0.5080060000000  0.4570880000000  0.4922480000000 1.0
C      1  0.5680290000000  0.5005460000000  0.4977880000000 1.0
C      1  0.4923960000000  0.5510760000000  0.5649320000000 1.0
C      1  0.5566230000000  0.5207900000000  0.4820370000000 1.0
END
