TITL C-3577090-796-310 -1.32287040793247e-06 125000 -1216.28051284838 0 0 193 (C1) n - 1
REM
REM in /home/bkarasulu/work/CARBON/AIRSS/Generating-Clusters/EDIP-Nigel-Params/with-SteepDescent/Higher-Symm/SD-CG/HFTN-CG
REM
REM
REM
REM
REM
REM ./C.cell (12c818d87b63d06a65506943cc24bca4)
REM
REM compiler GCC version 9.2.1 20190827 (Red Hat 9.2.1-1)
REM options -cpp -mtune=generic -march=x86-64 -g -O0 -fpre-include=/usr/include/finclude/math-vector-fortran.h
REM seed 930559577 -1806307048 -1264244780 1784723210 -954500298 227259012 -756770500 1992164224 2120542239 878292688 1247576827 -1796238273 1539543210 -227148091 726716821 179138780 -1287493430 -987147699 369870307 -1910241461 488006333 -160554107 1448198494 1334411873 298974115 1765089727 1850802408 -1087678841 1423558446 412529540 -1498716974 1107724219 1543079056
REM
CELL 1.54180   50.00000   50.00000   50.00000   90.00000   90.00000   90.00000
LATT -1
SFAC C  
C      1  0.5108410000000  0.4070740000000  0.5444320000000 1.0
C      1  0.5505770000000  0.5346220000000  0.5278920000000 1.0
C      1  0.4700680000000  0.4644720000000  0.5569330000000 1.0
C      1  0.5065440000000  0.5155420000000  0.5977440000000 1.0
C      1  0.5331950000000  0.4776410000000  0.5563150000000 1.0
C      1  0.6046890000000  0.4822370000000  0.5643480000000 1.0
C      1  0.4056400000000  0.4968590000000  0.5062400000000 1.0
C      1  0.5746340000000  0.4989660000000  0.4785600000000 1.0
C      1  0.5188200000000  0.4375520000000  0.5214500000000 1.0
C      1  0.5454770000000  0.4330550000000  0.4278920000000 1.0
C      1  0.4920800000000  0.5367280000000  0.4717940000000 1.0
C      1  0.6165240000000  0.4771280000000  0.5393330000000 1.0
C      1  0.5259750000000  0.4481900000000  0.5512260000000 1.0
C      1  0.4186370000000  0.5545620000000  0.4529070000000 1.0
C      1  0.4835630000000  0.4351140000000  0.4833360000000 1.0
C      1  0.4543750000000  0.4128340000000  0.4587380000000 1.0
C      1  0.4661060000000  0.4667130000000  0.4437310000000 1.0
C      1  0.4898500000000  0.4957970000000  0.6132220000000 1.0
C      1  0.5549080000000  0.5899930000000  0.4514320000000 1.0
C      1  0.4492700000000  0.5541100000000  0.4106690000000 1.0
C      1  0.5354370000000  0.5217590000000  0.4150930000000 1.0
C      1  0.5299500000000  0.4956870000000  0.4666290000000 1.0
C      1  0.4948220000000  0.4502760000000  0.5098260000000 1.0
C      1  0.4223810000000  0.4893320000000  0.4134350000000 1.0
C      1  0.4014560000000  0.4844810000000  0.4568430000000 1.0
C      1  0.4752730000000  0.5385490000000  0.4467780000000 1.0
C      1  0.5782060000000  0.5190140000000  0.5868780000000 1.0
C      1  0.5743620000000  0.5189450000000  0.5274810000000 1.0
C      1  0.4813890000000  0.5147330000000  0.5162110000000 1.0
C      1  0.4746860000000  0.5265780000000  0.5584100000000 1.0
C      1  0.5077650000000  0.5941150000000  0.4568780000000 1.0
C      1  0.4169970000000  0.5132200000000  0.5909590000000 1.0
C      1  0.4438970000000  0.5690690000000  0.5336470000000 1.0
C      1  0.4666890000000  0.4403570000000  0.5786260000000 1.0
C      1  0.5047660000000  0.3786960000000  0.4924270000000 1.0
C      1  0.5363310000000  0.5162520000000  0.6003720000000 1.0
C      1  0.4086500000000  0.4288440000000  0.4766160000000 1.0
C      1  0.4577480000000  0.4520650000000  0.4694560000000 1.0
C      1  0.4310360000000  0.4387130000000  0.5458140000000 1.0
C      1  0.4267800000000  0.5156490000000  0.4249130000000 1.0
C      1  0.3797760000000  0.5127110000000  0.5028110000000 1.0
C      1  0.5913980000000  0.5546310000000  0.4952770000000 1.0
C      1  0.5498050000000  0.5941680000000  0.5430050000000 1.0
C      1  0.5857410000000  0.4342350000000  0.5077440000000 1.0
C      1  0.5713290000000  0.5677260000000  0.4481120000000 1.0
C      1  0.4841990000000  0.3951840000000  0.5019450000000 1.0
C      1  0.5596910000000  0.5913670000000  0.5145090000000 1.0
C      1  0.5185780000000  0.4243470000000  0.4204380000000 1.0
C      1  0.4968750000000  0.4977180000000  0.4171140000000 1.0
C      1  0.4643580000000  0.4952480000000  0.3886270000000 1.0
C      1  0.5587460000000  0.4956350000000  0.5973720000000 1.0
C      1  0.4294480000000  0.4650630000000  0.5340130000000 1.0
C      1  0.4473280000000  0.4717180000000  0.6089460000000 1.0
C      1  0.5875360000000  0.4488910000000  0.4662120000000 1.0
C      1  0.6093570000000  0.4535830000000  0.4841210000000 1.0
C      1  0.5710590000000  0.5502450000000  0.4727930000000 1.0
C      1  0.3877060000000  0.4529900000000  0.5172400000000 1.0
C      1  0.4335650000000  0.5935130000000  0.5168480000000 1.0
C      1  0.4818530000000  0.5834190000000  0.5073870000000 1.0
C      1  0.5111420000000  0.5166200000000  0.4004780000000 1.0
C      1  0.5521910000000  0.5003840000000  0.4014880000000 1.0
C      1  0.4652530000000  0.5653440000000  0.5907780000000 1.0
C      1  0.4919630000000  0.4767720000000  0.5730000000000 1.0
C      1  0.5408580000000  0.5517650000000  0.4837770000000 1.0
C      1  0.5414680000000  0.4727720000000  0.3996900000000 1.0
C      1  0.4678040000000  0.5816170000000  0.4265270000000 1.0
C      1  0.3865290000000  0.5388250000000  0.4910880000000 1.0
C      1  0.5778790000000  0.5228990000000  0.4630060000000 1.0
C      1  0.5118700000000  0.4731700000000  0.4312310000000 1.0
C      1  0.5236060000000  0.3965790000000  0.4822900000000 1.0
C      1  0.4304030000000  0.5521340000000  0.5553920000000 1.0
C      1  0.5867020000000  0.5622670000000  0.5452440000000 1.0
C      1  0.5776060000000  0.4213520000000  0.4651220000000 1.0
C      1  0.4526290000000  0.4531620000000  0.4192880000000 1.0
C      1  0.3999330000000  0.5562080000000  0.5114790000000 1.0
C      1  0.4542730000000  0.4952320000000  0.4433740000000 1.0
C      1  0.5472030000000  0.4796780000000  0.5145650000000 1.0
C      1  0.3929880000000  0.5110780000000  0.4531270000000 1.0
C      1  0.5016220000000  0.5438990000000  0.6033320000000 1.0
C      1  0.4386070000000  0.5499870000000  0.5101310000000 1.0
C      1  0.5987460000000  0.5333790000000  0.5424760000000 1.0
C      1  0.4843540000000  0.4019850000000  0.5301310000000 1.0
C      1  0.4368410000000  0.5178620000000  0.4796900000000 1.0
C      1  0.5388240000000  0.5290800000000  0.5027000000000 1.0
C      1  0.5595760000000  0.4560330000000  0.4156230000000 1.0
C      1  0.4474450000000  0.4845310000000  0.5475350000000 1.0
C      1  0.5658510000000  0.5770070000000  0.5623890000000 1.0
C      1  0.4269320000000  0.4253990000000  0.4552270000000 1.0
C      1  0.5846010000000  0.4204940000000  0.5335600000000 1.0
C      1  0.5191610000000  0.4375130000000  0.5964860000000 1.0
C      1  0.4189900000000  0.4906640000000  0.5731620000000 1.0
C      1  0.4531380000000  0.5413420000000  0.5747340000000 1.0
C      1  0.5720940000000  0.4456130000000  0.5927800000000 1.0
C      1  0.5349940000000  0.5849990000000  0.4953740000000 1.0
C      1  0.4811950000000  0.5586560000000  0.4891260000000 1.0
C      1  0.5881000000000  0.5274370000000  0.4202820000000 1.0
C      1  0.5472930000000  0.5016140000000  0.4918960000000 1.0
C      1  0.4833860000000  0.5095580000000  0.4843380000000 1.0
C      1  0.5994570000000  0.4975710000000  0.4969180000000 1.0
C      1  0.5128910000000  0.5686570000000  0.4441900000000 1.0
C      1  0.3871030000000  0.5187370000000  0.5462520000000 1.0
C      1  0.4260800000000  0.4649910000000  0.5887090000000 1.0
C      1  0.4954480000000  0.5392980000000  0.3918770000000 1.0
C      1  0.4116830000000  0.5829330000000  0.4986800000000 1.0
C      1  0.4753350000000  0.4484860000000  0.5322220000000 1.0
C      1  0.4852300000000  0.5926850000000  0.5529390000000 1.0
C      1  0.5438590000000  0.5562340000000  0.4041720000000 1.0
C      1  0.5403900000000  0.4688070000000  0.4535580000000 1.0
C      1  0.4555460000000  0.4986290000000  0.4736620000000 1.0
C      1  0.4739030000000  0.4124260000000  0.4348180000000 1.0
C      1  0.4433610000000  0.5206470000000  0.5949010000000 1.0
C      1  0.4485730000000  0.5960010000000  0.4712850000000 1.0
C      1  0.5506130000000  0.5348470000000  0.5788730000000 1.0
C      1  0.4950590000000  0.4669320000000  0.6017840000000 1.0
C      1  0.6159970000000  0.4816810000000  0.4769040000000 1.0
C      1  0.3663740000000  0.5164420000000  0.5272340000000 1.0
C      1  0.4885460000000  0.5606060000000  0.4292100000000 1.0
C      1  0.5948800000000  0.4798120000000  0.5213300000000 1.0
C      1  0.4025940000000  0.4758830000000  0.5288680000000 1.0
C      1  0.4693770000000  0.4517840000000  0.6063840000000 1.0
C      1  0.4964630000000  0.5068000000000  0.5698520000000 1.0
C      1  0.4542700000000  0.5051530000000  0.5255450000000 1.0
C      1  0.5099660000000  0.4772110000000  0.5047460000000 1.0
C      1  0.4128850000000  0.4761550000000  0.4835670000000 1.0
C      1  0.4885810000000  0.5447130000000  0.5394420000000 1.0
C      1  0.4667880000000  0.5296360000000  0.4016800000000 1.0
C      1  0.4897470000000  0.4830090000000  0.3815880000000 1.0
C      1  0.5026680000000  0.4972870000000  0.5245320000000 1.0
C      1  0.5129750000000  0.5628560000000  0.5829800000000 1.0
C      1  0.5716730000000  0.4727950000000  0.4564400000000 1.0
C      1  0.5470110000000  0.4294720000000  0.5926380000000 1.0
C      1  0.4196820000000  0.5835190000000  0.4686490000000 1.0
C      1  0.5454010000000  0.4066880000000  0.5013360000000 1.0
C      1  0.4265840000000  0.4446560000000  0.4326970000000 1.0
C      1  0.5495070000000  0.5642750000000  0.5843620000000 1.0
C      1  0.4108930000000  0.4702670000000  0.4328280000000 1.0
C      1  0.5753990000000  0.4096350000000  0.4918960000000 1.0
C      1  0.5957470000000  0.5112880000000  0.5652850000000 1.0
C      1  0.3958750000000  0.5370890000000  0.4633000000000 1.0
C      1  0.3954220000000  0.4910230000000  0.5544210000000 1.0
C      1  0.5345630000000  0.5988590000000  0.4684870000000 1.0
C      1  0.4519140000000  0.5596200000000  0.4850540000000 1.0
C      1  0.6111760000000  0.4910960000000  0.4486920000000 1.0
C      1  0.5507770000000  0.4334800000000  0.5624870000000 1.0
C      1  0.5695460000000  0.4901280000000  0.5334920000000 1.0
C      1  0.5605750000000  0.4836190000000  0.5676760000000 1.0
C      1  0.5140880000000  0.5606930000000  0.4010610000000 1.0
C      1  0.5399570000000  0.4366110000000  0.4995620000000 1.0
C      1  0.4946320000000  0.4671180000000  0.4547230000000 1.0
C      1  0.4603630000000  0.4982240000000  0.6054650000000 1.0
C      1  0.5670730000000  0.5505730000000  0.4238320000000 1.0
C      1  0.5816420000000  0.4624410000000  0.5705950000000 1.0
C      1  0.4706850000000  0.5974870000000  0.4506240000000 1.0
C      1  0.5827320000000  0.5725010000000  0.5172970000000 1.0
C      1  0.5838940000000  0.4750580000000  0.4270970000000 1.0
C      1  0.4617940000000  0.4029570000000  0.4857190000000 1.0
C      1  0.4718470000000  0.4314740000000  0.4118140000000 1.0
C      1  0.5273210000000  0.5745190000000  0.5401210000000 1.0
C      1  0.5615880000000  0.4109920000000  0.5469720000000 1.0
C      1  0.5205460000000  0.5443970000000  0.4612200000000 1.0
C      1  0.4734750000000  0.5138180000000  0.4293580000000 1.0
C      1  0.5185260000000  0.5029430000000  0.5491530000000 1.0
C      1  0.4642710000000  0.4222440000000  0.5357900000000 1.0
C      1  0.5027450000000  0.4103710000000  0.4406760000000 1.0
C      1  0.5031350000000  0.4872080000000  0.4770420000000 1.0
C      1  0.5790330000000  0.5005810000000  0.4111110000000 1.0
C      1  0.5548710000000  0.4169170000000  0.4490870000000 1.0
C      1  0.4071080000000  0.5403980000000  0.5392930000000 1.0
C      1  0.5082850000000  0.5976960000000  0.5078490000000 1.0
C      1  0.4767860000000  0.5526430000000  0.6134670000000 1.0
C      1  0.4367310000000  0.4401840000000  0.5742780000000 1.0
C      1  0.6055990000000  0.5296950000000  0.5073360000000 1.0
C      1  0.5348510000000  0.5293520000000  0.5518580000000 1.0
C      1  0.5108250000000  0.4643950000000  0.3923530000000 1.0
C      1  0.5323370000000  0.4410210000000  0.4694030000000 1.0
C      1  0.5093040000000  0.4199650000000  0.4682360000000 1.0
C      1  0.5392760000000  0.3998430000000  0.5312610000000 1.0
C      1  0.4998830000000  0.4399040000000  0.4053570000000 1.0
C      1  0.4452550000000  0.4763650000000  0.4001390000000 1.0
C      1  0.4251800000000  0.5447690000000  0.4240640000000 1.0
C      1  0.6011460000000  0.5189520000000  0.4458550000000 1.0
C      1  0.5150410000000  0.5516900000000  0.5537510000000 1.0
C      1  0.5616750000000  0.4539630000000  0.5069970000000 1.0
C      1  0.3997430000000  0.4508680000000  0.4914090000000 1.0
C      1  0.4572650000000  0.6010200000000  0.4998460000000 1.0
C      1  0.5295810000000  0.5195740000000  0.4463350000000 1.0
C      1  0.4442150000000  0.5417160000000  0.4640440000000 1.0
C      1  0.4887390000000  0.5819780000000  0.5802840000000 1.0
C      1  0.4744510000000  0.5717020000000  0.5348400000000 1.0
C      1  0.4318590000000  0.5181120000000  0.5098720000000 1.0
C      1  0.5041420000000  0.4345290000000  0.5706730000000 1.0
C      1  0.5114630000000  0.5997980000000  0.5378700000000 1.0
C      1  0.4438550000000  0.4735050000000  0.4846530000000 1.0
END
