TITL C-3577079-311-364 5.12483851149901e-06 125000 -1122.00629373144 0 0 179 (C1) n - 1
REM
REM in /home/bkarasulu/work/CARBON/AIRSS/Generating-Clusters/EDIP-Nigel-Params/with-SteepDescent/Higher-Symm/SD-CG/HFTN-CG
REM
REM
REM
REM
REM
REM ./C.cell (12c818d87b63d06a65506943cc24bca4)
REM
REM compiler GCC version 9.2.1 20190827 (Red Hat 9.2.1-1)
REM options -cpp -mtune=generic -march=x86-64 -g -O0 -fpre-include=/usr/include/finclude/math-vector-fortran.h
REM seed 1464224266 1565074301 1526067673 1020516358 435396695 -480806161 1786596141 1581815825 851106962 -1936391056 1181901765 746677284 1546498809 895771393 1601808362 573011450 -2104850778 -1842820761 614675373 2121939400 -282626720 -498337208 -1688042173 -1576685228 -1427511646 -1951464025 286741037 1065049754 620329967 -817875250 -1135043511 1011278966 -1348365460
REM
CELL 1.54180   50.00000   50.00000   50.00000   90.00000   90.00000   90.00000
LATT -1
SFAC C  
C      1  0.4679100000000  0.4849090000000  0.3983220000000 1.0
C      1  0.5599040000000  0.4864020000000  0.4089200000000 1.0
C      1  0.6113230000000  0.4874650000000  0.4856200000000 1.0
C      1  0.5717130000000  0.4847470000000  0.5745320000000 1.0
C      1  0.4881060000000  0.4865460000000  0.6109560000000 1.0
C      1  0.4109700000000  0.4871400000000  0.5552530000000 1.0
C      1  0.3961090000000  0.4855380000000  0.4644670000000 1.0
C      1  0.4613150000000  0.4378670000000  0.5728380000000 1.0
C      1  0.4185590000000  0.4354860000000  0.5143030000000 1.0
C      1  0.4378210000000  0.4339280000000  0.4428060000000 1.0
C      1  0.5067580000000  0.4340130000000  0.4164780000000 1.0
C      1  0.5717800000000  0.4342950000000  0.4492900000000 1.0
C      1  0.5831600000000  0.4356280000000  0.5216950000000 1.0
C      1  0.5342240000000  0.4359230000000  0.5790170000000 1.0
C      1  0.5737770000000  0.4207690000000  0.4751020000000 1.0
C      1  0.5657700000000  0.4207220000000  0.5406270000000 1.0
C      1  0.5087680000000  0.4223730000000  0.5751590000000 1.0
C      1  0.4476640000000  0.4193750000000  0.5535830000000 1.0
C      1  0.4243600000000  0.4183210000000  0.4903520000000 1.0
C      1  0.4616800000000  0.4183540000000  0.4351020000000 1.0
C      1  0.5286560000000  0.4178060000000  0.4276010000000 1.0
C      1  0.5541150000000  0.5863910000000  0.4632190000000 1.0
C      1  0.5652470000000  0.5797200000000  0.5193280000000 1.0
C      1  0.5208140000000  0.5767000000000  0.5606150000000 1.0
C      1  0.4663510000000  0.5811010000000  0.5522310000000 1.0
C      1  0.4374800000000  0.5840580000000  0.5052140000000 1.0
C      1  0.4564460000000  0.5843590000000  0.4528680000000 1.0
C      1  0.5094820000000  0.5895900000000  0.4332150000000 1.0
C      1  0.4524320000000  0.5415460000000  0.5912230000000 1.0
C      1  0.4016030000000  0.5408270000000  0.5196420000000 1.0
C      1  0.4254300000000  0.5390750000000  0.4366700000000 1.0
C      1  0.4986550000000  0.5406530000000  0.4032780000000 1.0
C      1  0.5745670000000  0.5396220000000  0.4377630000000 1.0
C      1  0.5945780000000  0.5395850000000  0.5281100000000 1.0
C      1  0.5376830000000  0.5425840000000  0.5960410000000 1.0
C      1  0.4317180000000  0.5712400000000  0.4575610000000 1.0
C      1  0.4894250000000  0.5753300000000  0.4180170000000 1.0
C      1  0.5571320000000  0.5746410000000  0.4370850000000 1.0
C      1  0.5877400000000  0.5623480000000  0.5083490000000 1.0
C      1  0.5445370000000  0.5641090000000  0.5733630000000 1.0
C      1  0.4745570000000  0.5702430000000  0.5772230000000 1.0
C      1  0.4255040000000  0.5703960000000  0.5273770000000 1.0
C      1  0.4527640000000  0.4614350000000  0.4053350000000 1.0
C      1  0.5442040000000  0.4629260000000  0.4015860000000 1.0
C      1  0.6067060000000  0.4643530000000  0.4682440000000 1.0
C      1  0.5805130000000  0.4618510000000  0.5599980000000 1.0
C      1  0.5063740000000  0.4631570000000  0.6099800000000 1.0
C      1  0.4198730000000  0.4637150000000  0.5698440000000 1.0
C      1  0.3930170000000  0.4627950000000  0.4822660000000 1.0
C      1  0.4834930000000  0.5199350000000  0.4451320000000 1.0
C      1  0.5321350000000  0.5159240000000  0.4530210000000 1.0
C      1  0.5575320000000  0.5184020000000  0.4941030000000 1.0
C      1  0.5346670000000  0.5165170000000  0.5456650000000 1.0
C      1  0.4904260000000  0.5230680000000  0.5637750000000 1.0
C      1  0.4475280000000  0.5193800000000  0.5322530000000 1.0
C      1  0.4397380000000  0.5155020000000  0.4826500000000 1.0
C      1  0.4940570000000  0.4404130000000  0.4672110000000 1.0
C      1  0.5239730000000  0.4314780000000  0.4743780000000 1.0
C      1  0.5372300000000  0.4448100000000  0.5022090000000 1.0
C      1  0.5218920000000  0.4307710000000  0.5270740000000 1.0
C      1  0.4952850000000  0.4457420000000  0.5333110000000 1.0
C      1  0.4709520000000  0.4379360000000  0.5145380000000 1.0
C      1  0.4694160000000  0.4299540000000  0.4838560000000 1.0
C      1  0.4005580000000  0.4606450000000  0.5104980000000 1.0
C      1  0.4338970000000  0.4593990000000  0.4270740000000 1.0
C      1  0.5151420000000  0.4595410000000  0.4030870000000 1.0
C      1  0.5881060000000  0.4602920000000  0.4457900000000 1.0
C      1  0.5941710000000  0.4597380000000  0.5344300000000 1.0
C      1  0.5326950000000  0.4605130000000  0.5971200000000 1.0
C      1  0.4452420000000  0.4612610000000  0.5844460000000 1.0
C      1  0.5067540000000  0.6218100000000  0.4715680000000 1.0
C      1  0.5280740000000  0.6301130000000  0.4874960000000 1.0
C      1  0.5309890000000  0.6287380000000  0.5142840000000 1.0
C      1  0.5125420000000  0.6169930000000  0.5315620000000 1.0
C      1  0.4865970000000  0.6261410000000  0.5272470000000 1.0
C      1  0.4717410000000  0.6201040000000  0.5044830000000 1.0
C      1  0.4820900000000  0.6307650000000  0.4809390000000 1.0
C      1  0.4546170000000  0.5093140000000  0.4082630000000 1.0
C      1  0.5437190000000  0.5105590000000  0.4063860000000 1.0
C      1  0.6001360000000  0.5112870000000  0.4711730000000 1.0
C      1  0.5798370000000  0.5083300000000  0.5604870000000 1.0
C      1  0.5038940000000  0.5113900000000  0.6088680000000 1.0
C      1  0.4188360000000  0.5116830000000  0.5691110000000 1.0
C      1  0.3933750000000  0.5109860000000  0.4794630000000 1.0
C      1  0.5456500000000  0.4681750000000  0.5435310000000 1.0
C      1  0.4978920000000  0.4724410000000  0.5735340000000 1.0
C      1  0.4460750000000  0.4654040000000  0.5415350000000 1.0
C      1  0.4314550000000  0.4650520000000  0.4803250000000 1.0
C      1  0.4768080000000  0.4657790000000  0.4355920000000 1.0
C      1  0.5386490000000  0.4645190000000  0.4398480000000 1.0
C      1  0.5721010000000  0.4702600000000  0.4853600000000 1.0
C      1  0.5425610000000  0.4383940000000  0.5495070000000 1.0
C      1  0.4900520000000  0.4435010000000  0.5641500000000 1.0
C      1  0.4448520000000  0.4378860000000  0.5302700000000 1.0
C      1  0.4402960000000  0.4369100000000  0.4727650000000 1.0
C      1  0.4852180000000  0.4369740000000  0.4377480000000 1.0
C      1  0.5415640000000  0.4359970000000  0.4477540000000 1.0
C      1  0.5676500000000  0.4411490000000  0.4963540000000 1.0
C      1  0.4935350000000  0.5345470000000  0.5355050000000 1.0
C      1  0.4688870000000  0.5346180000000  0.5189910000000 1.0
C      1  0.4670840000000  0.5302730000000  0.4896490000000 1.0
C      1  0.4876160000000  0.5382230000000  0.4688250000000 1.0
C      1  0.5191280000000  0.5350230000000  0.4727200000000 1.0
C      1  0.5343090000000  0.5381210000000  0.4990960000000 1.0
C      1  0.5196790000000  0.5293630000000  0.5240540000000 1.0
C      1  0.4409930000000  0.3962570000000  0.4964610000000 1.0
C      1  0.4660970000000  0.3954510000000  0.4506260000000 1.0
C      1  0.5190960000000  0.3951320000000  0.4411140000000 1.0
C      1  0.5580890000000  0.3977360000000  0.4770330000000 1.0
C      1  0.5549220000000  0.3973300000000  0.5292770000000 1.0
C      1  0.5112360000000  0.3994340000000  0.5591680000000 1.0
C      1  0.4619090000000  0.3964040000000  0.5458620000000 1.0
C      1  0.4724240000000  0.5306930000000  0.4194210000000 1.0
C      1  0.5453880000000  0.5297730000000  0.4289760000000 1.0
C      1  0.5837030000000  0.5304920000000  0.4870420000000 1.0
C      1  0.5594810000000  0.5302710000000  0.5613030000000 1.0
C      1  0.4902600000000  0.5337050000000  0.5937800000000 1.0
C      1  0.4255080000000  0.5328620000000  0.5489020000000 1.0
C      1  0.4145250000000  0.5309010000000  0.4725420000000 1.0
C      1  0.5691190000000  0.5778730000000  0.5473850000000 1.0
C      1  0.5021680000000  0.5749530000000  0.5823870000000 1.0
C      1  0.4381750000000  0.5755720000000  0.5521610000000 1.0
C      1  0.4216920000000  0.5742000000000  0.4834710000000 1.0
C      1  0.4623560000000  0.5769110000000  0.4257430000000 1.0
C      1  0.5334530000000  0.5759270000000  0.4218560000000 1.0
C      1  0.5792920000000  0.5786290000000  0.4745030000000 1.0
C      1  0.4509290000000  0.5507080000000  0.4236270000000 1.0
C      1  0.5249970000000  0.5489980000000  0.4182210000000 1.0
C      1  0.5798780000000  0.5506340000000  0.4663740000000 1.0
C      1  0.5796150000000  0.5514200000000  0.5504850000000 1.0
C      1  0.5107810000000  0.5546610000000  0.6008240000000 1.0
C      1  0.4343770000000  0.5531620000000  0.5693530000000 1.0
C      1  0.4067700000000  0.5515650000000  0.4916950000000 1.0
C      1  0.4679890000000  0.4815330000000  0.4605660000000 1.0
C      1  0.5090310000000  0.4761960000000  0.4452030000000 1.0
C      1  0.5177720000000  0.4753510000000  0.4768720000000 1.0
C      1  0.5397950000000  0.4734120000000  0.5149670000000 1.0
C      1  0.4981970000000  0.4758470000000  0.5292290000000 1.0
C      1  0.4711310000000  0.4832480000000  0.5404830000000 1.0
C      1  0.4482950000000  0.4740950000000  0.5042700000000 1.0
C      1  0.4821940000000  0.3891270000000  0.4725960000000 1.0
C      1  0.5113210000000  0.3895050000000  0.4674060000000 1.0
C      1  0.5331890000000  0.3900230000000  0.4868120000000 1.0
C      1  0.5315360000000  0.3891760000000  0.5161490000000 1.0
C      1  0.5076310000000  0.3894910000000  0.5333090000000 1.0
C      1  0.4795020000000  0.3889000000000  0.5253560000000 1.0
C      1  0.4680790000000  0.3885870000000  0.4983220000000 1.0
C      1  0.5469620000000  0.4856930000000  0.4663240000000 1.0
C      1  0.5623800000000  0.4914290000000  0.5069900000000 1.0
C      1  0.5228160000000  0.4868470000000  0.5532590000000 1.0
C      1  0.4717400000000  0.5001430000000  0.5637340000000 1.0
C      1  0.4351380000000  0.5014550000000  0.5108310000000 1.0
C      1  0.4404610000000  0.4896670000000  0.4630860000000 1.0
C      1  0.5085320000000  0.5053860000000  0.4375930000000 1.0
C      1  0.5925920000000  0.5097960000000  0.5334710000000 1.0
C      1  0.5325050000000  0.5116410000000  0.5993950000000 1.0
C      1  0.4400310000000  0.5126370000000  0.5914920000000 1.0
C      1  0.3921240000000  0.5122880000000  0.5103100000000 1.0
C      1  0.4281810000000  0.5108220000000  0.4232250000000 1.0
C      1  0.5137180000000  0.5101300000000  0.3991420000000 1.0
C      1  0.5887570000000  0.5110770000000  0.4431400000000 1.0
C      1  0.4600030000000  0.4885060000000  0.5902600000000 1.0
C      1  0.4073700000000  0.4887730000000  0.5232420000000 1.0
C      1  0.4215660000000  0.4858310000000  0.4394590000000 1.0
C      1  0.4979410000000  0.4838150000000  0.4012780000000 1.0
C      1  0.5767930000000  0.4855220000000  0.4337380000000 1.0
C      1  0.5995090000000  0.4848190000000  0.5170820000000 1.0
C      1  0.5464730000000  0.4860720000000  0.5905680000000 1.0
C      1  0.4671630000000  0.5908480000000  0.5020190000000 1.0
C      1  0.4785860000000  0.5806430000000  0.4734120000000 1.0
C      1  0.5061700000000  0.5927010000000  0.4641690000000 1.0
C      1  0.5296960000000  0.5769690000000  0.4792040000000 1.0
C      1  0.5361480000000  0.5775550000000  0.5105640000000 1.0
C      1  0.5136730000000  0.5870880000000  0.5322210000000 1.0
C      1  0.4828440000000  0.5762560000000  0.5258890000000 1.0
C      1  0.4993930000000  0.4813980000000  0.4991770000000 1.0
C      1  0.5016760000000  0.4170000000000  0.4999660000000 1.0
C      1  0.4745720000000  0.4733890000000  0.4882380000000 1.0
C      1  0.4989800000000  0.5597030000000  0.4996350000000 1.0
END
