TITL C-3578209-2550-516 1.96376466654183e-06 125000 -831.815005404953 0 0 132 (C1) n - 1
REM
REM in /home/bkarasulu/work/CARBON/AIRSS/Generating-Clusters/EDIP-Nigel-Params/with-SteepDescent/Higher-Symm/SD-CG/HFTN-CG
REM
REM
REM
REM
REM
REM ./C.cell (12c818d87b63d06a65506943cc24bca4)
REM
REM compiler GCC version 9.2.1 20190827 (Red Hat 9.2.1-1)
REM options -cpp -mtune=generic -march=x86-64 -g -O0 -fpre-include=/usr/include/finclude/math-vector-fortran.h
REM seed -1479453371 -920630139 81038647 -629020255 964487623 -1729907666 199351202 -1075570689 -717375446 809325584 -1092217184 1255129379 -463849895 415672302 1532072959 440216421 587597947 -707152454 588260114 848501480 848147686 -307612833 450347802 1902141589 -1382713311 2112340157 -371358027 1679897758 -1128785849 1520102320 -1780248575 -908004333 535670086
REM
CELL 1.54180   50.00000   50.00000   50.00000   90.00000   90.00000   90.00000
LATT -1
SFAC C  
C      1  0.5146880000000  0.6002480000000  0.5401660000000 1.0
C      1  0.5151270000000  0.4014390000000  0.4583170000000 1.0
C      1  0.5160110000000  0.5981930000000  0.4589620000000 1.0
C      1  0.5150130000000  0.4003940000000  0.5398460000000 1.0
C      1  0.5050050000000  0.5612950000000  0.4286030000000 1.0
C      1  0.5044520000000  0.4369880000000  0.5709820000000 1.0
C      1  0.5047110000000  0.5632420000000  0.5713820000000 1.0
C      1  0.5041100000000  0.4387850000000  0.4281250000000 1.0
C      1  0.5478350000000  0.4300430000000  0.5520110000000 1.0
C      1  0.5491370000000  0.5676100000000  0.4472820000000 1.0
C      1  0.5476170000000  0.4315980000000  0.4465830000000 1.0
C      1  0.5477390000000  0.5707820000000  0.5529400000000 1.0
C      1  0.4384550000000  0.5695810000000  0.5402870000000 1.0
C      1  0.4423660000000  0.4352140000000  0.4672820000000 1.0
C      1  0.4429850000000  0.5643030000000  0.4662200000000 1.0
C      1  0.4424210000000  0.4353510000000  0.5324060000000 1.0
C      1  0.5838660000000  0.4528880000000  0.5323960000000 1.0
C      1  0.5868220000000  0.5465530000000  0.4705990000000 1.0
C      1  0.5839850000000  0.4541750000000  0.4663830000000 1.0
C      1  0.5840050000000  0.5477950000000  0.5341690000000 1.0
C      1  0.4715030000000  0.5998080000000  0.4851060000000 1.0
C      1  0.4715020000000  0.3997460000000  0.5144260000000 1.0
C      1  0.4700140000000  0.5980650000000  0.5147690000000 1.0
C      1  0.4716420000000  0.3996920000000  0.4846500000000 1.0
C      1  0.5244220000000  0.4161850000000  0.5642470000000 1.0
C      1  0.5254930000000  0.5815030000000  0.4352300000000 1.0
C      1  0.5243310000000  0.4178490000000  0.4341310000000 1.0
C      1  0.5242370000000  0.5845790000000  0.5647980000000 1.0
C      1  0.4996630000000  0.5578360000000  0.5156960000000 1.0
C      1  0.4989760000000  0.4428990000000  0.4842230000000 1.0
C      1  0.4994180000000  0.5571980000000  0.4842970000000 1.0
C      1  0.4989890000000  0.4428100000000  0.5155030000000 1.0
C      1  0.4038680000000  0.4735410000000  0.4855770000000 1.0
C      1  0.4052930000000  0.5274290000000  0.5148440000000 1.0
C      1  0.4041850000000  0.4740080000000  0.5152060000000 1.0
C      1  0.4052410000000  0.5268630000000  0.4853290000000 1.0
C      1  0.5278120000000  0.4851580000000  0.5912510000000 1.0
C      1  0.5269640000000  0.5132770000000  0.4072010000000 1.0
C      1  0.5270720000000  0.4840340000000  0.4076440000000 1.0
C      1  0.5278020000000  0.5145830000000  0.5915530000000 1.0
C      1  0.4804220000000  0.5355550000000  0.5221380000000 1.0
C      1  0.4798260000000  0.4657720000000  0.4780670000000 1.0
C      1  0.4804100000000  0.5342250000000  0.4780510000000 1.0
C      1  0.4800060000000  0.4658390000000  0.5221500000000 1.0
C      1  0.5135450000000  0.4635150000000  0.4449550000000 1.0
C      1  0.5138410000000  0.5381200000000  0.5554830000000 1.0
C      1  0.5136850000000  0.4623440000000  0.5551730000000 1.0
C      1  0.5134300000000  0.5363200000000  0.4450430000000 1.0
C      1  0.5905680000000  0.5226570000000  0.5172170000000 1.0
C      1  0.5896840000000  0.4798490000000  0.4844400000000 1.0
C      1  0.5927930000000  0.5240510000000  0.4879810000000 1.0
C      1  0.5901790000000  0.4784970000000  0.5149220000000 1.0
C      1  0.4739490000000  0.4850660000000  0.5899750000000 1.0
C      1  0.4734580000000  0.5138230000000  0.4095750000000 1.0
C      1  0.4733960000000  0.4840230000000  0.4100140000000 1.0
C      1  0.4739210000000  0.5148310000000  0.5902070000000 1.0
C      1  0.4633350000000  0.5267000000000  0.4356830000000 1.0
C      1  0.4631630000000  0.4730490000000  0.5638710000000 1.0
C      1  0.4633660000000  0.5273480000000  0.5642040000000 1.0
C      1  0.4627460000000  0.4725920000000  0.4362720000000 1.0
C      1  0.5625290000000  0.5396500000000  0.4414770000000 1.0
C      1  0.5627990000000  0.4558050000000  0.5600880000000 1.0
C      1  0.5625310000000  0.5447130000000  0.5610180000000 1.0
C      1  0.5625370000000  0.4575170000000  0.4391970000000 1.0
C      1  0.5374560000000  0.6027450000000  0.4773000000000 1.0
C      1  0.5362330000000  0.3961540000000  0.5211120000000 1.0
C      1  0.5360860000000  0.6045100000000  0.5216870000000 1.0
C      1  0.5366040000000  0.3967310000000  0.4766490000000 1.0
C      1  0.4317030000000  0.4790830000000  0.5254470000000 1.0
C      1  0.4325050000000  0.5219370000000  0.4749530000000 1.0
C      1  0.4312370000000  0.4777510000000  0.4745530000000 1.0
C      1  0.4325890000000  0.5234080000000  0.5253280000000 1.0
C      1  0.4371400000000  0.4855280000000  0.4464370000000 1.0
C      1  0.4379910000000  0.5149690000000  0.5532920000000 1.0
C      1  0.4376110000000  0.4862020000000  0.5535910000000 1.0
C      1  0.4377660000000  0.5142930000000  0.4467060000000 1.0
C      1  0.5747120000000  0.4312170000000  0.5137610000000 1.0
C      1  0.5760100000000  0.5687950000000  0.4861170000000 1.0
C      1  0.5749040000000  0.4318070000000  0.4845110000000 1.0
C      1  0.5748710000000  0.5693370000000  0.5153120000000 1.0
C      1  0.4911100000000  0.4161240000000  0.5303740000000 1.0
C      1  0.4915540000000  0.5833780000000  0.4690030000000 1.0
C      1  0.4911530000000  0.4165370000000  0.4687820000000 1.0
C      1  0.4910240000000  0.5838660000000  0.5307050000000 1.0
C      1  0.5374060000000  0.5216220000000  0.4337220000000 1.0
C      1  0.5393070000000  0.4750950000000  0.5656720000000 1.0
C      1  0.5391710000000  0.5251320000000  0.5661530000000 1.0
C      1  0.5390710000000  0.4772560000000  0.4341410000000 1.0
C      1  0.4438800000000  0.5861440000000  0.5173420000000 1.0
C      1  0.4445730000000  0.4089780000000  0.4803660000000 1.0
C      1  0.4446010000000  0.5904600000000  0.4793060000000 1.0
C      1  0.4446030000000  0.4093870000000  0.5185920000000 1.0
C      1  0.5380690000000  0.4733070000000  0.4860180000000 1.0
C      1  0.5388950000000  0.5276760000000  0.5149610000000 1.0
C      1  0.5380550000000  0.4735150000000  0.5144920000000 1.0
C      1  0.5368520000000  0.5260900000000  0.4865140000000 1.0
C      1  0.4999060000000  0.4755060000000  0.4036940000000 1.0
C      1  0.5006580000000  0.5222340000000  0.5966420000000 1.0
C      1  0.5006590000000  0.4774880000000  0.5963090000000 1.0
C      1  0.4999500000000  0.5212030000000  0.4024750000000 1.0
C      1  0.5253820000000  0.5495010000000  0.5291190000000 1.0
C      1  0.5249380000000  0.4515550000000  0.4713150000000 1.0
C      1  0.5250360000000  0.5480650000000  0.4713900000000 1.0
C      1  0.5249860000000  0.4512670000000  0.5285370000000 1.0
C      1  0.4810800000000  0.4241400000000  0.5581300000000 1.0
C      1  0.4818720000000  0.5749750000000  0.4410640000000 1.0
C      1  0.4810870000000  0.4249610000000  0.4411260000000 1.0
C      1  0.4812620000000  0.5754190000000  0.5584240000000 1.0
C      1  0.3816630000000  0.4849600000000  0.4722890000000 1.0
C      1  0.3850010000000  0.5122940000000  0.5268550000000 1.0
C      1  0.3821080000000  0.4855140000000  0.5286200000000 1.0
C      1  0.3846110000000  0.5117550000000  0.4738690000000 1.0
C      1  0.5545710000000  0.5809590000000  0.4720530000000 1.0
C      1  0.5536140000000  0.4175850000000  0.5268690000000 1.0
C      1  0.5537150000000  0.5833960000000  0.5279220000000 1.0
C      1  0.5540020000000  0.4182000000000  0.4710370000000 1.0
C      1  0.4519620000000  0.5417360000000  0.4840710000000 1.0
C      1  0.4510590000000  0.4590010000000  0.5158960000000 1.0
C      1  0.4520730000000  0.5435270000000  0.5154240000000 1.0
C      1  0.4510610000000  0.4584820000000  0.4844140000000 1.0
C      1  0.4874930000000  0.5193150000000  0.5464030000000 1.0
C      1  0.4870420000000  0.4814100000000  0.4537880000000 1.0
C      1  0.4872240000000  0.5185670000000  0.4536590000000 1.0
C      1  0.4874950000000  0.4816430000000  0.5464330000000 1.0
C      1  0.5592100000000  0.5154290000000  0.4714930000000 1.0
C      1  0.5614270000000  0.4847870000000  0.5288830000000 1.0
C      1  0.5618160000000  0.5157920000000  0.5297020000000 1.0
C      1  0.5607290000000  0.4852320000000  0.4715410000000 1.0
C      1  0.4575280000000  0.5589030000000  0.5602370000000 1.0
C      1  0.4570080000000  0.4412240000000  0.4408050000000 1.0
C      1  0.4578090000000  0.5584950000000  0.4399610000000 1.0
C      1  0.4573200000000  0.4410440000000  0.5588250000000 1.0
END
