TITL C-3578200-9634-426 -1.37855888378957e-06 125000 -941.432486712322 0 0 150 (C1) n - 1
REM
REM in /home/bkarasulu/work/CARBON/AIRSS/Generating-Clusters/EDIP-Nigel-Params/with-SteepDescent/Higher-Symm/SD-CG/HFTN-CG
REM
REM
REM
REM
REM
REM ./C.cell (12c818d87b63d06a65506943cc24bca4)
REM
REM compiler GCC version 9.2.1 20190827 (Red Hat 9.2.1-1)
REM options -cpp -mtune=generic -march=x86-64 -g -O0 -fpre-include=/usr/include/finclude/math-vector-fortran.h
REM seed 2027654122 -1784678071 -136317635 1085849431 1309574100 1970331358 -1140758341 -1856903520 960318573 2018185652 -200590679 -104977059 1853383043 586880085 1425867009 58847023 674260026 -67829180 -1229774754 -1594729957 -469760805 959858973 -512992926 1793912602 -785865928 1729800526 285709480 -1436297846 1425032628 1798816317 -771284887 580382650 134164243
REM
CELL 1.54180   50.00000   50.00000   50.00000   90.00000   90.00000   90.00000
LATT -1
SFAC C  
C      1  0.5246350000000  0.4329160000000  0.6002850000000 1.0
C      1  0.4394080000000  0.6099050000000  0.5256840000000 1.0
C      1  0.5917850000000  0.5146650000000  0.4384700000000 1.0
C      1  0.4749330000000  0.5616370000000  0.6020050000000 1.0
C      1  0.5196740000000  0.5582560000000  0.3928240000000 1.0
C      1  0.4783160000000  0.4390030000000  0.3985990000000 1.0
C      1  0.5671840000000  0.3961120000000  0.5231540000000 1.0
C      1  0.4362400000000  0.3943840000000  0.4726920000000 1.0
C      1  0.5527240000000  0.5975060000000  0.4746800000000 1.0
C      1  0.3975720000000  0.4758210000000  0.4358680000000 1.0
C      1  0.6055350000000  0.4746260000000  0.5662860000000 1.0
C      1  0.3955930000000  0.5283150000000  0.5592970000000 1.0
C      1  0.4357450000000  0.5236510000000  0.5974800000000 1.0
C      1  0.6099370000000  0.4377920000000  0.5271120000000 1.0
C      1  0.5148800000000  0.5927630000000  0.4412960000000 1.0
C      1  0.5630710000000  0.4728080000000  0.6035710000000 1.0
C      1  0.5572900000000  0.5205330000000  0.3924860000000 1.0
C      1  0.4391150000000  0.4772030000000  0.3975470000000 1.0
C      1  0.3965720000000  0.5679460000000  0.5222150000000 1.0
C      1  0.3991150000000  0.4380170000000  0.4754420000000 1.0
C      1  0.5971760000000  0.5535260000000  0.4740050000000 1.0
C      1  0.4755670000000  0.3959420000000  0.4360160000000 1.0
C      1  0.4773920000000  0.6046430000000  0.5625060000000 1.0
C      1  0.5308690000000  0.3912900000000  0.5615790000000 1.0
C      1  0.5201280000000  0.4000270000000  0.5369360000000 1.0
C      1  0.4018630000000  0.5416460000000  0.5133780000000 1.0
C      1  0.5315300000000  0.5110120000000  0.3988560000000 1.0
C      1  0.4857750000000  0.5985040000000  0.5361510000000 1.0
C      1  0.5056410000000  0.5909790000000  0.4680350000000 1.0
C      1  0.4839630000000  0.3968710000000  0.4630380000000 1.0
C      1  0.6019630000000  0.4634170000000  0.5180310000000 1.0
C      1  0.4061880000000  0.4646370000000  0.4820210000000 1.0
C      1  0.5949320000000  0.5269500000000  0.4835120000000 1.0
C      1  0.4645530000000  0.4852480000000  0.4062360000000 1.0
C      1  0.5364980000000  0.4802750000000  0.5987200000000 1.0
C      1  0.4620090000000  0.5138900000000  0.5970870000000 1.0
C      1  0.4009740000000  0.5198860000000  0.5330830000000 1.0
C      1  0.5406100000000  0.4026630000000  0.5158540000000 1.0
C      1  0.5104870000000  0.5322290000000  0.3987040000000 1.0
C      1  0.5993960000000  0.4834950000000  0.5401640000000 1.0
C      1  0.5924540000000  0.5047180000000  0.4647720000000 1.0
C      1  0.3994750000000  0.4851210000000  0.4623490000000 1.0
C      1  0.4643970000000  0.6011790000000  0.5153170000000 1.0
C      1  0.4620810000000  0.4010070000000  0.4822690000000 1.0
C      1  0.5273520000000  0.5972770000000  0.4875360000000 1.0
C      1  0.4852180000000  0.4647980000000  0.4074320000000 1.0
C      1  0.4820500000000  0.5347670000000  0.5978420000000 1.0
C      1  0.5163860000000  0.4594440000000  0.5964130000000 1.0
C      1  0.4818930000000  0.5010920000000  0.5412530000000 1.0
C      1  0.4879850000000  0.5424640000000  0.4779260000000 1.0
C      1  0.5544270000000  0.4670140000000  0.5192580000000 1.0
C      1  0.5250590000000  0.5031230000000  0.5432810000000 1.0
C      1  0.4831300000000  0.5058440000000  0.4485520000000 1.0
C      1  0.5311810000000  0.5023320000000  0.4534640000000 1.0
C      1  0.5008020000000  0.4684260000000  0.4742910000000 1.0
C      1  0.5022910000000  0.4558870000000  0.5242270000000 1.0
C      1  0.4931800000000  0.5485320000000  0.5259070000000 1.0
C      1  0.4532420000000  0.5281190000000  0.5088850000000 1.0
C      1  0.5595170000000  0.5410530000000  0.5041740000000 1.0
C      1  0.4589570000000  0.4821250000000  0.4966000000000 1.0
C      1  0.5025860000000  0.4781350000000  0.5448180000000 1.0
C      1  0.5455070000000  0.4942120000000  0.4778630000000 1.0
C      1  0.4647820000000  0.5528270000000  0.5186630000000 1.0
C      1  0.4968820000000  0.5273540000000  0.5462940000000 1.0
C      1  0.5056530000000  0.4857260000000  0.4493810000000 1.0
C      1  0.4979520000000  0.5314010000000  0.4535720000000 1.0
C      1  0.4633560000000  0.5002790000000  0.4719620000000 1.0
C      1  0.4568180000000  0.5009710000000  0.5215770000000 1.0
C      1  0.5527440000000  0.4963110000000  0.5259840000000 1.0
C      1  0.5290780000000  0.4576670000000  0.5089870000000 1.0
C      1  0.5324330000000  0.5525850000000  0.4986090000000 1.0
C      1  0.4814870000000  0.4598030000000  0.4983590000000 1.0
C      1  0.4287040000000  0.4710240000000  0.5016700000000 1.0
C      1  0.4681940000000  0.5106230000000  0.4220840000000 1.0
C      1  0.5088120000000  0.4107370000000  0.4695020000000 1.0
C      1  0.5927740000000  0.5222340000000  0.5118030000000 1.0
C      1  0.4013720000000  0.5357220000000  0.4847610000000 1.0
C      1  0.5772890000000  0.4623020000000  0.5001930000000 1.0
C      1  0.5313380000000  0.4836750000000  0.4085980000000 1.0
C      1  0.4684850000000  0.4896840000000  0.5817440000000 1.0
C      1  0.5316680000000  0.5063320000000  0.5867390000000 1.0
C      1  0.4812190000000  0.5723770000000  0.4741720000000 1.0
C      1  0.5061830000000  0.5757780000000  0.5327630000000 1.0
C      1  0.5006860000000  0.4214030000000  0.5403750000000 1.0
C      1  0.4648260000000  0.4252280000000  0.4977690000000 1.0
C      1  0.5101700000000  0.4695400000000  0.4236670000000 1.0
C      1  0.4100700000000  0.5117510000000  0.4671130000000 1.0
C      1  0.5292070000000  0.5788010000000  0.5113060000000 1.0
C      1  0.5332220000000  0.4025930000000  0.4874850000000 1.0
C      1  0.4614380000000  0.5760390000000  0.4990390000000 1.0
C      1  0.4831310000000  0.5319070000000  0.4077790000000 1.0
C      1  0.4897280000000  0.4660300000000  0.5853920000000 1.0
C      1  0.5088580000000  0.5281780000000  0.5887420000000 1.0
C      1  0.5736960000000  0.4816240000000  0.4728740000000 1.0
C      1  0.5805880000000  0.5071010000000  0.5347510000000 1.0
C      1  0.4192700000000  0.4961420000000  0.5302930000000 1.0
C      1  0.4448200000000  0.5304250000000  0.4298720000000 1.0
C      1  0.5280320000000  0.4207780000000  0.4476220000000 1.0
C      1  0.4326230000000  0.4516610000000  0.5251040000000 1.0
C      1  0.5537750000000  0.4604930000000  0.4300440000000 1.0
C      1  0.4482360000000  0.4696260000000  0.5704810000000 1.0
C      1  0.5494690000000  0.5270700000000  0.5713730000000 1.0
C      1  0.4595460000000  0.5735100000000  0.4523670000000 1.0
C      1  0.5269220000000  0.5724690000000  0.5551900000000 1.0
C      1  0.4739010000000  0.4312700000000  0.5465350000000 1.0
C      1  0.5677890000000  0.5523260000000  0.5329560000000 1.0
C      1  0.4127470000000  0.5556340000000  0.4632650000000 1.0
C      1  0.5694380000000  0.4371560000000  0.4719990000000 1.0
C      1  0.5284900000000  0.4467370000000  0.4330720000000 1.0
C      1  0.4186100000000  0.5306590000000  0.4444290000000 1.0
C      1  0.4558870000000  0.4340100000000  0.5237400000000 1.0
C      1  0.4605330000000  0.5550800000000  0.4291070000000 1.0
C      1  0.4689410000000  0.4466410000000  0.5717610000000 1.0
C      1  0.5269240000000  0.5476420000000  0.5718210000000 1.0
C      1  0.5722610000000  0.4590920000000  0.4527410000000 1.0
C      1  0.5723390000000  0.5301830000000  0.5529550000000 1.0
C      1  0.4326180000000  0.4729270000000  0.5454510000000 1.0
C      1  0.5525210000000  0.5760090000000  0.5413860000000 1.0
C      1  0.5525610000000  0.4143460000000  0.4658360000000 1.0
C      1  0.4362010000000  0.5716640000000  0.4702920000000 1.0
C      1  0.4532150000000  0.4119410000000  0.4310000000000 1.0
C      1  0.4134330000000  0.4328960000000  0.4519220000000 1.0
C      1  0.4339820000000  0.4536110000000  0.4118210000000 1.0
C      1  0.5387360000000  0.5801960000000  0.4334390000000 1.0
C      1  0.4544660000000  0.5889670000000  0.5662420000000 1.0
C      1  0.5517590000000  0.4093440000000  0.5666040000000 1.0
C      1  0.5795440000000  0.5593570000000  0.4530760000000 1.0
C      1  0.4132960000000  0.5712300000000  0.5444780000000 1.0
C      1  0.5918730000000  0.4321030000000  0.5478620000000 1.0
C      1  0.5612800000000  0.5418180000000  0.4104410000000 1.0
C      1  0.4327390000000  0.5477370000000  0.5836490000000 1.0
C      1  0.5679480000000  0.4510400000000  0.5870640000000 1.0
C      1  0.4133190000000  0.4531480000000  0.4315650000000 1.0
C      1  0.4325450000000  0.4115790000000  0.4508450000000 1.0
C      1  0.4543890000000  0.4333480000000  0.4120820000000 1.0
C      1  0.5791080000000  0.5390450000000  0.4327530000000 1.0
C      1  0.5902890000000  0.4512850000000  0.5692030000000 1.0
C      1  0.4127830000000  0.5498820000000  0.5635930000000 1.0
C      1  0.5595350000000  0.5806660000000  0.4531570000000 1.0
C      1  0.5718360000000  0.4114430000000  0.5461900000000 1.0
C      1  0.4340060000000  0.5914030000000  0.5461730000000 1.0
C      1  0.5408360000000  0.5621850000000  0.4108970000000 1.0
C      1  0.5483900000000  0.4302860000000  0.5857980000000 1.0
C      1  0.4540290000000  0.5667450000000  0.5844660000000 1.0
C      1  0.4629560000000  0.5272080000000  0.4821640000000 1.0
C      1  0.5507870000000  0.5124000000000  0.5015820000000 1.0
C      1  0.5255530000000  0.5293090000000  0.4530850000000 1.0
C      1  0.5085850000000  0.5053350000000  0.5113760000000 1.0
C      1  0.5071020000000  0.5365280000000  0.5017000000000 1.0
C      1  0.5210060000000  0.4807800000000  0.4923800000000 1.0
END
