TITL C-3578195-8548-510 -6.03822826115814e-08 125000 -548.832956258076 0 0 89 (C1) n - 1
REM
REM in /home/bkarasulu/work/CARBON/AIRSS/Generating-Clusters/EDIP-Nigel-Params/with-SteepDescent/Higher-Symm/SD-CG/HFTN-CG
REM
REM
REM
REM
REM
REM ./C.cell (12c818d87b63d06a65506943cc24bca4)
REM
REM compiler GCC version 9.2.1 20190827 (Red Hat 9.2.1-1)
REM options -cpp -mtune=generic -march=x86-64 -g -O0 -fpre-include=/usr/include/finclude/math-vector-fortran.h
REM seed -639606239 -1481906592 669381917 -110503292 -1594711826 -1804384003 343642670 404689598 -213687056 561816227 1239192107 1982919077 2097179281 294464161 -1358766941 583078196 -170027645 -1593420276 744834944 453818339 1292314336 -684894658 526428666 1863224883 2106621452 -1383159192 -1488836640 2035117924 1346548897 1177740792 -1997912766 -1652235089 -1114201422
REM
CELL 1.54180   50.00000   50.00000   50.00000   90.00000   90.00000   90.00000
LATT -1
SFAC C  
C      1  0.5707730000000  0.4641510000000  0.4845860000000 1.0
C      1  0.5415820000000  0.5324720000000  0.5772190000000 1.0
C      1  0.4684690000000  0.4613280000000  0.5566360000000 1.0
C      1  0.4364850000000  0.5208040000000  0.4680950000000 1.0
C      1  0.5234530000000  0.4806310000000  0.4780100000000 1.0
C      1  0.4712390000000  0.4970090000000  0.5189010000000 1.0
C      1  0.4517150000000  0.5705320000000  0.5068540000000 1.0
C      1  0.4577080000000  0.4311990000000  0.4897260000000 1.0
C      1  0.4530320000000  0.4877530000000  0.4344650000000 1.0
C      1  0.4786550000000  0.5812930000000  0.5148050000000 1.0
C      1  0.5117500000000  0.5613130000000  0.4505860000000 1.0
C      1  0.4277860000000  0.4900690000000  0.5452700000000 1.0
C      1  0.4998870000000  0.4519080000000  0.4250840000000 1.0
C      1  0.4568280000000  0.4875830000000  0.5506730000000 1.0
C      1  0.4585530000000  0.4377720000000  0.5433570000000 1.0
C      1  0.5082040000000  0.4362200000000  0.5441490000000 1.0
C      1  0.5292080000000  0.5162510000000  0.5146430000000 1.0
C      1  0.5498640000000  0.4665540000000  0.4373370000000 1.0
C      1  0.4656380000000  0.5121440000000  0.4208410000000 1.0
C      1  0.5167370000000  0.5575800000000  0.5301500000000 1.0
C      1  0.5040850000000  0.5362430000000  0.4390800000000 1.0
C      1  0.4626210000000  0.5448130000000  0.5613410000000 1.0
C      1  0.4382490000000  0.5460180000000  0.5148630000000 1.0
C      1  0.4742920000000  0.5210330000000  0.5735160000000 1.0
C      1  0.5210220000000  0.5620670000000  0.4999940000000 1.0
C      1  0.5012890000000  0.4111650000000  0.4889010000000 1.0
C      1  0.4922910000000  0.4585990000000  0.4850840000000 1.0
C      1  0.5671700000000  0.4443770000000  0.5072680000000 1.0
C      1  0.5692220000000  0.5122130000000  0.5431360000000 1.0
C      1  0.5115900000000  0.4235710000000  0.4659610000000 1.0
C      1  0.5493980000000  0.5325640000000  0.4469480000000 1.0
C      1  0.5015730000000  0.5169770000000  0.5614860000000 1.0
C      1  0.4820110000000  0.5250970000000  0.5151010000000 1.0
C      1  0.4787480000000  0.4682860000000  0.4132160000000 1.0
C      1  0.4370890000000  0.4497000000000  0.4854540000000 1.0
C      1  0.4371160000000  0.5398580000000  0.5439690000000 1.0
C      1  0.5728970000000  0.5189320000000  0.4563100000000 1.0
C      1  0.4796030000000  0.4206390000000  0.5034990000000 1.0
C      1  0.4462150000000  0.4939320000000  0.5014060000000 1.0
C      1  0.5700080000000  0.5148300000000  0.4841830000000 1.0
C      1  0.5063400000000  0.5284230000000  0.5311560000000 1.0
C      1  0.4322770000000  0.4932280000000  0.4564350000000 1.0
C      1  0.4976540000000  0.4615530000000  0.5590140000000 1.0
C      1  0.5123850000000  0.4873410000000  0.5640080000000 1.0
C      1  0.5151120000000  0.5102760000000  0.4640290000000 1.0
C      1  0.5703580000000  0.5378000000000  0.5005920000000 1.0
C      1  0.4869120000000  0.5623110000000  0.5641510000000 1.0
C      1  0.5614540000000  0.4928490000000  0.4314050000000 1.0
C      1  0.5459610000000  0.4615180000000  0.4669580000000 1.0
C      1  0.4225500000000  0.4839310000000  0.5171600000000 1.0
C      1  0.5551410000000  0.5091180000000  0.5688510000000 1.0
C      1  0.5396770000000  0.5127320000000  0.4273180000000 1.0
C      1  0.4750380000000  0.4765440000000  0.4656620000000 1.0
C      1  0.4336070000000  0.4382850000000  0.5301710000000 1.0
C      1  0.4882290000000  0.4960760000000  0.4092760000000 1.0
C      1  0.5320840000000  0.4648580000000  0.5320340000000 1.0
C      1  0.5176920000000  0.4412290000000  0.5127980000000 1.0
C      1  0.4216920000000  0.5170260000000  0.5504890000000 1.0
C      1  0.4217390000000  0.4540480000000  0.5102390000000 1.0
C      1  0.4749910000000  0.5441830000000  0.4912620000000 1.0
C      1  0.5146670000000  0.5396480000000  0.5755190000000 1.0
C      1  0.5427120000000  0.4281690000000  0.5006530000000 1.0
C      1  0.5556540000000  0.5320490000000  0.5253850000000 1.0
C      1  0.5286620000000  0.5303110000000  0.4859920000000 1.0
C      1  0.5622420000000  0.4607820000000  0.5321300000000 1.0
C      1  0.5467730000000  0.5598500000000  0.5359040000000 1.0
C      1  0.4858010000000  0.5036340000000  0.4712870000000 1.0
C      1  0.4820200000000  0.4240940000000  0.5323530000000 1.0
C      1  0.5629770000000  0.5635450000000  0.4897350000000 1.0
C      1  0.5753660000000  0.4872630000000  0.5268320000000 1.0
C      1  0.4987990000000  0.5804250000000  0.4925710000000 1.0
C      1  0.4072870000000  0.5057770000000  0.5049480000000 1.0
C      1  0.4903270000000  0.5700960000000  0.4679360000000 1.0
C      1  0.5396530000000  0.4856770000000  0.5694080000000 1.0
C      1  0.5226060000000  0.4854870000000  0.5097740000000 1.0
C      1  0.4751260000000  0.5339290000000  0.4393290000000 1.0
C      1  0.4471070000000  0.4767000000000  0.4770850000000 1.0
C      1  0.5399180000000  0.5576270000000  0.4605590000000 1.0
C      1  0.5530330000000  0.5777830000000  0.5127800000000 1.0
C      1  0.5237080000000  0.4695670000000  0.4229240000000 1.0
C      1  0.5764580000000  0.4899100000000  0.4972590000000 1.0
C      1  0.4665640000000  0.5263830000000  0.4672860000000 1.0
C      1  0.4225760000000  0.5284710000000  0.4945870000000 1.0
C      1  0.4943690000000  0.4403610000000  0.4507020000000 1.0
C      1  0.4932500000000  0.4777520000000  0.5101910000000 1.0
C      1  0.4961220000000  0.5766830000000  0.5406230000000 1.0
C      1  0.5150010000000  0.4970460000000  0.4223300000000 1.0
C      1  0.4578440000000  0.4995140000000  0.5769750000000 1.0
C      1  0.5384330000000  0.4326540000000  0.4718270000000 1.0
END
