TITL C-3577077-324-650 -1.01363321006324e-06 125000 -778.41354454917 0 0 128 (C1) n - 1
REM
REM in /home/bkarasulu/work/CARBON/AIRSS/Generating-Clusters/EDIP-Nigel-Params/with-SteepDescent/Higher-Symm/SD-CG/HFTN-CG
REM
REM
REM
REM
REM
REM ./C.cell (12c818d87b63d06a65506943cc24bca4)
REM
REM compiler GCC version 9.2.1 20190827 (Red Hat 9.2.1-1)
REM options -cpp -mtune=generic -march=x86-64 -g -O0 -fpre-include=/usr/include/finclude/math-vector-fortran.h
REM seed -1900735052 1847305140 -162232465 1186734240 -1487894363 672582776 687463832 1155861633 -1807511902 -455382782 1217631897 -1590468023 -1287503163 806238002 -1319447643 1384095720 -1306123467 2095550627 -1342594158 1874432156 -1764746743 239693061 127194046 -1008702044 -2107555369 1869222647 -1781695609 1376139878 -339003554 -1179241618 254450456 -1598033972 810407953
REM
CELL 1.54180   50.00000   50.00000   50.00000   90.00000   90.00000   90.00000
LATT -1
SFAC C  
C      1  0.5255220000000  0.5369950000000  0.5694170000000 1.0
C      1  0.5454260000000  0.5241480000000  0.5196380000000 1.0
C      1  0.5210090000000  0.5653410000000  0.5272130000000 1.0
C      1  0.4785270000000  0.5312580000000  0.4302840000000 1.0
C      1  0.5321800000000  0.4722950000000  0.4331920000000 1.0
C      1  0.4792940000000  0.4667690000000  0.5688060000000 1.0
C      1  0.4488530000000  0.5204970000000  0.4712100000000 1.0
C      1  0.5431720000000  0.4779420000000  0.4805890000000 1.0
C      1  0.4543790000000  0.4804480000000  0.5293940000000 1.0
C      1  0.4976790000000  0.5361830000000  0.4702240000000 1.0
C      1  0.5196890000000  0.4332320000000  0.4732510000000 1.0
C      1  0.4891640000000  0.4408150000000  0.5310280000000 1.0
C      1  0.5323610000000  0.4717550000000  0.5664440000000 1.0
C      1  0.5431130000000  0.4776380000000  0.5195790000000 1.0
C      1  0.5208200000000  0.4327210000000  0.5311810000000 1.0
C      1  0.4817690000000  0.4726910000000  0.4376610000000 1.0
C      1  0.5320070000000  0.5276090000000  0.4300950000000 1.0
C      1  0.4832970000000  0.5241130000000  0.5677740000000 1.0
C      1  0.4582730000000  0.4789030000000  0.4794480000000 1.0
C      1  0.5468380000000  0.5265780000000  0.4756900000000 1.0
C      1  0.4547990000000  0.5151020000000  0.5264350000000 1.0
C      1  0.4892450000000  0.4439210000000  0.4756620000000 1.0
C      1  0.5251660000000  0.5703160000000  0.4728410000000 1.0
C      1  0.4910540000000  0.5483170000000  0.5249540000000 1.0
C      1  0.4725190000000  0.5145850000000  0.3852830000000 1.0
C      1  0.3889060000000  0.4707140000000  0.4926590000000 1.0
C      1  0.4947240000000  0.3927380000000  0.4768520000000 1.0
C      1  0.5298440000000  0.5145570000000  0.6138710000000 1.0
C      1  0.4747520000000  0.4840290000000  0.6136660000000 1.0
C      1  0.5273350000000  0.4855630000000  0.3842410000000 1.0
C      1  0.5917110000000  0.4754160000000  0.4885920000000 1.0
C      1  0.4082420000000  0.5415800000000  0.4862270000000 1.0
C      1  0.5920400000000  0.5231740000000  0.5043950000000 1.0
C      1  0.4801040000000  0.3936370000000  0.5246700000000 1.0
C      1  0.4960110000000  0.6084620000000  0.5281650000000 1.0
C      1  0.4757210000000  0.5944020000000  0.4728240000000 1.0
C      1  0.4726500000000  0.4885590000000  0.3921490000000 1.0
C      1  0.4098410000000  0.5331030000000  0.5138770000000 1.0
C      1  0.4982410000000  0.6111580000000  0.4726550000000 1.0
C      1  0.5319880000000  0.4877020000000  0.6148800000000 1.0
C      1  0.4771570000000  0.5106700000000  0.6144650000000 1.0
C      1  0.5304670000000  0.5125790000000  0.3818000000000 1.0
C      1  0.5956930000000  0.5257860000000  0.4777070000000 1.0
C      1  0.4042320000000  0.4739270000000  0.4695510000000 1.0
C      1  0.5942010000000  0.4726560000000  0.5153130000000 1.0
C      1  0.4736620000000  0.5930560000000  0.5257810000000 1.0
C      1  0.5057030000000  0.3850120000000  0.5279570000000 1.0
C      1  0.4685490000000  0.4004680000000  0.4741610000000 1.0
C      1  0.4834340000000  0.5686430000000  0.4861880000000 1.0
C      1  0.4904980000000  0.4700330000000  0.5952980000000 1.0
C      1  0.5715110000000  0.4839240000000  0.4701940000000 1.0
C      1  0.5168210000000  0.5935950000000  0.5160130000000 1.0
C      1  0.4735220000000  0.4198770000000  0.5172260000000 1.0
C      1  0.5179410000000  0.4058640000000  0.4860160000000 1.0
C      1  0.5164410000000  0.4724630000000  0.4066640000000 1.0
C      1  0.4887410000000  0.5280960000000  0.4038740000000 1.0
C      1  0.5166950000000  0.5338300000000  0.5984670000000 1.0
C      1  0.4053560000000  0.4792240000000  0.5135330000000 1.0
C      1  0.5724910000000  0.5142080000000  0.5225210000000 1.0
C      1  0.3989710000000  0.5213860000000  0.4692880000000 1.0
C      1  0.4674840000000  0.4258080000000  0.4888800000000 1.0
C      1  0.4880840000000  0.5287630000000  0.5962880000000 1.0
C      1  0.5720040000000  0.5138380000000  0.4659480000000 1.0
C      1  0.5219170000000  0.4050450000000  0.5161640000000 1.0
C      1  0.4720670000000  0.5678980000000  0.5131410000000 1.0
C      1  0.5180180000000  0.5955950000000  0.4862400000000 1.0
C      1  0.5173700000000  0.5235610000000  0.4044260000000 1.0
C      1  0.4876740000000  0.4723740000000  0.4092300000000 1.0
C      1  0.5183150000000  0.4771100000000  0.5928530000000 1.0
C      1  0.4045560000000  0.5063070000000  0.5188760000000 1.0
C      1  0.5714300000000  0.4859850000000  0.5264990000000 1.0
C      1  0.4163430000000  0.5000010000000  0.4665250000000 1.0
C      1  0.4377310000000  0.5415820000000  0.5202730000000 1.0
C      1  0.5329960000000  0.4407430000000  0.5603980000000 1.0
C      1  0.5606550000000  0.5176920000000  0.4295010000000 1.0
C      1  0.5508440000000  0.5561900000000  0.4800120000000 1.0
C      1  0.4430390000000  0.4536500000000  0.4884770000000 1.0
C      1  0.5443180000000  0.4478170000000  0.5174380000000 1.0
C      1  0.4796880000000  0.4450910000000  0.4472420000000 1.0
C      1  0.5215620000000  0.5686820000000  0.4432630000000 1.0
C      1  0.4856940000000  0.5499440000000  0.5545300000000 1.0
C      1  0.4561680000000  0.5140540000000  0.5585640000000 1.0
C      1  0.5593560000000  0.4858380000000  0.5690340000000 1.0
C      1  0.4555570000000  0.4842260000000  0.4481550000000 1.0
C      1  0.4310010000000  0.4637930000000  0.5166080000000 1.0
C      1  0.5270760000000  0.5653210000000  0.5575310000000 1.0
C      1  0.5592720000000  0.4855590000000  0.4252910000000 1.0
C      1  0.5437130000000  0.4472880000000  0.4868520000000 1.0
C      1  0.4373020000000  0.5473390000000  0.4816990000000 1.0
C      1  0.5473040000000  0.5532580000000  0.5154410000000 1.0
C      1  0.4900340000000  0.5533620000000  0.4453910000000 1.0
C      1  0.5352860000000  0.4430340000000  0.4427220000000 1.0
C      1  0.4796690000000  0.4394390000000  0.5592450000000 1.0
C      1  0.4521530000000  0.4773040000000  0.5612170000000 1.0
C      1  0.5543840000000  0.5194970000000  0.5626490000000 1.0
C      1  0.4515700000000  0.5213950000000  0.4393070000000 1.0
C      1  0.5749850000000  0.5412760000000  0.5570370000000 1.0
C      1  0.5688430000000  0.5622130000000  0.5358450000000 1.0
C      1  0.5547040000000  0.5738440000000  0.5589710000000 1.0
C      1  0.4331270000000  0.5434980000000  0.4339540000000 1.0
C      1  0.5755590000000  0.4699200000000  0.4438770000000 1.0
C      1  0.4335830000000  0.4528660000000  0.5626710000000 1.0
C      1  0.4404060000000  0.5613250000000  0.4548800000000 1.0
C      1  0.5681240000000  0.4355230000000  0.4753140000000 1.0
C      1  0.4258200000000  0.4426830000000  0.5364150000000 1.0
C      1  0.4672290000000  0.5744470000000  0.4509780000000 1.0
C      1  0.5644430000000  0.4424720000000  0.4478830000000 1.0
C      1  0.4521040000000  0.4303410000000  0.5618440000000 1.0
C      1  0.5761410000000  0.4622760000000  0.5631660000000 1.0
C      1  0.5693820000000  0.4401490000000  0.5319180000000 1.0
C      1  0.5622080000000  0.4367820000000  0.5597360000000 1.0
C      1  0.4357990000000  0.4624620000000  0.4402260000000 1.0
C      1  0.5777580000000  0.5430350000000  0.4335370000000 1.0
C      1  0.4357640000000  0.5334550000000  0.5676170000000 1.0
C      1  0.4227070000000  0.4512920000000  0.4653320000000 1.0
C      1  0.5687360000000  0.5638440000000  0.4534800000000 1.0
C      1  0.4349530000000  0.5544930000000  0.5476810000000 1.0
C      1  0.4516810000000  0.4383940000000  0.4423120000000 1.0
C      1  0.5486310000000  0.5681780000000  0.4320790000000 1.0
C      1  0.4599500000000  0.5631840000000  0.5598080000000 1.0
C      1  0.5233080000000  0.5189090000000  0.4587030000000 1.0
C      1  0.4808530000000  0.5211590000000  0.5135430000000 1.0
C      1  0.4810310000000  0.4679620000000  0.5192280000000 1.0
C      1  0.5229810000000  0.4878540000000  0.4592640000000 1.0
C      1  0.5226800000000  0.4850990000000  0.5404820000000 1.0
C      1  0.4775150000000  0.5185610000000  0.4837150000000 1.0
C      1  0.4844750000000  0.4702550000000  0.4898200000000 1.0
C      1  0.5245940000000  0.5143980000000  0.5384840000000 1.0
END
