TITL C-3578203-1966-345 -1.60056911190947e-06 125000 -139.212885033947 0 0 24 (C1) n - 1
REM
REM in /home/bkarasulu/work/CARBON/AIRSS/Generating-Clusters/EDIP-Nigel-Params/with-SteepDescent/Higher-Symm/SD-CG/HFTN-CG
REM
REM
REM
REM
REM
REM ./C.cell (12c818d87b63d06a65506943cc24bca4)
REM
REM compiler GCC version 9.2.1 20190827 (Red Hat 9.2.1-1)
REM options -cpp -mtune=generic -march=x86-64 -g -O0 -fpre-include=/usr/include/finclude/math-vector-fortran.h
REM seed -2022941789 -639170244 1014746244 2009999772 -1474404000 2118488234 -1652194934 -154924595 2085881935 362004128 -1775601889 281030520 100475962 372355399 -265681474 -369131815 1045224654 -1159857505 862159861 -545825246 -2031067933 460625323 -1431205176 24928096 -1895718728 -1741268782 -567473843 -1334866972 1934858396 -415966801 1938116072 1705010234 -335537466
REM
CELL 1.54180   50.00000   50.00000   50.00000   90.00000   90.00000   90.00000
LATT -1
SFAC C  
C      1  0.4588050000000  0.5186990000000  0.5333360000000 1.0
C      1  0.4433040000000  0.4752700000000  0.5295980000000 1.0
C      1  0.4377040000000  0.4803220000000  0.5022130000000 1.0
C      1  0.4497340000000  0.5271260000000  0.5074190000000 1.0
C      1  0.4726500000000  0.5240330000000  0.4879070000000 1.0
C      1  0.4623690000000  0.4755300000000  0.4864770000000 1.0
C      1  0.5109030000000  0.5148030000000  0.4460290000000 1.0
C      1  0.5128400000000  0.4743720000000  0.4750810000000 1.0
C      1  0.5387000000000  0.5147760000000  0.4477190000000 1.0
C      1  0.5420680000000  0.4750890000000  0.4680120000000 1.0
C      1  0.4619170000000  0.4919750000000  0.5426740000000 1.0
C      1  0.5475040000000  0.4875020000000  0.4420470000000 1.0
C      1  0.5348470000000  0.4829560000000  0.5438790000000 1.0
C      1  0.4879150000000  0.4813900000000  0.5437460000000 1.0
C      1  0.5118040000000  0.4767970000000  0.5296510000000 1.0
C      1  0.5490470000000  0.5061990000000  0.4764770000000 1.0
C      1  0.5420900000000  0.5209600000000  0.5224490000000 1.0
C      1  0.5105270000000  0.4894700000000  0.5019880000000 1.0
C      1  0.5488750000000  0.5060780000000  0.5439480000000 1.0
C      1  0.5297170000000  0.5128090000000  0.4989320000000 1.0
C      1  0.4967260000000  0.4921040000000  0.4551630000000 1.0
C      1  0.4694210000000  0.4989370000000  0.4662720000000 1.0
C      1  0.4810660000000  0.4964890000000  0.5035020000000 1.0
C      1  0.4309910000000  0.5077690000000  0.4982140000000 1.0
END
