TITL C-3577090-796-361 -6.44390977271357e-08 125000 -1154.53452404981 0 0 183 (C1) n - 1
REM
REM in /home/bkarasulu/work/CARBON/AIRSS/Generating-Clusters/EDIP-Nigel-Params/with-SteepDescent/Higher-Symm/SD-CG/HFTN-CG
REM
REM
REM
REM
REM
REM ./C.cell (12c818d87b63d06a65506943cc24bca4)
REM
REM compiler GCC version 9.2.1 20190827 (Red Hat 9.2.1-1)
REM options -cpp -mtune=generic -march=x86-64 -g -O0 -fpre-include=/usr/include/finclude/math-vector-fortran.h
REM seed -210581937 -2029968313 1332491190 1974525855 212525738 -2124798123 -1117017910 -1479203101 908834696 -1578125317 118196748 1554947440 -589280457 1149519734 -35438798 251578742 2020230354 -91183523 -1255315588 -541708685 1466768757 1825531565 -1397838506 1579494197 -693613480 635442823 1895182964 847863302 709513687 -1625334466 1743035256 1548848900 1936370038
REM
CELL 1.54180   50.00000   50.00000   50.00000   90.00000   90.00000   90.00000
LATT -1
SFAC C  
C      1  0.4476390000000  0.4969910000000  0.5887520000000 1.0
C      1  0.4656320000000  0.5388120000000  0.5860860000000 1.0
C      1  0.5090310000000  0.5517900000000  0.5825640000000 1.0
C      1  0.5443180000000  0.5232220000000  0.5877770000000 1.0
C      1  0.5507240000000  0.4782630000000  0.5846310000000 1.0
C      1  0.5143230000000  0.4505120000000  0.5895080000000 1.0
C      1  0.4687880000000  0.4566660000000  0.5885110000000 1.0
C      1  0.4194310000000  0.5044360000000  0.4311960000000 1.0
C      1  0.4440060000000  0.5638630000000  0.4199960000000 1.0
C      1  0.5200070000000  0.5802020000000  0.4275190000000 1.0
C      1  0.5731510000000  0.5351190000000  0.4181170000000 1.0
C      1  0.5760800000000  0.4640400000000  0.4328840000000 1.0
C      1  0.5118410000000  0.4281000000000  0.4369580000000 1.0
C      1  0.4515420000000  0.4363960000000  0.4202760000000 1.0
C      1  0.4519340000000  0.5828080000000  0.5343780000000 1.0
C      1  0.5371950000000  0.5997170000000  0.5405070000000 1.0
C      1  0.5911890000000  0.5288830000000  0.5349710000000 1.0
C      1  0.5903480000000  0.4388910000000  0.5416710000000 1.0
C      1  0.5097310000000  0.3921800000000  0.5446810000000 1.0
C      1  0.4289200000000  0.4298950000000  0.5376050000000 1.0
C      1  0.4054410000000  0.5127840000000  0.5368030000000 1.0
C      1  0.4684720000000  0.4872410000000  0.5083640000000 1.0
C      1  0.4752840000000  0.5170250000000  0.5085320000000 1.0
C      1  0.5021300000000  0.5305080000000  0.5058820000000 1.0
C      1  0.5240660000000  0.5146880000000  0.5149080000000 1.0
C      1  0.5346410000000  0.4881120000000  0.5071480000000 1.0
C      1  0.5153140000000  0.4657590000000  0.5120180000000 1.0
C      1  0.4893720000000  0.4733020000000  0.5219370000000 1.0
C      1  0.5478550000000  0.4794040000000  0.4806750000000 1.0
C      1  0.5109270000000  0.4485740000000  0.4887220000000 1.0
C      1  0.4488290000000  0.4488210000000  0.4684280000000 1.0
C      1  0.4483340000000  0.5080640000000  0.4695270000000 1.0
C      1  0.4643100000000  0.5580920000000  0.4615250000000 1.0
C      1  0.5266940000000  0.5650240000000  0.4751380000000 1.0
C      1  0.5622660000000  0.5295900000000  0.4625240000000 1.0
C      1  0.5426520000000  0.5812510000000  0.5636160000000 1.0
C      1  0.5854010000000  0.5148820000000  0.5609750000000 1.0
C      1  0.5703080000000  0.4396880000000  0.5639010000000 1.0
C      1  0.4968740000000  0.4073420000000  0.5678680000000 1.0
C      1  0.4275770000000  0.4444770000000  0.5639310000000 1.0
C      1  0.4140910000000  0.5228910000000  0.5634470000000 1.0
C      1  0.4653490000000  0.5816470000000  0.5609510000000 1.0
C      1  0.5110230000000  0.5392660000000  0.4768380000000 1.0
C      1  0.5333760000000  0.5218840000000  0.4663890000000 1.0
C      1  0.5292210000000  0.4942940000000  0.4602350000000 1.0
C      1  0.4926140000000  0.4622890000000  0.4697950000000 1.0
C      1  0.4657060000000  0.4692500000000  0.4808690000000 1.0
C      1  0.4788680000000  0.5094170000000  0.4652210000000 1.0
C      1  0.4863520000000  0.5369390000000  0.4597210000000 1.0
C      1  0.3932220000000  0.5340550000000  0.4645080000000 1.0
C      1  0.4708210000000  0.6019860000000  0.4596650000000 1.0
C      1  0.5515390000000  0.6004140000000  0.4670790000000 1.0
C      1  0.6074340000000  0.5081800000000  0.4603150000000 1.0
C      1  0.5656010000000  0.4212950000000  0.4564290000000 1.0
C      1  0.4955920000000  0.3930000000000  0.4681090000000 1.0
C      1  0.4066120000000  0.4477270000000  0.4569880000000 1.0
C      1  0.4406840000000  0.4329820000000  0.4911940000000 1.0
C      1  0.4229370000000  0.5063530000000  0.4923340000000 1.0
C      1  0.4530060000000  0.5691300000000  0.4890050000000 1.0
C      1  0.5271380000000  0.5826700000000  0.4991760000000 1.0
C      1  0.5781250000000  0.5348280000000  0.4888800000000 1.0
C      1  0.5701980000000  0.4581200000000  0.4925000000000 1.0
C      1  0.5087130000000  0.4199020000000  0.4989880000000 1.0
C      1  0.4166320000000  0.4728990000000  0.5623550000000 1.0
C      1  0.4267070000000  0.5510600000000  0.5621120000000 1.0
C      1  0.4937550000000  0.5920720000000  0.5628260000000 1.0
C      1  0.5624040000000  0.5583580000000  0.5602820000000 1.0
C      1  0.5913600000000  0.4847440000000  0.5627050000000 1.0
C      1  0.5455190000000  0.4218450000000  0.5650480000000 1.0
C      1  0.4682160000000  0.4168970000000  0.5630160000000 1.0
C      1  0.4317630000000  0.5106350000000  0.5214690000000 1.0
C      1  0.4659660000000  0.5615240000000  0.5176380000000 1.0
C      1  0.5299080000000  0.5646830000000  0.5253400000000 1.0
C      1  0.5679240000000  0.5199240000000  0.5175490000000 1.0
C      1  0.5599510000000  0.4553570000000  0.5237730000000 1.0
C      1  0.5014880000000  0.4265640000000  0.5289660000000 1.0
C      1  0.4461250000000  0.4485730000000  0.5203460000000 1.0
C      1  0.5356770000000  0.4637280000000  0.6040540000000 1.0
C      1  0.4893730000000  0.4515220000000  0.6055570000000 1.0
C      1  0.4561450000000  0.4742840000000  0.6054080000000 1.0
C      1  0.4512440000000  0.5213370000000  0.6031990000000 1.0
C      1  0.4885800000000  0.5484160000000  0.6014320000000 1.0
C      1  0.5265290000000  0.5409190000000  0.6022110000000 1.0
C      1  0.5507200000000  0.4992980000000  0.6036270000000 1.0
C      1  0.5422890000000  0.5317900000000  0.5307160000000 1.0
C      1  0.5539570000000  0.4852850000000  0.5308190000000 1.0
C      1  0.5245340000000  0.4473880000000  0.5358880000000 1.0
C      1  0.4766320000000  0.4483130000000  0.5330000000000 1.0
C      1  0.4458990000000  0.4846220000000  0.5314000000000 1.0
C      1  0.4594090000000  0.5323980000000  0.5285420000000 1.0
C      1  0.5022100000000  0.5517470000000  0.5286540000000 1.0
C      1  0.4909510000000  0.3852870000000  0.5194960000000 1.0
C      1  0.4017640000000  0.4364210000000  0.5122130000000 1.0
C      1  0.3924630000000  0.5335030000000  0.5163340000000 1.0
C      1  0.4600590000000  0.6079980000000  0.5153860000000 1.0
C      1  0.5605850000000  0.6014450000000  0.5194630000000 1.0
C      1  0.6116920000000  0.5137210000000  0.5139010000000 1.0
C      1  0.5814990000000  0.4198870000000  0.5178640000000 1.0
C      1  0.5195230000000  0.4696590000000  0.4155490000000 1.0
C      1  0.4885100000000  0.4657350000000  0.4224420000000 1.0
C      1  0.4622930000000  0.4915130000000  0.4130240000000 1.0
C      1  0.4658850000000  0.5201630000000  0.4241070000000 1.0
C      1  0.4967010000000  0.5395210000000  0.4124060000000 1.0
C      1  0.5244750000000  0.5302110000000  0.4238320000000 1.0
C      1  0.5351310000000  0.4932620000000  0.4303620000000 1.0
C      1  0.5441670000000  0.4038410000000  0.4674330000000 1.0
C      1  0.4689340000000  0.4052400000000  0.4650050000000 1.0
C      1  0.3979550000000  0.4741440000000  0.4667430000000 1.0
C      1  0.4133920000000  0.5547620000000  0.4634820000000 1.0
C      1  0.4983220000000  0.6056300000000  0.4684600000000 1.0
C      1  0.5684290000000  0.5761330000000  0.4652350000000 1.0
C      1  0.6102150000000  0.4794790000000  0.4656610000000 1.0
C      1  0.5160180000000  0.5792230000000  0.5772350000000 1.0
C      1  0.5685250000000  0.5346970000000  0.5766350000000 1.0
C      1  0.5757540000000  0.4652120000000  0.5787120000000 1.0
C      1  0.5202140000000  0.4227360000000  0.5811870000000 1.0
C      1  0.4517470000000  0.4347980000000  0.5794700000000 1.0
C      1  0.4203320000000  0.4969620000000  0.5791720000000 1.0
C      1  0.4497820000000  0.5616560000000  0.5773960000000 1.0
C      1  0.4893710000000  0.4459780000000  0.4449530000000 1.0
C      1  0.4292290000000  0.4542430000000  0.4293580000000 1.0
C      1  0.4416020000000  0.5206470000000  0.4434820000000 1.0
C      1  0.4686860000000  0.5794030000000  0.4342880000000 1.0
C      1  0.5334130000000  0.5559080000000  0.4379860000000 1.0
C      1  0.5797540000000  0.5138440000000  0.4403510000000 1.0
C      1  0.5568360000000  0.4439040000000  0.4394810000000 1.0
C      1  0.5133190000000  0.4653080000000  0.5607270000000 1.0
C      1  0.4805640000000  0.4700550000000  0.5647240000000 1.0
C      1  0.4626680000000  0.4943790000000  0.5603030000000 1.0
C      1  0.4735580000000  0.5241360000000  0.5578480000000 1.0
C      1  0.5030880000000  0.5346880000000  0.5561210000000 1.0
C      1  0.5306600000000  0.5167950000000  0.5604870000000 1.0
C      1  0.5362670000000  0.4868120000000  0.5581180000000 1.0
C      1  0.5788610000000  0.5644580000000  0.4901200000000 1.0
C      1  0.5977130000000  0.4717840000000  0.4911680000000 1.0
C      1  0.5382030000000  0.4140090000000  0.4948730000000 1.0
C      1  0.4546980000000  0.4069320000000  0.4907710000000 1.0
C      1  0.4129350000000  0.4788730000000  0.4910440000000 1.0
C      1  0.4245820000000  0.5610950000000  0.4893510000000 1.0
C      1  0.5014650000000  0.5958290000000  0.4951950000000 1.0
C      1  0.5227240000000  0.5963790000000  0.4530090000000 1.0
C      1  0.5627890000000  0.5549200000000  0.4434080000000 1.0
C      1  0.6012860000000  0.4636770000000  0.4444230000000 1.0
C      1  0.5182500000000  0.4035520000000  0.4517920000000 1.0
C      1  0.4637410000000  0.4314260000000  0.4482660000000 1.0
C      1  0.3981710000000  0.4986650000000  0.4500690000000 1.0
C      1  0.4377430000000  0.5497970000000  0.4465910000000 1.0
C      1  0.5334900000000  0.5008250000000  0.3799700000000 1.0
C      1  0.5185800000000  0.4761380000000  0.3864090000000 1.0
C      1  0.4901590000000  0.4741230000000  0.3778050000000 1.0
C      1  0.4682000000000  0.4930860000000  0.3837830000000 1.0
C      1  0.4712210000000  0.5215920000000  0.3761300000000 1.0
C      1  0.4961000000000  0.5350150000000  0.3826760000000 1.0
C      1  0.5184860000000  0.5225190000000  0.3716950000000 1.0
C      1  0.4517490000000  0.4090840000000  0.5402890000000 1.0
C      1  0.4023380000000  0.4818010000000  0.5389100000000 1.0
C      1  0.4248040000000  0.5678780000000  0.5381160000000 1.0
C      1  0.5062650000000  0.6071710000000  0.5412150000000 1.0
C      1  0.5816090000000  0.5587060000000  0.5386510000000 1.0
C      1  0.5988650000000  0.4692980000000  0.5391740000000 1.0
C      1  0.5380840000000  0.4056200000000  0.5422940000000 1.0
C      1  0.4540140000000  0.5408480000000  0.4039280000000 1.0
C      1  0.4938400000000  0.5697090000000  0.4194490000000 1.0
C      1  0.5474780000000  0.5255690000000  0.4047670000000 1.0
C      1  0.5648270000000  0.4901790000000  0.4295380000000 1.0
C      1  0.5325830000000  0.4432520000000  0.4238380000000 1.0
C      1  0.4721340000000  0.4501270000000  0.4022150000000 1.0
C      1  0.4338340000000  0.4816550000000  0.4191540000000 1.0
C      1  0.5033130000000  0.3816180000000  0.4938400000000 1.0
C      1  0.4117420000000  0.4295320000000  0.4841040000000 1.0
C      1  0.3947010000000  0.5191950000000  0.4895750000000 1.0
C      1  0.4531330000000  0.5988760000000  0.4856580000000 1.0
C      1  0.5513880000000  0.6122100000000  0.4939780000000 1.0
C      1  0.6061370000000  0.5247990000000  0.4856800000000 1.0
C      1  0.5774140000000  0.4304260000000  0.4819850000000 1.0
C      1  0.4111020000000  0.5567440000000  0.5145720000000 1.0
C      1  0.4901380000000  0.6113970000000  0.5164030000000 1.0
C      1  0.5721020000000  0.5744950000000  0.5160890000000 1.0
C      1  0.6080140000000  0.4838860000000  0.5152830000000 1.0
C      1  0.5545250000000  0.4069580000000  0.5180530000000 1.0
C      1  0.4669320000000  0.4015180000000  0.5167540000000 1.0
C      1  0.4051660000000  0.4650950000000  0.5150990000000 1.0
C      1  0.5008410000000  0.4891880000000  0.4633180000000 1.0
END
