TITL C-3577081-279-179 -1.76521241100961e-07 125000 -21.8093223926395 0 0 5 (D(inf)h) n - 1
REM
REM in /home/bkarasulu/work/CARBON/AIRSS/Generating-Clusters/EDIP-Nigel-Params/with-SteepDescent/Higher-Symm/SD-CG/HFTN-CG
REM
REM
REM
REM
REM
REM ./C.cell (12c818d87b63d06a65506943cc24bca4)
REM
REM compiler GCC version 9.2.1 20190827 (Red Hat 9.2.1-1)
REM options -cpp -mtune=generic -march=x86-64 -g -O0 -fpre-include=/usr/include/finclude/math-vector-fortran.h
REM seed 1035831823 1200710450 -1862865538 -857580348 1247967155 -878673749 360007440 2005078073 416582751 1344735406 -1607390800 1148540548 1348744950 1904365655 1446077046 -552792203 1087665005 1510772882 1858421245 790468026 -1032288399 -836157963 1239160159 -1986604447 -1050307903 52971171 1663221897 1618020866 70850299 146167932 456755747 330725033 821753850
REM
CELL 1.54180   50.00000   50.00000   50.00000   90.00000   90.00000   90.00000
LATT -1
SFAC C  
C      1  0.5022030000000  0.4983360000000  0.4736150000000 1.0
C      1  0.5022030000000  0.4983360000000  0.5519560000000 1.0
C      1  0.5022030000000  0.4983360000000  0.4480440000000 1.0
C      1  0.5022030000000  0.4983360000000  0.5263850000000 1.0
C      1  0.5022030000000  0.4983360000000  0.5000000000000 1.0
END
