TITL C-3578202-4305-136 -4.42815368671866e-07 125000 -98.6922692073343 0 0 18 (D3) n - 1
REM
REM in /home/bkarasulu/work/CARBON/AIRSS/Generating-Clusters/EDIP-Nigel-Params/with-SteepDescent/Higher-Symm/SD-CG/HFTN-CG
REM
REM
REM
REM
REM
REM ./C.cell (12c818d87b63d06a65506943cc24bca4)
REM
REM compiler GCC version 9.2.1 20190827 (Red Hat 9.2.1-1)
REM options -cpp -mtune=generic -march=x86-64 -g -O0 -fpre-include=/usr/include/finclude/math-vector-fortran.h
REM seed 1525581711 1894453099 -1859431825 -1404622352 -535098537 -639714866 987914146 -154923587 825628480 1545322947 388691940 -1689901199 -31913026 -634185304 -1038680845 2081758748 -515952675 -1229252835 -1524940112 -631641664 897718230 -398296882 -297191133 -1454995686 1312852735 -1619472389 -709885752 1211284269 -985739869 1925447484 1456170831 -1382473426 -1881829471
REM
CELL 1.54180   50.00000   50.00000   50.00000   90.00000   90.00000   90.00000
LATT -1
SFAC C  
C      1  0.4889860000000  0.5035330000000  0.4517350000000 1.0
C      1  0.4637090000000  0.5035490000000  0.5336700000000 1.0
C      1  0.5473050000000  0.5035450000000  0.5145930000000 1.0
C      1  0.4889860000000  0.4964670000000  0.5482650000000 1.0
C      1  0.4637090000000  0.4964510000000  0.4663300000000 1.0
C      1  0.5473050000000  0.4964550000000  0.4854070000000 1.0
C      1  0.5243210000000  0.4802950000000  0.4782740000000 1.0
C      1  0.4690210000000  0.4802970000000  0.4898050000000 1.0
C      1  0.5066570000000  0.4803050000000  0.5319310000000 1.0
C      1  0.5243210000000  0.5197050000000  0.5217260000000 1.0
C      1  0.4690210000000  0.5197030000000  0.5101940000000 1.0
C      1  0.5066580000000  0.5196950000000  0.4680690000000 1.0
C      1  0.4560420000000  0.4828990000000  0.5148270000000 1.0
C      1  0.5348170000000  0.4829020000000  0.5306600000000 1.0
C      1  0.5091410000000  0.4828870000000  0.4545230000000 1.0
C      1  0.4560420000000  0.5171010000000  0.4851720000000 1.0
C      1  0.5348170000000  0.5170980000000  0.4693400000000 1.0
C      1  0.5091410000000  0.5171130000000  0.5454780000000 1.0
END
