TITL C-3578194-7807-424 -8.86637311127345e-08 125000 -121.94172488587 0 0 21 (C1) n - 1
REM
REM in /home/bkarasulu/work/CARBON/AIRSS/Generating-Clusters/EDIP-Nigel-Params/with-SteepDescent/Higher-Symm/SD-CG/HFTN-CG
REM
REM
REM
REM
REM
REM ./C.cell (12c818d87b63d06a65506943cc24bca4)
REM
REM compiler GCC version 9.2.1 20190827 (Red Hat 9.2.1-1)
REM options -cpp -mtune=generic -march=x86-64 -g -O0 -fpre-include=/usr/include/finclude/math-vector-fortran.h
REM seed 1650535764 -1939647943 -533130850 -1135601552 1824533401 -1829439818 -581244666 1544067781 -995249342 677508800 -1930825779 -1415846827 58177215 -1841727893 848228062 -147156022 -2099229009 1136599701 -279121268 494928279 -1584346502 1614823536 765966829 292258223 245967586 -244164813 -655006369 -1460330922 -714680269 713857755 -1300077040 826223713 1607669930
REM
CELL 1.54180   50.00000   50.00000   50.00000   90.00000   90.00000   90.00000
LATT -1
SFAC C  
C      1  0.4675170000000  0.5133660000000  0.5058460000000 1.0
C      1  0.4972700000000  0.5140630000000  0.5386800000000 1.0
C      1  0.5393620000000  0.5140030000000  0.5157670000000 1.0
C      1  0.5248180000000  0.5138280000000  0.4737520000000 1.0
C      1  0.4815520000000  0.5144300000000  0.4636630000000 1.0
C      1  0.4597390000000  0.4841830000000  0.5076500000000 1.0
C      1  0.4959420000000  0.4846370000000  0.5410450000000 1.0
C      1  0.5284010000000  0.4865720000000  0.5108010000000 1.0
C      1  0.5313320000000  0.4849170000000  0.4664960000000 1.0
C      1  0.4873770000000  0.4864320000000  0.4728790000000 1.0
C      1  0.4633930000000  0.5274700000000  0.4807810000000 1.0
C      1  0.4736800000000  0.5275240000000  0.5304670000000 1.0
C      1  0.5227250000000  0.5258580000000  0.5350410000000 1.0
C      1  0.5429510000000  0.5279670000000  0.4915420000000 1.0
C      1  0.5054100000000  0.5281450000000  0.4575310000000 1.0
C      1  0.4638550000000  0.4714610000000  0.4824740000000 1.0
C      1  0.4725250000000  0.4732620000000  0.5301400000000 1.0
C      1  0.5210460000000  0.4719850000000  0.5354370000000 1.0
C      1  0.5426040000000  0.4722330000000  0.4892660000000 1.0
C      1  0.5077690000000  0.4725420000000  0.4567190000000 1.0
C      1  0.5012360000000  0.4955160000000  0.4988370000000 1.0
END
