TITL C-3577079-311-638 -1.17260446880453e-06 125000 -299.427310027101 0 0 50 (C1) n - 1
REM
REM in /home/bkarasulu/work/CARBON/AIRSS/Generating-Clusters/EDIP-Nigel-Params/with-SteepDescent/Higher-Symm/SD-CG/HFTN-CG
REM
REM
REM
REM
REM
REM ./C.cell (12c818d87b63d06a65506943cc24bca4)
REM
REM compiler GCC version 9.2.1 20190827 (Red Hat 9.2.1-1)
REM options -cpp -mtune=generic -march=x86-64 -g -O0 -fpre-include=/usr/include/finclude/math-vector-fortran.h
REM seed -127515779 -635430843 -1169525869 -1085646237 775072302 -1678921569 -1930811439 -1121707840 1487022879 164072140 422428198 1932989066 1451148314 -1989960255 989062726 927162060 -896049725 -20093009 -1772618603 -1011475640 -1947324525 1775312910 -98384264 -933913353 1550511419 287571481 -398645133 1593132666 1433484376 983562432 908843456 1796013251 1834165045
REM
CELL 1.54180   50.00000   50.00000   50.00000   90.00000   90.00000   90.00000
LATT -1
SFAC C  
C      1  0.4828310000000  0.4440170000000  0.5195220000000 1.0
C      1  0.5373900000000  0.4456720000000  0.5132030000000 1.0
C      1  0.4495180000000  0.5482100000000  0.4998290000000 1.0
C      1  0.5300180000000  0.5076690000000  0.4980460000000 1.0
C      1  0.4393750000000  0.4697290000000  0.5139200000000 1.0
C      1  0.5119260000000  0.5387340000000  0.4619350000000 1.0
C      1  0.4823770000000  0.5087780000000  0.4921740000000 1.0
C      1  0.5666350000000  0.4828030000000  0.5286180000000 1.0
C      1  0.4640760000000  0.4585200000000  0.5007480000000 1.0
C      1  0.5087320000000  0.4434380000000  0.5011170000000 1.0
C      1  0.5243630000000  0.4962150000000  0.5549440000000 1.0
C      1  0.5301850000000  0.5202930000000  0.4481330000000 1.0
C      1  0.5153820000000  0.5621140000000  0.5060020000000 1.0
C      1  0.5440680000000  0.4672170000000  0.4559550000000 1.0
C      1  0.5090490000000  0.5453260000000  0.5498610000000 1.0
C      1  0.4562130000000  0.4418410000000  0.4779610000000 1.0
C      1  0.5274460000000  0.5574490000000  0.4795900000000 1.0
C      1  0.5529090000000  0.4998110000000  0.5484440000000 1.0
C      1  0.5032170000000  0.5175110000000  0.5609340000000 1.0
C      1  0.5328500000000  0.4499900000000  0.5409160000000 1.0
C      1  0.5029620000000  0.4486480000000  0.4721650000000 1.0
C      1  0.4330180000000  0.5276830000000  0.4858950000000 1.0
C      1  0.4402520000000  0.4768040000000  0.5407080000000 1.0
C      1  0.4842670000000  0.5614330000000  0.5373260000000 1.0
C      1  0.5134710000000  0.4820730000000  0.5083130000000 1.0
C      1  0.4930300000000  0.5774430000000  0.5149160000000 1.0
C      1  0.5705450000000  0.5349520000000  0.4991970000000 1.0
C      1  0.5549570000000  0.4679430000000  0.5057030000000 1.0
C      1  0.4757070000000  0.5035460000000  0.4485790000000 1.0
C      1  0.5543860000000  0.5492360000000  0.4827550000000 1.0
C      1  0.5543050000000  0.5163630000000  0.5138850000000 1.0
C      1  0.4363610000000  0.4993270000000  0.4811060000000 1.0
C      1  0.4836760000000  0.5263450000000  0.4681380000000 1.0
C      1  0.4668950000000  0.4831170000000  0.5460950000000 1.0
C      1  0.4637170000000  0.5476130000000  0.4734920000000 1.0
C      1  0.5152890000000  0.4702060000000  0.4581890000000 1.0
C      1  0.5005500000000  0.4883740000000  0.4390610000000 1.0
C      1  0.4208140000000  0.4821630000000  0.4969650000000 1.0
C      1  0.4868640000000  0.4620960000000  0.5430970000000 1.0
C      1  0.5418030000000  0.5030640000000  0.4699110000000 1.0
C      1  0.4539480000000  0.4872980000000  0.4605590000000 1.0
C      1  0.4772120000000  0.5114820000000  0.5457500000000 1.0
C      1  0.4921480000000  0.5186610000000  0.5177170000000 1.0
C      1  0.5182120000000  0.5064690000000  0.4265720000000 1.0
C      1  0.5141280000000  0.4730680000000  0.5389300000000 1.0
C      1  0.5175280000000  0.5370530000000  0.5210440000000 1.0
C      1  0.5622610000000  0.4712710000000  0.4776990000000 1.0
C      1  0.4863600000000  0.4791070000000  0.4897820000000 1.0
C      1  0.4537290000000  0.4594760000000  0.4573630000000 1.0
C      1  0.4630440000000  0.5423490000000  0.5272360000000 1.0
END
