TITL C-3577085-527-616 -3.98308465632275e-06 125000 -1100.650382866 0 0 174 (C1) n - 1
REM
REM in /home/bkarasulu/work/CARBON/AIRSS/Generating-Clusters/EDIP-Nigel-Params/with-SteepDescent/Higher-Symm/SD-CG/HFTN-CG
REM
REM
REM
REM
REM
REM ./C.cell (12c818d87b63d06a65506943cc24bca4)
REM
REM compiler GCC version 9.2.1 20190827 (Red Hat 9.2.1-1)
REM options -cpp -mtune=generic -march=x86-64 -g -O0 -fpre-include=/usr/include/finclude/math-vector-fortran.h
REM seed 1393364365 770269607 -1659634623 -1901644824 -990144917 1594350282 -1855932561 -351787015 986796766 93195793 163175346 -1805321007 -1478128641 -1594161223 -1610740651 -949388120 -654058137 -1208492466 -637546388 -1902158680 -1448296377 1025108944 -319613229 -418122390 -2024287122 -243690449 1309574416 -1454040265 -448350046 1610593347 -1153339354 1009912498 -1997284738
REM
CELL 1.54180   50.00000   50.00000   50.00000   90.00000   90.00000   90.00000
LATT -1
SFAC C  
C      1  0.5467240000000  0.5903490000000  0.5541720000000 1.0
C      1  0.4593400000000  0.5861960000000  0.5578190000000 1.0
C      1  0.4402020000000  0.5796670000000  0.4877270000000 1.0
C      1  0.4975650000000  0.5853650000000  0.4324780000000 1.0
C      1  0.5644280000000  0.5817570000000  0.4754650000000 1.0
C      1  0.5352570000000  0.5871220000000  0.4684060000000 1.0
C      1  0.5452680000000  0.5954190000000  0.5226460000000 1.0
C      1  0.4964490000000  0.5924830000000  0.5535500000000 1.0
C      1  0.4400080000000  0.5981380000000  0.5132540000000 1.0
C      1  0.4802550000000  0.5927230000000  0.4570800000000 1.0
C      1  0.4505920000000  0.4510180000000  0.5977870000000 1.0
C      1  0.3894470000000  0.4482850000000  0.4823920000000 1.0
C      1  0.4814600000000  0.4480490000000  0.3884960000000 1.0
C      1  0.5989230000000  0.4459550000000  0.4469720000000 1.0
C      1  0.5769830000000  0.4520780000000  0.5750430000000 1.0
C      1  0.5356760000000  0.5507500000000  0.4325710000000 1.0
C      1  0.5745070000000  0.5515160000000  0.5145820000000 1.0
C      1  0.5147840000000  0.5601620000000  0.5836500000000 1.0
C      1  0.4247940000000  0.5558850000000  0.5365570000000 1.0
C      1  0.4471750000000  0.5538090000000  0.4522070000000 1.0
C      1  0.5241380000000  0.4375230000000  0.4429200000000 1.0
C      1  0.5598050000000  0.4373200000000  0.5050060000000 1.0
C      1  0.5117370000000  0.4372000000000  0.5579290000000 1.0
C      1  0.4458990000000  0.4356160000000  0.5312800000000 1.0
C      1  0.4537960000000  0.4382470000000  0.4593690000000 1.0
C      1  0.4087750000000  0.5401850000000  0.4689290000000 1.0
C      1  0.4973410000000  0.5422830000000  0.4032850000000 1.0
C      1  0.5981480000000  0.5407700000000  0.4681520000000 1.0
C      1  0.5629050000000  0.5469270000000  0.5778710000000 1.0
C      1  0.4405470000000  0.5459550000000  0.5816710000000 1.0
C      1  0.4990740000000  0.5227230000000  0.4668890000000 1.0
C      1  0.5378230000000  0.5390070000000  0.4804180000000 1.0
C      1  0.5087370000000  0.5221820000000  0.5245770000000 1.0
C      1  0.4876020000000  0.5397070000000  0.5447390000000 1.0
C      1  0.4674140000000  0.5355340000000  0.5004270000000 1.0
C      1  0.5630970000000  0.5654750000000  0.5547880000000 1.0
C      1  0.4621940000000  0.5671290000000  0.5793370000000 1.0
C      1  0.4173010000000  0.5604130000000  0.4881880000000 1.0
C      1  0.4844670000000  0.5599570000000  0.4233950000000 1.0
C      1  0.5740220000000  0.5567400000000  0.4619250000000 1.0
C      1  0.4533530000000  0.5235080000000  0.4123010000000 1.0
C      1  0.5787190000000  0.5258960000000  0.4272920000000 1.0
C      1  0.5923270000000  0.5270800000000  0.5389590000000 1.0
C      1  0.4808780000000  0.5296090000000  0.6000720000000 1.0
C      1  0.3915790000000  0.5275830000000  0.5113570000000 1.0
C      1  0.4715620000000  0.5006500000000  0.5565770000000 1.0
C      1  0.4328480000000  0.5002220000000  0.4911790000000 1.0
C      1  0.4807440000000  0.4880630000000  0.4327050000000 1.0
C      1  0.5613440000000  0.4975790000000  0.4659890000000 1.0
C      1  0.5507510000000  0.5011230000000  0.5383550000000 1.0
C      1  0.5735070000000  0.4751660000000  0.4161490000000 1.0
C      1  0.5998530000000  0.4762530000000  0.5403120000000 1.0
C      1  0.4902760000000  0.4792320000000  0.6059330000000 1.0
C      1  0.3924030000000  0.4761370000000  0.5226100000000 1.0
C      1  0.4429390000000  0.4744470000000  0.4027660000000 1.0
C      1  0.5097100000000  0.4485040000000  0.3967000000000 1.0
C      1  0.6012090000000  0.4458250000000  0.4766200000000 1.0
C      1  0.5501080000000  0.4512200000000  0.5860740000000 1.0
C      1  0.4312290000000  0.4492010000000  0.5761580000000 1.0
C      1  0.4048140000000  0.4475500000000  0.4573930000000 1.0
C      1  0.4943050000000  0.4000710000000  0.5244600000000 1.0
C      1  0.4742840000000  0.4002830000000  0.5019560000000 1.0
C      1  0.4891410000000  0.4020590000000  0.4756660000000 1.0
C      1  0.5184360000000  0.4012980000000  0.4819210000000 1.0
C      1  0.5217760000000  0.4010030000000  0.5120290000000 1.0
C      1  0.5002190000000  0.4471910000000  0.4596350000000 1.0
C      1  0.5346970000000  0.4459150000000  0.4871980000000 1.0
C      1  0.5202540000000  0.4463920000000  0.5291810000000 1.0
C      1  0.4759410000000  0.4437540000000  0.5317870000000 1.0
C      1  0.4632840000000  0.4418660000000  0.4899730000000 1.0
C      1  0.5950410000000  0.4731390000000  0.4361010000000 1.0
C      1  0.5865530000000  0.4784250000000  0.5661520000000 1.0
C      1  0.4611330000000  0.4780500000000  0.6021300000000 1.0
C      1  0.3871010000000  0.4752930000000  0.4939940000000 1.0
C      1  0.4694120000000  0.4750550000000  0.3880620000000 1.0
C      1  0.4882130000000  0.4204940000000  0.5477580000000 1.0
C      1  0.4498350000000  0.4191290000000  0.5050040000000 1.0
C      1  0.4808960000000  0.4233330000000  0.4537990000000 1.0
C      1  0.5361050000000  0.4221310000000  0.4671870000000 1.0
C      1  0.5405100000000  0.4227240000000  0.5245120000000 1.0
C      1  0.4745850000000  0.4351640000000  0.5921030000000 1.0
C      1  0.4030240000000  0.4327120000000  0.5032960000000 1.0
C      1  0.4655780000000  0.4331600000000  0.4087670000000 1.0
C      1  0.5741800000000  0.4323270000000  0.4389040000000 1.0
C      1  0.5794620000000  0.4341920000000  0.5518090000000 1.0
C      1  0.4109990000000  0.5106220000000  0.5578090000000 1.0
C      1  0.4123970000000  0.5066950000000  0.4310630000000 1.0
C      1  0.5363510000000  0.5091740000000  0.4002240000000 1.0
C      1  0.6133750000000  0.5036920000000  0.5006080000000 1.0
C      1  0.5293400000000  0.5129170000000  0.5983700000000 1.0
C      1  0.4113490000000  0.4526990000000  0.5244450000000 1.0
C      1  0.4466500000000  0.4521570000000  0.4231890000000 1.0
C      1  0.5558620000000  0.4537720000000  0.4274810000000 1.0
C      1  0.5885330000000  0.4506410000000  0.5281960000000 1.0
C      1  0.4970590000000  0.4552500000000  0.5889990000000 1.0
C      1  0.4330410000000  0.5024910000000  0.4102200000000 1.0
C      1  0.5644220000000  0.5040040000000  0.4114080000000 1.0
C      1  0.6098400000000  0.5030610000000  0.5299360000000 1.0
C      1  0.4995420000000  0.5067090000000  0.5959810000000 1.0
C      1  0.3979740000000  0.5049640000000  0.5309430000000 1.0
C      1  0.5122490000000  0.4269650000000  0.4171890000000 1.0
C      1  0.5806170000000  0.4256290000000  0.4859940000000 1.0
C      1  0.5368040000000  0.4283880000000  0.5723840000000 1.0
C      1  0.4406610000000  0.4264270000000  0.5595270000000 1.0
C      1  0.4259210000000  0.4266920000000  0.4617810000000 1.0
C      1  0.5478010000000  0.4746450000000  0.4839950000000 1.0
C      1  0.5282050000000  0.4762440000000  0.5371320000000 1.0
C      1  0.4686660000000  0.4742190000000  0.5394500000000 1.0
C      1  0.4484850000000  0.4762030000000  0.4811140000000 1.0
C      1  0.5016780000000  0.4761250000000  0.4489990000000 1.0
C      1  0.4418940000000  0.4790420000000  0.4510050000000 1.0
C      1  0.5275170000000  0.4800610000000  0.4331610000000 1.0
C      1  0.5740890000000  0.4781740000000  0.5044460000000 1.0
C      1  0.5179810000000  0.4796860000000  0.5655850000000 1.0
C      1  0.4378790000000  0.4781280000000  0.5372510000000 1.0
C      1  0.4787030000000  0.5202960000000  0.3984000000000 1.0
C      1  0.5991300000000  0.5192240000000  0.4480940000000 1.0
C      1  0.5799120000000  0.5247470000000  0.5673370000000 1.0
C      1  0.4521610000000  0.5234230000000  0.5961360000000 1.0
C      1  0.3916260000000  0.5211630000000  0.4821330000000 1.0
C      1  0.4679190000000  0.5655370000000  0.4943400000000 1.0
C      1  0.4883470000000  0.5666290000000  0.4716430000000 1.0
C      1  0.5224930000000  0.5657540000000  0.4861540000000 1.0
C      1  0.5266880000000  0.5710810000000  0.5176340000000 1.0
C      1  0.4985240000000  0.5712490000000  0.5328450000000 1.0
C      1  0.4674230000000  0.4169570000000  0.5694960000000 1.0
C      1  0.4237740000000  0.4161370000000  0.4898220000000 1.0
C      1  0.4849870000000  0.4173940000000  0.4246930000000 1.0
C      1  0.5650770000000  0.4164600000000  0.4623860000000 1.0
C      1  0.5543840000000  0.4181650000000  0.5507650000000 1.0
C      1  0.4161900000000  0.5338350000000  0.4417550000000 1.0
C      1  0.5259600000000  0.5366140000000  0.4072990000000 1.0
C      1  0.6005440000000  0.5305450000000  0.4957030000000 1.0
C      1  0.5353200000000  0.5390540000000  0.5851260000000 1.0
C      1  0.4248610000000  0.5371870000000  0.5585070000000 1.0
C      1  0.4079180000000  0.5517070000000  0.5138400000000 1.0
C      1  0.4765490000000  0.5457500000000  0.4489030000000 1.0
C      1  0.5652680000000  0.5506640000000  0.4348090000000 1.0
C      1  0.5482810000000  0.5515010000000  0.5309930000000 1.0
C      1  0.4870230000000  0.5495650000000  0.5785740000000 1.0
C      1  0.5693010000000  0.5066130000000  0.5149340000000 1.0
C      1  0.4992350000000  0.5029190000000  0.5664310000000 1.0
C      1  0.4355950000000  0.5042990000000  0.5217750000000 1.0
C      1  0.4587690000000  0.5060120000000  0.4454800000000 1.0
C      1  0.5430610000000  0.5048710000000  0.4437520000000 1.0
C      1  0.4275540000000  0.4856780000000  0.5660750000000 1.0
C      1  0.4114080000000  0.4835110000000  0.4509570000000 1.0
C      1  0.5179510000000  0.4842550000000  0.4036990000000 1.0
C      1  0.5994990000000  0.4800600000000  0.4862750000000 1.0
C      1  0.5418920000000  0.4882290000000  0.5843050000000 1.0
C      1  0.4042380000000  0.4948940000000  0.4792910000000 1.0
C      1  0.4876580000000  0.4926510000000  0.4044230000000 1.0
C      1  0.5906710000000  0.4922830000000  0.4585490000000 1.0
C      1  0.5650030000000  0.4988620000000  0.5658880000000 1.0
C      1  0.4522080000000  0.4974180000000  0.5809500000000 1.0
C      1  0.4490980000000  0.5233530000000  0.4757750000000 1.0
C      1  0.5272840000000  0.5296210000000  0.4543690000000 1.0
C      1  0.5629770000000  0.5216110000000  0.4861550000000 1.0
C      1  0.5354420000000  0.5259320000000  0.5362740000000 1.0
C      1  0.4580870000000  0.5271170000000  0.5317700000000 1.0
C      1  0.4998150000000  0.4926300000000  0.4730930000000 1.0
C      1  0.5224410000000  0.4886370000000  0.4917210000000 1.0
C      1  0.5102780000000  0.4921290000000  0.5185530000000 1.0
C      1  0.4826360000000  0.4844670000000  0.5160200000000 1.0
C      1  0.4760550000000  0.4840040000000  0.4885910000000 1.0
C      1  0.5265590000000  0.5795070000000  0.4397210000000 1.0
C      1  0.5690670000000  0.5821300000000  0.5054550000000 1.0
C      1  0.5200140000000  0.5856180000000  0.5690730000000 1.0
C      1  0.4376740000000  0.5819560000000  0.5384750000000 1.0
C      1  0.4499280000000  0.5846930000000  0.4581970000000 1.0
C      1  0.4669430000000  0.6074640000000  0.5167590000000 1.0
C      1  0.4813170000000  0.5830090000000  0.5128720000000 1.0
C      1  0.4972410000000  0.4467140000000  0.4987990000000 1.0
C      1  0.4973040000000  0.5314960000000  0.4968300000000 1.0
END
