TITL C-3578199-7832-145 5.13985459115417e-07 125000 -418.336053238416 0 0 69 (C1) n - 1
REM
REM in /home/bkarasulu/work/CARBON/AIRSS/Generating-Clusters/EDIP-Nigel-Params/with-SteepDescent/Higher-Symm/SD-CG/HFTN-CG
REM
REM
REM
REM
REM
REM ./C.cell (12c818d87b63d06a65506943cc24bca4)
REM
REM compiler GCC version 9.2.1 20190827 (Red Hat 9.2.1-1)
REM options -cpp -mtune=generic -march=x86-64 -g -O0 -fpre-include=/usr/include/finclude/math-vector-fortran.h
REM seed 403348583 -1936004468 1073909310 759099160 -1457306670 1229552105 84873427 -1573596413 -487083158 1824248148 -1090473933 1948102132 1399051169 -343778594 349103001 260668850 -1653838674 -1912930799 -2053504538 129261309 1981236190 746634426 -555086877 1326367089 1241591251 1426021903 931563423 1092805733 -348414527 1739944014 -1505895778 1375135721 1792213422
REM
CELL 1.54180   50.00000   50.00000   50.00000   90.00000   90.00000   90.00000
LATT -1
SFAC C  
C      1  0.5380570000000  0.5383470000000  0.5380640000000 1.0
C      1  0.4621450000000  0.5396490000000  0.4612720000000 1.0
C      1  0.5033230000000  0.5569760000000  0.4752610000000 1.0
C      1  0.4983130000000  0.5578240000000  0.5233110000000 1.0
C      1  0.4918770000000  0.4950270000000  0.4564130000000 1.0
C      1  0.5079890000000  0.4931960000000  0.5428770000000 1.0
C      1  0.5251090000000  0.4785600000000  0.4299720000000 1.0
C      1  0.4764100000000  0.4795590000000  0.5710780000000 1.0
C      1  0.4717810000000  0.4554750000000  0.4551640000000 1.0
C      1  0.5286840000000  0.4539870000000  0.5429470000000 1.0
C      1  0.4535720000000  0.4491440000000  0.5410340000000 1.0
C      1  0.5498920000000  0.4471840000000  0.4577830000000 1.0
C      1  0.5249950000000  0.5479570000000  0.5131400000000 1.0
C      1  0.4761310000000  0.5483900000000  0.4859930000000 1.0
C      1  0.4603220000000  0.4769450000000  0.5482310000000 1.0
C      1  0.5441790000000  0.4749260000000  0.4500190000000 1.0
C      1  0.5261090000000  0.4259420000000  0.4888720000000 1.0
C      1  0.4749780000000  0.4265470000000  0.5090170000000 1.0
C      1  0.4181790000000  0.4722640000000  0.5188620000000 1.0
C      1  0.5841110000000  0.4707090000000  0.4814270000000 1.0
C      1  0.4904720000000  0.5830200000000  0.5101300000000 1.0
C      1  0.5114330000000  0.5823460000000  0.4881790000000 1.0
C      1  0.4350400000000  0.5458330000000  0.5158780000000 1.0
C      1  0.5662370000000  0.5440870000000  0.4829180000000 1.0
C      1  0.5438840000000  0.4468950000000  0.5021970000000 1.0
C      1  0.4571390000000  0.4478450000000  0.4961620000000 1.0
C      1  0.5539890000000  0.4660810000000  0.5335460000000 1.0
C      1  0.4464420000000  0.4672240000000  0.4652210000000 1.0
C      1  0.4430570000000  0.5724830000000  0.5168330000000 1.0
C      1  0.5585540000000  0.5707770000000  0.4815590000000 1.0
C      1  0.5785850000000  0.4917850000000  0.4988820000000 1.0
C      1  0.4229460000000  0.4929690000000  0.5008970000000 1.0
C      1  0.4388980000000  0.5226730000000  0.4687810000000 1.0
C      1  0.5614290000000  0.5214780000000  0.5304980000000 1.0
C      1  0.5563720000000  0.4933460000000  0.5183070000000 1.0
C      1  0.4443060000000  0.4944710000000  0.4806340000000 1.0
C      1  0.4850400000000  0.5312820000000  0.4441850000000 1.0
C      1  0.5141160000000  0.5298120000000  0.5540370000000 1.0
C      1  0.4435950000000  0.4979060000000  0.5330480000000 1.0
C      1  0.5593520000000  0.4962370000000  0.4659400000000 1.0
C      1  0.4790340000000  0.4697940000000  0.4996180000000 1.0
C      1  0.5221920000000  0.4692500000000  0.4983230000000 1.0
C      1  0.5090090000000  0.5515650000000  0.4462090000000 1.0
C      1  0.4918380000000  0.5505850000000  0.5514000000000 1.0
C      1  0.5293940000000  0.4278860000000  0.4609900000000 1.0
C      1  0.4732240000000  0.4291970000000  0.5369830000000 1.0
C      1  0.4686680000000  0.4962420000000  0.4967630000000 1.0
C      1  0.5326040000000  0.4956400000000  0.5011800000000 1.0
C      1  0.5353030000000  0.5369830000000  0.4431290000000 1.0
C      1  0.4653210000000  0.5381310000000  0.5558920000000 1.0
C      1  0.5079110000000  0.4672380000000  0.5251620000000 1.0
C      1  0.4930520000000  0.4679450000000  0.4728180000000 1.0
C      1  0.4356200000000  0.4496220000000  0.5179040000000 1.0
C      1  0.5667240000000  0.4479690000000  0.4817460000000 1.0
C      1  0.5042410000000  0.4804710000000  0.5691130000000 1.0
C      1  0.4975410000000  0.4820930000000  0.4305050000000 1.0
C      1  0.4444680000000  0.5282350000000  0.5375430000000 1.0
C      1  0.5553590000000  0.5262900000000  0.4622380000000 1.0
C      1  0.4646070000000  0.5743050000000  0.4989780000000 1.0
C      1  0.5371690000000  0.5732950000000  0.4994700000000 1.0
C      1  0.5133650000000  0.5146100000000  0.4659440000000 1.0
C      1  0.4845730000000  0.5115130000000  0.5353420000000 1.0
C      1  0.5740490000000  0.5346130000000  0.5083870000000 1.0
C      1  0.4264000000000  0.5357830000000  0.4909140000000 1.0
C      1  0.5148150000000  0.5193050000000  0.4959830000000 1.0
C      1  0.4847140000000  0.5194120000000  0.5054710000000 1.0
C      1  0.5206630000000  0.4575680000000  0.5699570000000 1.0
C      1  0.4797980000000  0.4602080000000  0.4282970000000 1.0
C      1  0.5002930000000  0.4223400000000  0.4984270000000 1.0
END
