TITL C-3578200-9634-789 -1.50645291335488e-07 125000 -831.749509534797 0 0 134 (C1) n - 1
REM
REM in /home/bkarasulu/work/CARBON/AIRSS/Generating-Clusters/EDIP-Nigel-Params/with-SteepDescent/Higher-Symm/SD-CG/HFTN-CG
REM
REM
REM
REM
REM
REM ./C.cell (12c818d87b63d06a65506943cc24bca4)
REM
REM compiler GCC version 9.2.1 20190827 (Red Hat 9.2.1-1)
REM options -cpp -mtune=generic -march=x86-64 -g -O0 -fpre-include=/usr/include/finclude/math-vector-fortran.h
REM seed 2143106682 -1211666071 -1753536189 95255638 -1167274144 1484752768 -1398628854 216514068 -2004233353 -1931540702 179865117 -584299824 983808767 -146307635 -378300429 -663991973 1492505267 -20451849 604606908 -1802985647 504314373 2075457907 -1545385648 -1189703678 -129205342 309942959 -1680682123 575117918 -1673123457 1597578530 -149497717 789566766 -699014441
REM
CELL 1.54180   50.00000   50.00000   50.00000   90.00000   90.00000   90.00000
LATT -1
SFAC C  
C      1  0.5454180000000  0.4480960000000  0.5454800000000 1.0
C      1  0.4324550000000  0.4868410000000  0.5466570000000 1.0
C      1  0.5245760000000  0.5652970000000  0.5453770000000 1.0
C      1  0.4918420000000  0.4228820000000  0.4303430000000 1.0
C      1  0.4394380000000  0.5481330000000  0.4306700000000 1.0
C      1  0.5721110000000  0.5296990000000  0.4307100000000 1.0
C      1  0.5163620000000  0.5896820000000  0.4972990000000 1.0
C      1  0.5709450000000  0.4422480000000  0.4972170000000 1.0
C      1  0.4073980000000  0.4685980000000  0.5049160000000 1.0
C      1  0.5249230000000  0.4486060000000  0.4963990000000 1.0
C      1  0.4411120000000  0.5056030000000  0.4981880000000 1.0
C      1  0.5344590000000  0.5490480000000  0.4988810000000 1.0
C      1  0.5486060000000  0.4821330000000  0.4741650000000 1.0
C      1  0.4607800000000  0.4699260000000  0.4714730000000 1.0
C      1  0.4937340000000  0.5492450000000  0.4729400000000 1.0
C      1  0.4351360000000  0.4578580000000  0.4626480000000 1.0
C      1  0.4975800000000  0.5773870000000  0.4652000000000 1.0
C      1  0.5698210000000  0.4644120000000  0.4650330000000 1.0
C      1  0.4612460000000  0.4966450000000  0.5858540000000 1.0
C      1  0.5182590000000  0.5378120000000  0.5868940000000 1.0
C      1  0.5255630000000  0.4698920000000  0.5873730000000 1.0
C      1  0.5221070000000  0.5337960000000  0.4223700000000 1.0
C      1  0.5179970000000  0.4646880000000  0.4200410000000 1.0
C      1  0.4600880000000  0.5025270000000  0.4210860000000 1.0
C      1  0.4565160000000  0.4448620000000  0.5504450000000 1.0
C      1  0.4754190000000  0.5653570000000  0.5492590000000 1.0
C      1  0.5680990000000  0.4911940000000  0.5484870000000 1.0
C      1  0.5137250000000  0.5867570000000  0.5264740000000 1.0
C      1  0.5692310000000  0.4465730000000  0.5264150000000 1.0
C      1  0.4157880000000  0.4661610000000  0.5321850000000 1.0
C      1  0.4877230000000  0.5275880000000  0.5172580000000 1.0
C      1  0.5296300000000  0.4980300000000  0.5166520000000 1.0
C      1  0.4824490000000  0.4764430000000  0.5153060000000 1.0
C      1  0.4598930000000  0.4816770000000  0.4973530000000 1.0
C      1  0.5037990000000  0.5441720000000  0.4988020000000 1.0
C      1  0.5378760000000  0.4758950000000  0.4993180000000 1.0
C      1  0.5636000000000  0.4824490000000  0.4186170000000 1.0
C      1  0.4513630000000  0.4546570000000  0.4173470000000 1.0
C      1  0.4846210000000  0.5646480000000  0.4189680000000 1.0
C      1  0.4705420000000  0.5947810000000  0.5055070000000 1.0
C      1  0.5980090000000  0.4796380000000  0.5054350000000 1.0
C      1  0.4354640000000  0.4315930000000  0.5070650000000 1.0
C      1  0.4206480000000  0.4494900000000  0.4884190000000 1.0
C      1  0.4923380000000  0.6005870000000  0.4860770000000 1.0
C      1  0.5926470000000  0.4574520000000  0.4860260000000 1.0
C      1  0.6045060000000  0.5159070000000  0.5472530000000 1.0
C      1  0.4605650000000  0.4008450000000  0.5490730000000 1.0
C      1  0.4344590000000  0.5812300000000  0.5448700000000 1.0
C      1  0.5368680000000  0.4863570000000  0.5431820000000 1.0
C      1  0.4686150000000  0.4727710000000  0.5427900000000 1.0
C      1  0.4944080000000  0.5405760000000  0.5440860000000 1.0
C      1  0.4049470000000  0.5239830000000  0.5234700000000 1.0
C      1  0.5707770000000  0.5686570000000  0.5237890000000 1.0
C      1  0.5220250000000  0.4069060000000  0.5239090000000 1.0
C      1  0.4484170000000  0.5488200000000  0.4869420000000 1.0
C      1  0.5691400000000  0.5215040000000  0.4873550000000 1.0
C      1  0.4839910000000  0.4310800000000  0.4867220000000 1.0
C      1  0.5881940000000  0.5255490000000  0.5676550000000 1.0
C      1  0.4811900000000  0.4111040000000  0.5640630000000 1.0
C      1  0.4344820000000  0.5628980000000  0.5658080000000 1.0
C      1  0.4379160000000  0.4814670000000  0.4225630000000 1.0
C      1  0.5148810000000  0.5633510000000  0.4242410000000 1.0
C      1  0.5475320000000  0.4568840000000  0.4235180000000 1.0
C      1  0.4381050000000  0.5066270000000  0.4618240000000 1.0
C      1  0.5369230000000  0.5506900000000  0.4630160000000 1.0
C      1  0.5251500000000  0.4459060000000  0.4621710000000 1.0
C      1  0.4515900000000  0.5766010000000  0.4946010000000 1.0
C      1  0.5922830000000  0.5052270000000  0.4942720000000 1.0
C      1  0.4610640000000  0.4170900000000  0.5016840000000 1.0
C      1  0.4701920000000  0.5083360000000  0.4513210000000 1.0
C      1  0.5221970000000  0.5218940000000  0.4523460000000 1.0
C      1  0.5064290000000  0.4697860000000  0.4492110000000 1.0
C      1  0.4642380000000  0.5627580000000  0.4423990000000 1.0
C      1  0.5730190000000  0.5006800000000  0.4420750000000 1.0
C      1  0.4587630000000  0.4370880000000  0.4412130000000 1.0
C      1  0.4806740000000  0.4889340000000  0.4024990000000 1.0
C      1  0.5003350000000  0.5224710000000  0.4038410000000 1.0
C      1  0.5195250000000  0.4890390000000  0.4008960000000 1.0
C      1  0.4235020000000  0.5318870000000  0.4514330000000 1.0
C      1  0.5659450000000  0.5512150000000  0.4519210000000 1.0
C      1  0.5120500000000  0.4199210000000  0.4517770000000 1.0
C      1  0.5606680000000  0.5678890000000  0.4963250000000 1.0
C      1  0.5283280000000  0.4165360000000  0.4970440000000 1.0
C      1  0.4116060000000  0.5175490000000  0.4955370000000 1.0
C      1  0.4306430000000  0.4405140000000  0.5350360000000 1.0
C      1  0.4847530000000  0.5886480000000  0.5319190000000 1.0
C      1  0.5844470000000  0.4713050000000  0.5315070000000 1.0
C      1  0.5159430000000  0.4923560000000  0.5667210000000 1.0
C      1  0.4832730000000  0.4832500000000  0.5675480000000 1.0
C      1  0.4980550000000  0.5234480000000  0.5700010000000 1.0
C      1  0.5432600000000  0.5244920000000  0.5809400000000 1.0
C      1  0.5032250000000  0.4485930000000  0.5857090000000 1.0
C      1  0.4560190000000  0.5251370000000  0.5821850000000 1.0
C      1  0.4790240000000  0.4501770000000  0.4623050000000 1.0
C      1  0.4680360000000  0.5412980000000  0.4638590000000 1.0
C      1  0.5529910000000  0.5082330000000  0.4643430000000 1.0
C      1  0.5150580000000  0.5651690000000  0.5751290000000 1.0
C      1  0.5503370000000  0.4571750000000  0.5742230000000 1.0
C      1  0.4385390000000  0.4801230000000  0.5761170000000 1.0
C      1  0.4755660000000  0.4595660000000  0.4012010000000 1.0
C      1  0.4776560000000  0.5417190000000  0.4011930000000 1.0
C      1  0.5474940000000  0.4999510000000  0.4007550000000 1.0
C      1  0.5502310000000  0.4993720000000  0.5935530000000 1.0
C      1  0.4767550000000  0.4559720000000  0.5944870000000 1.0
C      1  0.4748290000000  0.5441280000000  0.5934040000000 1.0
C      1  0.4517810000000  0.5296650000000  0.4098470000000 1.0
C      1  0.5494900000000  0.5280970000000  0.4104320000000 1.0
C      1  0.4988600000000  0.4432870000000  0.4101560000000 1.0
C      1  0.4979380000000  0.3925460000000  0.5223230000000 1.0
C      1  0.4038180000000  0.5523120000000  0.5222880000000 1.0
C      1  0.5948040000000  0.5540230000000  0.5217920000000 1.0
C      1  0.4349360000000  0.5339990000000  0.5644430000000 1.0
C      1  0.5628080000000  0.5393140000000  0.5655760000000 1.0
C      1  0.5042080000000  0.4270790000000  0.5661140000000 1.0
C      1  0.5050240000000  0.4100820000000  0.4786670000000 1.0
C      1  0.4192610000000  0.5425280000000  0.4790140000000 1.0
C      1  0.5779780000000  0.5496360000000  0.4790770000000 1.0
C      1  0.5525930000000  0.5550290000000  0.5424430000000 1.0
C      1  0.5240130000000  0.4272940000000  0.5448960000000 1.0
C      1  0.4268300000000  0.5162350000000  0.5419760000000 1.0
C      1  0.5667290000000  0.4817540000000  0.5770790000000 1.0
C      1  0.4515370000000  0.4530920000000  0.5792720000000 1.0
C      1  0.4848960000000  0.5673240000000  0.5781420000000 1.0
C      1  0.4966290000000  0.4511730000000  0.5055570000000 1.0
C      1  0.4554850000000  0.5304700000000  0.5114770000000 1.0
C      1  0.5488450000000  0.5238920000000  0.5115500000000 1.0
C      1  0.5531010000000  0.4453290000000  0.4498570000000 1.0
C      1  0.4247790000000  0.4821550000000  0.4489020000000 1.0
C      1  0.5225760000000  0.5743380000000  0.4502880000000 1.0
C      1  0.4706480000000  0.3986280000000  0.5228180000000 1.0
C      1  0.4321920000000  0.5578730000000  0.5273510000000 1.0
C      1  0.5844230000000  0.5273610000000  0.5288950000000 1.0
C      1  0.4997810000000  0.5005970000000  0.5160430000000 1.0
C      1  0.5001270000000  0.4996990000000  0.4548140000000 1.0
END
