TITL C-3578195-8548-11 -8.06425019393117e-07 125000 -906.006480176258 0 0 144 (C1) n - 1
REM
REM in /home/bkarasulu/work/CARBON/AIRSS/Generating-Clusters/EDIP-Nigel-Params/with-SteepDescent/Higher-Symm/SD-CG/HFTN-CG
REM
REM
REM
REM
REM
REM ./C.cell (12c818d87b63d06a65506943cc24bca4)
REM
REM compiler GCC version 9.2.1 20190827 (Red Hat 9.2.1-1)
REM options -cpp -mtune=generic -march=x86-64 -g -O0 -fpre-include=/usr/include/finclude/math-vector-fortran.h
REM seed 1123710644 1361023075 -1229383742 931366327 1367035696 1219223148 203046223 683577700 349770148 1833588441 -1766188280 -1922485331 2060952154 577609355 -2125302290 -168944549 1195095193 -1089003876 1948358124 1329938915 -75420956 978513965 644745731 -347273574 -687164282 1425762084 1540224335 1239361859 1735223441 -696415117 307615723 -1092502780 -454419721
REM
CELL 1.54180   50.00000   50.00000   50.00000   90.00000   90.00000   90.00000
LATT -1
SFAC C  
C      1  0.5332780000000  0.4144430000000  0.5406720000000 1.0
C      1  0.4573340000000  0.4125740000000  0.5330020000000 1.0
C      1  0.4651210000000  0.4141740000000  0.4559330000000 1.0
C      1  0.5394980000000  0.4155890000000  0.4654010000000 1.0
C      1  0.4905090000000  0.4515210000000  0.4844610000000 1.0
C      1  0.5122220000000  0.4639910000000  0.4971590000000 1.0
C      1  0.5061720000000  0.4619840000000  0.5245400000000 1.0
C      1  0.4713670000000  0.4464750000000  0.5037900000000 1.0
C      1  0.4933500000000  0.6161020000000  0.4751790000000 1.0
C      1  0.5189460000000  0.6185930000000  0.4928270000000 1.0
C      1  0.5017910000000  0.6178560000000  0.5183900000000 1.0
C      1  0.4757850000000  0.6158010000000  0.5012360000000 1.0
C      1  0.4748750000000  0.5391900000000  0.4733660000000 1.0
C      1  0.5268860000000  0.5396820000000  0.4751930000000 1.0
C      1  0.5258260000000  0.5387030000000  0.5261790000000 1.0
C      1  0.4748120000000  0.5387000000000  0.5249630000000 1.0
C      1  0.4078020000000  0.4831400000000  0.5235530000000 1.0
C      1  0.4790420000000  0.4827990000000  0.4108530000000 1.0
C      1  0.5908530000000  0.4828490000000  0.4779530000000 1.0
C      1  0.5244360000000  0.4826220000000  0.5938170000000 1.0
C      1  0.4833360000000  0.5082500000000  0.3969020000000 1.0
C      1  0.6048250000000  0.5077830000000  0.4829760000000 1.0
C      1  0.5188410000000  0.5098080000000  0.6053160000000 1.0
C      1  0.3954200000000  0.5094140000000  0.5192660000000 1.0
C      1  0.5351610000000  0.4925770000000  0.4669650000000 1.0
C      1  0.5366630000000  0.4902420000000  0.5394710000000 1.0
C      1  0.4651460000000  0.4870480000000  0.5352570000000 1.0
C      1  0.4658480000000  0.4877500000000  0.4652280000000 1.0
C      1  0.5572090000000  0.4958750000000  0.5591800000000 1.0
C      1  0.4448380000000  0.4951110000000  0.5543090000000 1.0
C      1  0.4465350000000  0.4944820000000  0.4445160000000 1.0
C      1  0.5559790000000  0.4970120000000  0.4464450000000 1.0
C      1  0.4528440000000  0.5584930000000  0.4608890000000 1.0
C      1  0.5393590000000  0.5601670000000  0.4545180000000 1.0
C      1  0.5464220000000  0.5595600000000  0.5373290000000 1.0
C      1  0.4632550000000  0.5589620000000  0.5462850000000 1.0
C      1  0.4784030000000  0.5159980000000  0.5882040000000 1.0
C      1  0.4135230000000  0.5128830000000  0.4791140000000 1.0
C      1  0.5242350000000  0.5162180000000  0.4115780000000 1.0
C      1  0.5889760000000  0.5142400000000  0.5237190000000 1.0
C      1  0.5028830000000  0.5277200000000  0.4601440000000 1.0
C      1  0.5400890000000  0.5262110000000  0.5025230000000 1.0
C      1  0.4988480000000  0.5257290000000  0.5390060000000 1.0
C      1  0.4610210000000  0.5266980000000  0.4979000000000 1.0
C      1  0.5335610000000  0.4039280000000  0.5133740000000 1.0
C      1  0.4849900000000  0.4025240000000  0.5329230000000 1.0
C      1  0.4637360000000  0.4024490000000  0.4832410000000 1.0
C      1  0.5129770000000  0.4038370000000  0.4639560000000 1.0
C      1  0.4155730000000  0.5316500000000  0.5232310000000 1.0
C      1  0.4786210000000  0.5309460000000  0.4160230000000 1.0
C      1  0.5863510000000  0.5308470000000  0.4780750000000 1.0
C      1  0.5240460000000  0.5315060000000  0.5851770000000 1.0
C      1  0.4987030000000  0.5863040000000  0.5686680000000 1.0
C      1  0.4341920000000  0.5857630000000  0.4962630000000 1.0
C      1  0.5035620000000  0.5867310000000  0.4337850000000 1.0
C      1  0.5706670000000  0.5856380000000  0.5022670000000 1.0
C      1  0.5830270000000  0.4928540000000  0.5435740000000 1.0
C      1  0.4595960000000  0.4937590000000  0.5808860000000 1.0
C      1  0.4194440000000  0.4928210000000  0.4581060000000 1.0
C      1  0.5427060000000  0.4942700000000  0.4192550000000 1.0
C      1  0.5573550000000  0.5505550000000  0.5637270000000 1.0
C      1  0.4381300000000  0.5475390000000  0.5576260000000 1.0
C      1  0.4420630000000  0.5457150000000  0.4360760000000 1.0
C      1  0.5654400000000  0.5498960000000  0.4443260000000 1.0
C      1  0.4151440000000  0.5613830000000  0.5438780000000 1.0
C      1  0.4572080000000  0.5583150000000  0.4128250000000 1.0
C      1  0.5866210000000  0.5636940000000  0.4595930000000 1.0
C      1  0.5417080000000  0.5648690000000  0.5841050000000 1.0
C      1  0.4965020000000  0.5340520000000  0.5696030000000 1.0
C      1  0.4303710000000  0.5341400000000  0.4953020000000 1.0
C      1  0.5065820000000  0.5356030000000  0.4298380000000 1.0
C      1  0.5707890000000  0.5336080000000  0.5054680000000 1.0
C      1  0.4522720000000  0.4483960000000  0.4239280000000 1.0
C      1  0.5708420000000  0.4496000000000  0.4538520000000 1.0
C      1  0.5496350000000  0.4463920000000  0.5771780000000 1.0
C      1  0.4263690000000  0.4480710000000  0.5455000000000 1.0
C      1  0.4324840000000  0.4773330000000  0.4975520000000 1.0
C      1  0.4992530000000  0.4736630000000  0.4397410000000 1.0
C      1  0.5630700000000  0.4744360000000  0.5013220000000 1.0
C      1  0.5049510000000  0.4741520000000  0.5709080000000 1.0
C      1  0.5359140000000  0.4679390000000  0.4104550000000 1.0
C      1  0.5912620000000  0.4662570000000  0.5371520000000 1.0
C      1  0.4706200000000  0.4674530000000  0.5871720000000 1.0
C      1  0.4083090000000  0.4667230000000  0.4608050000000 1.0
C      1  0.4226450000000  0.4307190000000  0.4970710000000 1.0
C      1  0.5003890000000  0.4307150000000  0.4224980000000 1.0
C      1  0.5746480000000  0.4310900000000  0.5011210000000 1.0
C      1  0.4995160000000  0.4306410000000  0.5718420000000 1.0
C      1  0.4633900000000  0.5851190000000  0.4517710000000 1.0
C      1  0.5461810000000  0.5873880000000  0.4655650000000 1.0
C      1  0.5343510000000  0.5869620000000  0.5425240000000 1.0
C      1  0.4552380000000  0.5858970000000  0.5349940000000 1.0
C      1  0.5523810000000  0.4761130000000  0.5832410000000 1.0
C      1  0.4210090000000  0.4767030000000  0.5494340000000 1.0
C      1  0.4515980000000  0.4772190000000  0.4198950000000 1.0
C      1  0.5779660000000  0.4775230000000  0.4522020000000 1.0
C      1  0.4548780000000  0.4428700000000  0.4531060000000 1.0
C      1  0.5430620000000  0.4404930000000  0.4505560000000 1.0
C      1  0.5463430000000  0.4419890000000  0.5463940000000 1.0
C      1  0.4530490000000  0.4364040000000  0.5499210000000 1.0
C      1  0.4290660000000  0.4531430000000  0.4760720000000 1.0
C      1  0.5215930000000  0.4522240000000  0.4305480000000 1.0
C      1  0.5697890000000  0.4524760000000  0.5229740000000 1.0
C      1  0.4730830000000  0.4437550000000  0.5708920000000 1.0
C      1  0.5354540000000  0.5950480000000  0.4910520000000 1.0
C      1  0.5076140000000  0.5933900000000  0.5328840000000 1.0
C      1  0.4614810000000  0.5907450000000  0.5068410000000 1.0
C      1  0.4905660000000  0.5912080000000  0.4599560000000 1.0
C      1  0.4545230000000  0.4655400000000  0.5171350000000 1.0
C      1  0.4784110000000  0.4617250000000  0.4601190000000 1.0
C      1  0.5379780000000  0.4679220000000  0.4829980000000 1.0
C      1  0.5246690000000  0.4647120000000  0.5455000000000 1.0
C      1  0.4444730000000  0.4112100000000  0.5045190000000 1.0
C      1  0.4928120000000  0.4111640000000  0.4437010000000 1.0
C      1  0.5517680000000  0.4140120000000  0.4929630000000 1.0
C      1  0.5059870000000  0.4111330000000  0.5518140000000 1.0
C      1  0.5228430000000  0.4390930000000  0.5860170000000 1.0
C      1  0.4130690000000  0.4392180000000  0.5221300000000 1.0
C      1  0.4757760000000  0.4388350000000  0.4111930000000 1.0
C      1  0.5845530000000  0.4391690000000  0.4761630000000 1.0
C      1  0.4916790000000  0.5112930000000  0.6127490000000 1.0
C      1  0.3884300000000  0.5098700000000  0.4919430000000 1.0
C      1  0.5099340000000  0.5102570000000  0.3878490000000 1.0
C      1  0.6131270000000  0.5092020000000  0.5097760000000 1.0
C      1  0.4257100000000  0.5855830000000  0.5324520000000 1.0
C      1  0.4678050000000  0.5833470000000  0.4227330000000 1.0
C      1  0.5750140000000  0.5869010000000  0.4727820000000 1.0
C      1  0.5284050000000  0.5875840000000  0.5716640000000 1.0
C      1  0.5082140000000  0.3785500000000  0.4780050000000 1.0
C      1  0.5192490000000  0.3787340000000  0.5070960000000 1.0
C      1  0.4903620000000  0.3777180000000  0.5182620000000 1.0
C      1  0.4790200000000  0.3776220000000  0.4889820000000 1.0
C      1  0.5083170000000  0.4977290000000  0.4582860000000 1.0
C      1  0.5401830000000  0.4956060000000  0.5107010000000 1.0
C      1  0.4928370000000  0.4946120000000  0.5403510000000 1.0
C      1  0.4597750000000  0.4953480000000  0.4926160000000 1.0
C      1  0.4348870000000  0.5217970000000  0.5451560000000 1.0
C      1  0.4574340000000  0.5211870000000  0.4369910000000 1.0
C      1  0.5699080000000  0.5230070000000  0.4532490000000 1.0
C      1  0.5498000000000  0.5233640000000  0.5701510000000 1.0
C      1  0.5693900000000  0.5611150000000  0.5177040000000 1.0
C      1  0.4836710000000  0.5613520000000  0.5684860000000 1.0
C      1  0.4304150000000  0.5611530000000  0.4809460000000 1.0
C      1  0.5200720000000  0.5628800000000  0.4312220000000 1.0
END
