TITL C-3578208-4450-710 -5.84550913211226e-06 125000 -997.754766145402 0 0 159 (C1) n - 1
REM
REM in /home/bkarasulu/work/CARBON/AIRSS/Generating-Clusters/EDIP-Nigel-Params/with-SteepDescent/Higher-Symm/SD-CG/HFTN-CG
REM
REM
REM
REM
REM
REM ./C.cell (12c818d87b63d06a65506943cc24bca4)
REM
REM compiler GCC version 9.2.1 20190827 (Red Hat 9.2.1-1)
REM options -cpp -mtune=generic -march=x86-64 -g -O0 -fpre-include=/usr/include/finclude/math-vector-fortran.h
REM seed 332059356 -772479518 -638159170 1037936030 -1978448766 341044624 1539401308 108146294 1338603033 1790104812 944689935 -1274283958 854912484 1417382760 -1274712357 176080135 -1160945571 -1187406583 1374974658 652069261 625634834 -1857037945 1078580534 -142981161 -716016221 -106819314 1840521868 -2056780679 -615752773 1016340589 -802346919 -111398992 -257514160
REM
CELL 1.54180   50.00000   50.00000   50.00000   90.00000   90.00000   90.00000
LATT -1
SFAC C  
C      1  0.4597670000000  0.5293680000000  0.4787570000000 1.0
C      1  0.4549420000000  0.5226650000000  0.5342410000000 1.0
C      1  0.5223840000000  0.5286990000000  0.5473530000000 1.0
C      1  0.5502320000000  0.5233100000000  0.4990460000000 1.0
C      1  0.5149580000000  0.5217540000000  0.4551170000000 1.0
C      1  0.5090550000000  0.4446290000000  0.5709060000000 1.0
C      1  0.5594580000000  0.4401540000000  0.5133450000000 1.0
C      1  0.5283820000000  0.4445540000000  0.4392960000000 1.0
C      1  0.4538440000000  0.4440230000000  0.4520470000000 1.0
C      1  0.4453660000000  0.4410390000000  0.5265980000000 1.0
C      1  0.4751450000000  0.4419890000000  0.5655630000000 1.0
C      1  0.5523310000000  0.4392770000000  0.5451550000000 1.0
C      1  0.5534440000000  0.4417320000000  0.4634960000000 1.0
C      1  0.4812470000000  0.4418430000000  0.4299830000000 1.0
C      1  0.4391810000000  0.4395880000000  0.4966950000000 1.0
C      1  0.3973000000000  0.5126230000000  0.4877650000000 1.0
C      1  0.4538750000000  0.5179100000000  0.6000970000000 1.0
C      1  0.5761020000000  0.5135290000000  0.5697910000000 1.0
C      1  0.5947540000000  0.5145250000000  0.4452900000000 1.0
C      1  0.4808140000000  0.5172010000000  0.3896950000000 1.0
C      1  0.5272370000000  0.4758530000000  0.5329820000000 1.0
C      1  0.5350530000000  0.4785190000000  0.4850030000000 1.0
C      1  0.4924670000000  0.4790010000000  0.4527410000000 1.0
C      1  0.4563440000000  0.4827740000000  0.4882580000000 1.0
C      1  0.4805950000000  0.4776930000000  0.5353290000000 1.0
C      1  0.4329540000000  0.4741980000000  0.5657760000000 1.0
C      1  0.5341750000000  0.4727760000000  0.5813020000000 1.0
C      1  0.5890890000000  0.4734550000000  0.4861880000000 1.0
C      1  0.5188210000000  0.4697160000000  0.4110350000000 1.0
C      1  0.4251780000000  0.4639960000000  0.4549060000000 1.0
C      1  0.5177600000000  0.5577290000000  0.5862420000000 1.0
C      1  0.5819830000000  0.5537480000000  0.5072110000000 1.0
C      1  0.5365610000000  0.5538970000000  0.4225280000000 1.0
C      1  0.4374720000000  0.5554180000000  0.4417500000000 1.0
C      1  0.4244810000000  0.5576100000000  0.5437860000000 1.0
C      1  0.5492830000000  0.5187340000000  0.5805750000000 1.0
C      1  0.6006850000000  0.5210410000000  0.4735630000000 1.0
C      1  0.5100910000000  0.5213080000000  0.3937480000000 1.0
C      1  0.4099630000000  0.5177470000000  0.4613110000000 1.0
C      1  0.4317480000000  0.5233960000000  0.5811180000000 1.0
C      1  0.5388360000000  0.4839170000000  0.4548600000000 1.0
C      1  0.4655030000000  0.4857700000000  0.4427260000000 1.0
C      1  0.4385360000000  0.4826140000000  0.5126710000000 1.0
C      1  0.4938500000000  0.4854420000000  0.5617070000000 1.0
C      1  0.5560010000000  0.4825610000000  0.5253840000000 1.0
C      1  0.4673430000000  0.5400320000000  0.4049040000000 1.0
C      1  0.4013420000000  0.5382190000000  0.5040750000000 1.0
C      1  0.4723650000000  0.5417800000000  0.5984750000000 1.0
C      1  0.5828020000000  0.5386610000000  0.5547480000000 1.0
C      1  0.5804710000000  0.5395480000000  0.4354150000000 1.0
C      1  0.4678720000000  0.5597380000000  0.5167830000000 1.0
C      1  0.5011090000000  0.5546250000000  0.5452530000000 1.0
C      1  0.5233570000000  0.5604660000000  0.5157300000000 1.0
C      1  0.5257640000000  0.5631920000000  0.4820810000000 1.0
C      1  0.4767540000000  0.5503080000000  0.4682580000000 1.0
C      1  0.4774250000000  0.6022920000000  0.4907940000000 1.0
C      1  0.4837000000000  0.6010930000000  0.5195880000000 1.0
C      1  0.5126590000000  0.6027010000000  0.5220580000000 1.0
C      1  0.5251230000000  0.6049890000000  0.4952480000000 1.0
C      1  0.5032090000000  0.6007680000000  0.4761820000000 1.0
C      1  0.4717130000000  0.4498680000000  0.5371150000000 1.0
C      1  0.5246790000000  0.4489830000000  0.5445610000000 1.0
C      1  0.5417360000000  0.4500360000000  0.4902130000000 1.0
C      1  0.5003920000000  0.4503400000000  0.4534020000000 1.0
C      1  0.4640840000000  0.4533040000000  0.4824370000000 1.0
C      1  0.4180280000000  0.5459000000000  0.4606930000000 1.0
C      1  0.4335040000000  0.5516330000000  0.5709360000000 1.0
C      1  0.5441720000000  0.5474200000000  0.5809160000000 1.0
C      1  0.5894200000000  0.5474500000000  0.4804340000000 1.0
C      1  0.5138430000000  0.5484780000000  0.4060530000000 1.0
C      1  0.4430180000000  0.4883130000000  0.4617080000000 1.0
C      1  0.4522560000000  0.4903000000000  0.5368180000000 1.0
C      1  0.5217490000000  0.4918780000000  0.5582510000000 1.0
C      1  0.5580550000000  0.4925260000000  0.4984690000000 1.0
C      1  0.5153020000000  0.4937440000000  0.4413590000000 1.0
C      1  0.4136790000000  0.4551060000000  0.4815770000000 1.0
C      1  0.4537620000000  0.4611400000000  0.5819000000000 1.0
C      1  0.5599780000000  0.4590100000000  0.5699450000000 1.0
C      1  0.5814790000000  0.4592110000000  0.4616250000000 1.0
C      1  0.4902760000000  0.4607330000000  0.4057650000000 1.0
C      1  0.5285910000000  0.4109950000000  0.5057890000000 1.0
C      1  0.5225730000000  0.3925140000000  0.4454130000000 1.0
C      1  0.4758860000000  0.4035430000000  0.4663940000000 1.0
C      1  0.4743050000000  0.4100890000000  0.5181600000000 1.0
C      1  0.5088720000000  0.4078850000000  0.5466440000000 1.0
C      1  0.4635250000000  0.4130790000000  0.5610410000000 1.0
C      1  0.5469860000000  0.4107730000000  0.5555480000000 1.0
C      1  0.5582960000000  0.4127750000000  0.4731490000000 1.0
C      1  0.4921480000000  0.4143060000000  0.4220310000000 1.0
C      1  0.4376910000000  0.4108010000000  0.4867320000000 1.0
C      1  0.5542740000000  0.5069890000000  0.4123360000000 1.0
C      1  0.4307960000000  0.5086270000000  0.4163620000000 1.0
C      1  0.4066440000000  0.5080620000000  0.5405760000000 1.0
C      1  0.5119370000000  0.5114450000000  0.6082990000000 1.0
C      1  0.5988070000000  0.5073730000000  0.5219880000000 1.0
C      1  0.4640120000000  0.4809560000000  0.6003200000000 1.0
C      1  0.5828610000000  0.4765670000000  0.5665060000000 1.0
C      1  0.5854520000000  0.4775230000000  0.4395220000000 1.0
C      1  0.4714770000000  0.4806870000000  0.3953480000000 1.0
C      1  0.3958640000000  0.4747040000000  0.4940770000000 1.0
C      1  0.4841030000000  0.4968680000000  0.5870680000000 1.0
C      1  0.5809250000000  0.4894870000000  0.5397560000000 1.0
C      1  0.5619660000000  0.4946010000000  0.4389170000000 1.0
C      1  0.4603460000000  0.4980980000000  0.4165910000000 1.0
C      1  0.4100920000000  0.4891310000000  0.5156290000000 1.0
C      1  0.5347780000000  0.5775880000000  0.4412530000000 1.0
C      1  0.4601460000000  0.5724050000000  0.4543260000000 1.0
C      1  0.4411070000000  0.5787650000000  0.5273870000000 1.0
C      1  0.5065610000000  0.5772020000000  0.5650870000000 1.0
C      1  0.5641150000000  0.5766260000000  0.5124070000000 1.0
C      1  0.4643430000000  0.5957360000000  0.5412760000000 1.0
C      1  0.5259860000000  0.5918430000000  0.5455130000000 1.0
C      1  0.5516730000000  0.5912750000000  0.4888670000000 1.0
C      1  0.5078150000000  0.5877170000000  0.4501310000000 1.0
C      1  0.4529710000000  0.5911450000000  0.4783420000000 1.0
C      1  0.4911400000000  0.3924290000000  0.4439290000000 1.0
C      1  0.4634650000000  0.3947180000000  0.4942710000000 1.0
C      1  0.4819090000000  0.3955170000000  0.5452690000000 1.0
C      1  0.5322890000000  0.3951610000000  0.5311670000000 1.0
C      1  0.5351240000000  0.3958700000000  0.4712460000000 1.0
C      1  0.5531800000000  0.5803810000000  0.5400850000000 1.0
C      1  0.5582400000000  0.5814750000000  0.4593450000000 1.0
C      1  0.4832570000000  0.5804700000000  0.4345940000000 1.0
C      1  0.4315200000000  0.5827940000000  0.4976980000000 1.0
C      1  0.4760430000000  0.5856190000000  0.5675170000000 1.0
C      1  0.5047670000000  0.5106420000000  0.4807470000000 1.0
C      1  0.4759080000000  0.5079920000000  0.4896020000000 1.0
C      1  0.4794900000000  0.5175120000000  0.5167340000000 1.0
C      1  0.5067420000000  0.5159450000000  0.5249690000000 1.0
C      1  0.5212180000000  0.5167150000000  0.5019520000000 1.0
C      1  0.5666450000000  0.4149930000000  0.5008760000000 1.0
C      1  0.5230180000000  0.4172320000000  0.4262510000000 1.0
C      1  0.4489160000000  0.4152000000000  0.4583500000000 1.0
C      1  0.4430950000000  0.4161410000000  0.5403380000000 1.0
C      1  0.5207690000000  0.4165970000000  0.5748090000000 1.0
C      1  0.5370060000000  0.4996680000000  0.5986050000000 1.0
C      1  0.6007390000000  0.4995020000000  0.4933500000000 1.0
C      1  0.5282840000000  0.4983450000000  0.4005770000000 1.0
C      1  0.4134620000000  0.4981530000000  0.4392180000000 1.0
C      1  0.4208450000000  0.5010520000000  0.5653850000000 1.0
C      1  0.5470090000000  0.5396610000000  0.5295190000000 1.0
C      1  0.5426840000000  0.5390340000000  0.4704040000000 1.0
C      1  0.4923890000000  0.5384310000000  0.4465570000000 1.0
C      1  0.4453940000000  0.5408430000000  0.5012800000000 1.0
C      1  0.4731610000000  0.5432230000000  0.5521780000000 1.0
C      1  0.4411470000000  0.5375920000000  0.4180810000000 1.0
C      1  0.4125000000000  0.5345620000000  0.5302210000000 1.0
C      1  0.5008730000000  0.5363820000000  0.5970010000000 1.0
C      1  0.5911700000000  0.5352570000000  0.5275310000000 1.0
C      1  0.5593730000000  0.5364520000000  0.4157770000000 1.0
C      1  0.4888120000000  0.5534590000000  0.4210250000000 1.0
C      1  0.4205760000000  0.5552180000000  0.4891930000000 1.0
C      1  0.4621370000000  0.5586770000000  0.5755350000000 1.0
C      1  0.5622350000000  0.5593860000000  0.5605480000000 1.0
C      1  0.5692070000000  0.5530870000000  0.4598080000000 1.0
C      1  0.5046060000000  0.4760500000000  0.5070130000000 1.0
C      1  0.5001980000000  0.4241930000000  0.5066920000000 1.0
C      1  0.4927540000000  0.5616860000000  0.4933980000000 1.0
C      1  0.4950330000000  0.4493750000000  0.4907470000000 1.0
END
