TITL C-3577090-796-39 -6.80598034781456e-07 125000 -1231.03719664195 0 0 198 (C1) n - 1
REM
REM in /home/bkarasulu/work/CARBON/AIRSS/Generating-Clusters/EDIP-Nigel-Params/with-SteepDescent/Higher-Symm/SD-CG/HFTN-CG
REM
REM
REM
REM
REM
REM ./C.cell (12c818d87b63d06a65506943cc24bca4)
REM
REM compiler GCC version 9.2.1 20190827 (Red Hat 9.2.1-1)
REM options -cpp -mtune=generic -march=x86-64 -g -O0 -fpre-include=/usr/include/finclude/math-vector-fortran.h
REM seed -1017790204 -920306591 633786924 1574660638 -520420317 255679108 -1443327045 1919546938 52398716 -1714488695 2123726724 1666430019 1276557800 -1420862123 1470511857 -1665030720 -2076615040 1471856360 1216473180 -1050616299 537471941 -107674828 -1918679362 148744377 1274510584 1546334114 1352913049 191232236 -108858260 911521208 -293607719 537740989 245532066
REM
CELL 1.54180   50.00000   50.00000   50.00000   90.00000   90.00000   90.00000
LATT -1
SFAC C  
C      1  0.4790710000000  0.4391120000000  0.5013190000000 1.0
C      1  0.4761740000000  0.5578810000000  0.5021860000000 1.0
C      1  0.4056820000000  0.5777780000000  0.4744640000000 1.0
C      1  0.4055270000000  0.4234880000000  0.4778340000000 1.0
C      1  0.5623750000000  0.4825580000000  0.4241510000000 1.0
C      1  0.5618930000000  0.5167910000000  0.4256770000000 1.0
C      1  0.4972590000000  0.3869920000000  0.5126330000000 1.0
C      1  0.4925920000000  0.6147800000000  0.5138680000000 1.0
C      1  0.5807740000000  0.5243910000000  0.5653150000000 1.0
C      1  0.5776980000000  0.4758170000000  0.5648260000000 1.0
C      1  0.3972360000000  0.5156080000000  0.4994920000000 1.0
C      1  0.3983490000000  0.4827560000000  0.5016100000000 1.0
C      1  0.4405240000000  0.5276650000000  0.4669920000000 1.0
C      1  0.4421960000000  0.4701230000000  0.4675620000000 1.0
C      1  0.4526170000000  0.5712010000000  0.4832920000000 1.0
C      1  0.4538340000000  0.4271930000000  0.4839590000000 1.0
C      1  0.5387090000000  0.3830760000000  0.4547340000000 1.0
C      1  0.5396800000000  0.6128940000000  0.4594680000000 1.0
C      1  0.6089450000000  0.4847360000000  0.4422770000000 1.0
C      1  0.6081410000000  0.5160680000000  0.4434110000000 1.0
C      1  0.5144880000000  0.5728560000000  0.5275740000000 1.0
C      1  0.5193240000000  0.4348740000000  0.5297640000000 1.0
C      1  0.4766580000000  0.3984610000000  0.4278660000000 1.0
C      1  0.4772230000000  0.6007390000000  0.4299670000000 1.0
C      1  0.5305570000000  0.4614270000000  0.5456790000000 1.0
C      1  0.5218960000000  0.5590900000000  0.5529410000000 1.0
C      1  0.4896270000000  0.5370540000000  0.3903160000000 1.0
C      1  0.4896060000000  0.4626820000000  0.3885900000000 1.0
C      1  0.4671310000000  0.5186700000000  0.3868170000000 1.0
C      1  0.4669490000000  0.4810130000000  0.3859750000000 1.0
C      1  0.4718760000000  0.5373190000000  0.6033490000000 1.0
C      1  0.4834920000000  0.4589370000000  0.6187140000000 1.0
C      1  0.4251050000000  0.4657710000000  0.4987890000000 1.0
C      1  0.4229910000000  0.5332760000000  0.4943670000000 1.0
C      1  0.4030140000000  0.5616730000000  0.5625590000000 1.0
C      1  0.4068150000000  0.4387320000000  0.5650750000000 1.0
C      1  0.4519430000000  0.3970590000000  0.4441030000000 1.0
C      1  0.4522870000000  0.6021140000000  0.4455480000000 1.0
C      1  0.5070220000000  0.5111190000000  0.5076740000000 1.0
C      1  0.5068170000000  0.4827140000000  0.5061060000000 1.0
C      1  0.5503890000000  0.4028410000000  0.5187220000000 1.0
C      1  0.5469200000000  0.6010880000000  0.5309150000000 1.0
C      1  0.5241160000000  0.6046000000000  0.5478050000000 1.0
C      1  0.5309160000000  0.4084660000000  0.5395670000000 1.0
C      1  0.5906460000000  0.4342380000000  0.4944680000000 1.0
C      1  0.5884900000000  0.5654250000000  0.4991230000000 1.0
C      1  0.5064690000000  0.5629940000000  0.4374370000000 1.0
C      1  0.5068010000000  0.4334120000000  0.4343510000000 1.0
C      1  0.5770100000000  0.5596160000000  0.5258950000000 1.0
C      1  0.5816730000000  0.4344210000000  0.5223570000000 1.0
C      1  0.4834670000000  0.5772260000000  0.5760180000000 1.0
C      1  0.4897160000000  0.4503040000000  0.5730090000000 1.0
C      1  0.5006250000000  0.5330280000000  0.6131570000000 1.0
C      1  0.5116430000000  0.4601090000000  0.6134860000000 1.0
C      1  0.5434180000000  0.6117510000000  0.5037800000000 1.0
C      1  0.5467870000000  0.3822390000000  0.4985940000000 1.0
C      1  0.4773820000000  0.5517010000000  0.4365300000000 1.0
C      1  0.4778640000000  0.4457770000000  0.4342310000000 1.0
C      1  0.5324040000000  0.5503970000000  0.5062570000000 1.0
C      1  0.5345740000000  0.4450490000000  0.4990950000000 1.0
C      1  0.4567270000000  0.4844760000000  0.4143150000000 1.0
C      1  0.4566010000000  0.5138520000000  0.4148400000000 1.0
C      1  0.4499460000000  0.6094210000000  0.5528680000000 1.0
C      1  0.4585680000000  0.4005930000000  0.5543910000000 1.0
C      1  0.3924540000000  0.4856240000000  0.5316570000000 1.0
C      1  0.3927590000000  0.5163290000000  0.5298800000000 1.0
C      1  0.4882930000000  0.4016270000000  0.5584310000000 1.0
C      1  0.4782330000000  0.6106240000000  0.5622470000000 1.0
C      1  0.4819050000000  0.5853970000000  0.4059530000000 1.0
C      1  0.4819580000000  0.4134900000000  0.4035590000000 1.0
C      1  0.5551650000000  0.5705920000000  0.5677760000000 1.0
C      1  0.5510110000000  0.4131320000000  0.5618140000000 1.0
C      1  0.5492480000000  0.4374270000000  0.5774730000000 1.0
C      1  0.5560810000000  0.5517290000000  0.5901750000000 1.0
C      1  0.5121720000000  0.5694790000000  0.5791090000000 1.0
C      1  0.5032860000000  0.4254080000000  0.5838820000000 1.0
C      1  0.5072410000000  0.4742320000000  0.5619410000000 1.0
C      1  0.5130940000000  0.5308830000000  0.5528280000000 1.0
C      1  0.5217090000000  0.5263920000000  0.4888570000000 1.0
C      1  0.5230520000000  0.4696220000000  0.4861380000000 1.0
C      1  0.4295630000000  0.5234440000000  0.4203220000000 1.0
C      1  0.4300920000000  0.4740340000000  0.4203070000000 1.0
C      1  0.5748540000000  0.4084210000000  0.5330350000000 1.0
C      1  0.5663680000000  0.5817720000000  0.5428170000000 1.0
C      1  0.4727830000000  0.4412960000000  0.4046430000000 1.0
C      1  0.4728230000000  0.5575930000000  0.4071830000000 1.0
C      1  0.5626230000000  0.4679610000000  0.4517850000000 1.0
C      1  0.5622110000000  0.5298230000000  0.4543350000000 1.0
C      1  0.5713240000000  0.4209080000000  0.4731130000000 1.0
C      1  0.5686630000000  0.5761210000000  0.4783420000000 1.0
C      1  0.5437520000000  0.4841730000000  0.4704390000000 1.0
C      1  0.5440270000000  0.5130600000000  0.4728930000000 1.0
C      1  0.5421800000000  0.4284570000000  0.4761960000000 1.0
C      1  0.5408220000000  0.5658690000000  0.4816560000000 1.0
C      1  0.4249750000000  0.5132210000000  0.4461200000000 1.0
C      1  0.4258470000000  0.4839150000000  0.4463850000000 1.0
C      1  0.5322650000000  0.4361960000000  0.4495810000000 1.0
C      1  0.5312950000000  0.5606240000000  0.4537040000000 1.0
C      1  0.5913980000000  0.5163390000000  0.4171520000000 1.0
C      1  0.5921180000000  0.4854690000000  0.4160230000000 1.0
C      1  0.4098750000000  0.4240800000000  0.5425470000000 1.0
C      1  0.4072460000000  0.5782140000000  0.5408470000000 1.0
C      1  0.5760150000000  0.5652500000000  0.4509620000000 1.0
C      1  0.5774310000000  0.4337700000000  0.4462360000000 1.0
C      1  0.5730170000000  0.5167240000000  0.5049610000000 1.0
C      1  0.5666390000000  0.4831380000000  0.5173140000000 1.0
C      1  0.5572770000000  0.5366430000000  0.5227120000000 1.0
C      1  0.5577270000000  0.4530690000000  0.5176920000000 1.0
C      1  0.6049490000000  0.5126080000000  0.5509830000000 1.0
C      1  0.6025540000000  0.4816930000000  0.5500370000000 1.0
C      1  0.5174770000000  0.3775590000000  0.4936650000000 1.0
C      1  0.5157570000000  0.6197260000000  0.4967250000000 1.0
C      1  0.4495950000000  0.4283960000000  0.5608530000000 1.0
C      1  0.4423040000000  0.5797780000000  0.5577710000000 1.0
C      1  0.5970500000000  0.4817710000000  0.5183820000000 1.0
C      1  0.6040530000000  0.5127460000000  0.5184840000000 1.0
C      1  0.5050390000000  0.4850070000000  0.4293460000000 1.0
C      1  0.5047990000000  0.5131300000000  0.4302800000000 1.0
C      1  0.4812520000000  0.4692510000000  0.5068640000000 1.0
C      1  0.4830760000000  0.5259010000000  0.5171830000000 1.0
C      1  0.5430930000000  0.5297820000000  0.4050750000000 1.0
C      1  0.5432740000000  0.4703440000000  0.4030270000000 1.0
C      1  0.5565710000000  0.4862130000000  0.5463990000000 1.0
C      1  0.5551570000000  0.5169740000000  0.5521170000000 1.0
C      1  0.4988220000000  0.6169390000000  0.5422430000000 1.0
C      1  0.5073100000000  0.3891020000000  0.5398490000000 1.0
C      1  0.5141030000000  0.4811750000000  0.4012860000000 1.0
C      1  0.5140270000000  0.5187700000000  0.4025170000000 1.0
C      1  0.4211390000000  0.4852760000000  0.5445320000000 1.0
C      1  0.4228740000000  0.5167410000000  0.5413930000000 1.0
C      1  0.4911250000000  0.5932060000000  0.4644170000000 1.0
C      1  0.4909370000000  0.4038930000000  0.4623800000000 1.0
C      1  0.4250740000000  0.4150220000000  0.5208640000000 1.0
C      1  0.4237710000000  0.5851910000000  0.5185150000000 1.0
C      1  0.4641080000000  0.4841990000000  0.5244550000000 1.0
C      1  0.4605750000000  0.5097670000000  0.5101900000000 1.0
C      1  0.4843090000000  0.5728720000000  0.5258870000000 1.0
C      1  0.4888910000000  0.4271790000000  0.5287810000000 1.0
C      1  0.6015990000000  0.4607980000000  0.4880280000000 1.0
C      1  0.6006850000000  0.5391430000000  0.4902340000000 1.0
C      1  0.4471360000000  0.4391060000000  0.5898060000000 1.0
C      1  0.4383970000000  0.5732080000000  0.5888080000000 1.0
C      1  0.5307130000000  0.5196440000000  0.5727500000000 1.0
C      1  0.5208150000000  0.4929500000000  0.5812080000000 1.0
C      1  0.4085510000000  0.4175120000000  0.4519850000000 1.0
C      1  0.4078810000000  0.5821410000000  0.4482180000000 1.0
C      1  0.4384030000000  0.4712070000000  0.5253270000000 1.0
C      1  0.4386560000000  0.5259050000000  0.5178010000000 1.0
C      1  0.4295940000000  0.4799610000000  0.5733440000000 1.0
C      1  0.4342970000000  0.5292190000000  0.5678850000000 1.0
C      1  0.5243790000000  0.5455610000000  0.5957680000000 1.0
C      1  0.5258110000000  0.4386670000000  0.5960840000000 1.0
C      1  0.4717740000000  0.4822900000000  0.4658680000000 1.0
C      1  0.4711170000000  0.5146590000000  0.4674270000000 1.0
C      1  0.4438740000000  0.6070850000000  0.5229330000000 1.0
C      1  0.4504180000000  0.4001500000000  0.5260340000000 1.0
C      1  0.5157380000000  0.4313500000000  0.4060390000000 1.0
C      1  0.5156420000000  0.5676060000000  0.4095810000000 1.0
C      1  0.5911810000000  0.4725050000000  0.4629320000000 1.0
C      1  0.5902080000000  0.5258270000000  0.4652630000000 1.0
C      1  0.4618130000000  0.5996670000000  0.4757630000000 1.0
C      1  0.4622140000000  0.3980500000000  0.4768740000000 1.0
C      1  0.4253850000000  0.4320670000000  0.4963470000000 1.0
C      1  0.4237910000000  0.5680540000000  0.4940520000000 1.0
C      1  0.4505170000000  0.5573930000000  0.4556630000000 1.0
C      1  0.4513750000000  0.4407580000000  0.4562820000000 1.0
C      1  0.5067910000000  0.5077080000000  0.6236950000000 1.0
C      1  0.5203910000000  0.4876890000000  0.6094860000000 1.0
C      1  0.4965030000000  0.5646270000000  0.4805790000000 1.0
C      1  0.4980020000000  0.4313980000000  0.4777520000000 1.0
C      1  0.5530650000000  0.4304030000000  0.4310380000000 1.0
C      1  0.5519260000000  0.5682010000000  0.4355310000000 1.0
C      1  0.4695770000000  0.4597220000000  0.5931700000000 1.0
C      1  0.4662730000000  0.5667850000000  0.5991720000000 1.0
C      1  0.4778650000000  0.4755470000000  0.4351070000000 1.0
C      1  0.4774580000000  0.5221710000000  0.4364530000000 1.0
C      1  0.4344500000000  0.5786840000000  0.4405590000000 1.0
C      1  0.4340780000000  0.4206490000000  0.4415810000000 1.0
C      1  0.4848830000000  0.5235740000000  0.5483320000000 1.0
C      1  0.4792000000000  0.4914820000000  0.5519100000000 1.0
C      1  0.4215530000000  0.4535670000000  0.5840640000000 1.0
C      1  0.4200890000000  0.5504570000000  0.5814760000000 1.0
C      1  0.5125390000000  0.6149590000000  0.4687050000000 1.0
C      1  0.5122860000000  0.3819000000000  0.4657060000000 1.0
C      1  0.4584440000000  0.4876630000000  0.5802570000000 1.0
C      1  0.4609990000000  0.5209580000000  0.5788720000000 1.0
C      1  0.5727480000000  0.4523920000000  0.5794040000000 1.0
C      1  0.5788710000000  0.5351610000000  0.5913530000000 1.0
C      1  0.4997920000000  0.5362680000000  0.4719450000000 1.0
C      1  0.5013050000000  0.4597610000000  0.4690510000000 1.0
C      1  0.4736390000000  0.4423090000000  0.5499750000000 1.0
C      1  0.4702790000000  0.5650760000000  0.5506930000000 1.0
C      1  0.5439060000000  0.5594670000000  0.4075870000000 1.0
C      1  0.5439170000000  0.4405180000000  0.4039980000000 1.0
C      1  0.5606360000000  0.3884950000000  0.4726300000000 1.0
C      1  0.5597000000000  0.6059360000000  0.4792680000000 1.0
C      1  0.4650830000000  0.6142910000000  0.5030820000000 1.0
C      1  0.4686010000000  0.3884010000000  0.5056860000000 1.0
END
