TITL C-3578199-7832-714 -6.96403105127962e-06 125000 -823.805173166225 0 0 130 (C1) n - 1
REM
REM in /home/bkarasulu/work/CARBON/AIRSS/Generating-Clusters/EDIP-Nigel-Params/with-SteepDescent/Higher-Symm/SD-CG/HFTN-CG
REM
REM
REM
REM
REM
REM ./C.cell (12c818d87b63d06a65506943cc24bca4)
REM
REM compiler GCC version 9.2.1 20190827 (Red Hat 9.2.1-1)
REM options -cpp -mtune=generic -march=x86-64 -g -O0 -fpre-include=/usr/include/finclude/math-vector-fortran.h
REM seed 1160591625 -75847675 -69829691 -1325000999 1971310018 1884639763 1847566498 1531291093 1674685010 602434736 -364621121 -1457120445 663856963 -2037726151 -50815472 -239173053 -1398096155 1965172310 -430983561 1167309620 -517443168 1131914860 40816665 -2015377643 730740300 -333981760 1766457828 1543976787 301432741 -1021046629 1576025647 -2117268028 1137162379
REM
CELL 1.54180   50.00000   50.00000   50.00000   90.00000   90.00000   90.00000
LATT -1
SFAC C  
C      1  0.4255970000000  0.5572290000000  0.4966610000000 1.0
C      1  0.5409280000000  0.5151090000000  0.5318300000000 1.0
C      1  0.5397980000000  0.5322530000000  0.4997740000000 1.0
C      1  0.4948220000000  0.5659160000000  0.4305940000000 1.0
C      1  0.4699340000000  0.5801370000000  0.5635090000000 1.0
C      1  0.5548060000000  0.5583870000000  0.4193820000000 1.0
C      1  0.5331300000000  0.5714260000000  0.4607840000000 1.0
C      1  0.4199280000000  0.4394320000000  0.5303070000000 1.0
C      1  0.4832730000000  0.4816220000000  0.4944120000000 1.0
C      1  0.5538980000000  0.4581560000000  0.4183830000000 1.0
C      1  0.5347860000000  0.4713310000000  0.5897540000000 1.0
C      1  0.3943560000000  0.4811100000000  0.4933940000000 1.0
C      1  0.4419670000000  0.4324360000000  0.5484470000000 1.0
C      1  0.5187040000000  0.4103190000000  0.4622610000000 1.0
C      1  0.4705920000000  0.4353580000000  0.5837120000000 1.0
C      1  0.5263320000000  0.5951100000000  0.4427210000000 1.0
C      1  0.5353760000000  0.5522110000000  0.5783640000000 1.0
C      1  0.5082690000000  0.5350930000000  0.5030420000000 1.0
C      1  0.4525740000000  0.4854670000000  0.5778460000000 1.0
C      1  0.5667500000000  0.5027430000000  0.5714540000000 1.0
C      1  0.5143290000000  0.5742200000000  0.5395060000000 1.0
C      1  0.4424820000000  0.4740550000000  0.5171130000000 1.0
C      1  0.4635820000000  0.5004410000000  0.4070350000000 1.0
C      1  0.5301830000000  0.4235130000000  0.5372630000000 1.0
C      1  0.4369130000000  0.5508220000000  0.5448560000000 1.0
C      1  0.4873020000000  0.5339400000000  0.5944300000000 1.0
C      1  0.4271990000000  0.5235050000000  0.5475830000000 1.0
C      1  0.4925040000000  0.5489090000000  0.4805130000000 1.0
C      1  0.5480950000000  0.4118840000000  0.4616190000000 1.0
C      1  0.5795530000000  0.4560830000000  0.4885060000000 1.0
C      1  0.4845650000000  0.4385400000000  0.4412930000000 1.0
C      1  0.4850350000000  0.4207170000000  0.5613900000000 1.0
C      1  0.5196380000000  0.4665520000000  0.5328650000000 1.0
C      1  0.4007220000000  0.4876700000000  0.5199040000000 1.0
C      1  0.5796740000000  0.4552170000000  0.4594440000000 1.0
C      1  0.4752200000000  0.5121990000000  0.5283950000000 1.0
C      1  0.4356070000000  0.5648880000000  0.5211170000000 1.0
C      1  0.5035010000000  0.4119980000000  0.4878370000000 1.0
C      1  0.5010140000000  0.5035720000000  0.5625070000000 1.0
C      1  0.5600130000000  0.5552140000000  0.5315270000000 1.0
C      1  0.4843310000000  0.4789800000000  0.4091010000000 1.0
C      1  0.5328830000000  0.4807460000000  0.4137850000000 1.0
C      1  0.4969940000000  0.5048290000000  0.5918610000000 1.0
C      1  0.4097320000000  0.4660640000000  0.5364150000000 1.0
C      1  0.4588880000000  0.5368590000000  0.5842590000000 1.0
C      1  0.5088370000000  0.4492810000000  0.5100720000000 1.0
C      1  0.5787060000000  0.5451340000000  0.4617150000000 1.0
C      1  0.4662670000000  0.4220050000000  0.5365320000000 1.0
C      1  0.5652910000000  0.5017910000000  0.4388100000000 1.0
C      1  0.5475700000000  0.4398110000000  0.4456720000000 1.0
C      1  0.4721870000000  0.4550070000000  0.4205620000000 1.0
C      1  0.5247720000000  0.4922220000000  0.5198950000000 1.0
C      1  0.4976360000000  0.5785120000000  0.5655510000000 1.0
C      1  0.5562910000000  0.4370200000000  0.5306910000000 1.0
C      1  0.5245480000000  0.4605960000000  0.4858030000000 1.0
C      1  0.4568350000000  0.4920240000000  0.5395850000000 1.0
C      1  0.4314470000000  0.4333690000000  0.5036660000000 1.0
C      1  0.5620810000000  0.4626540000000  0.5444310000000 1.0
C      1  0.5213500000000  0.5281150000000  0.4399810000000 1.0
C      1  0.5580820000000  0.5602770000000  0.4480460000000 1.0
C      1  0.4372250000000  0.5094240000000  0.4468850000000 1.0
C      1  0.4543670000000  0.5731350000000  0.4519140000000 1.0
C      1  0.5123610000000  0.5860670000000  0.5067730000000 1.0
C      1  0.4637460000000  0.5265940000000  0.4247340000000 1.0
C      1  0.5815160000000  0.5333580000000  0.5334220000000 1.0
C      1  0.5158620000000  0.4111210000000  0.5144380000000 1.0
C      1  0.4622140000000  0.4871290000000  0.4760270000000 1.0
C      1  0.4225060000000  0.5349590000000  0.4541310000000 1.0
C      1  0.5372500000000  0.5087590000000  0.4805010000000 1.0
C      1  0.5691120000000  0.5076770000000  0.5419100000000 1.0
C      1  0.4357310000000  0.4786470000000  0.4869190000000 1.0
C      1  0.4223520000000  0.4434530000000  0.4778920000000 1.0
C      1  0.5129330000000  0.5626480000000  0.4064620000000 1.0
C      1  0.4413630000000  0.5136360000000  0.5737650000000 1.0
C      1  0.5771310000000  0.4820570000000  0.5289150000000 1.0
C      1  0.4423530000000  0.4465050000000  0.4574550000000 1.0
C      1  0.5669550000000  0.4336350000000  0.5028830000000 1.0
C      1  0.5750600000000  0.5477080000000  0.4903170000000 1.0
C      1  0.5353590000000  0.5815460000000  0.4153050000000 1.0
C      1  0.5355480000000  0.5053350000000  0.4519380000000 1.0
C      1  0.4663960000000  0.5573010000000  0.4281410000000 1.0
C      1  0.5339510000000  0.5353810000000  0.4139770000000 1.0
C      1  0.5723590000000  0.4821530000000  0.4998670000000 1.0
C      1  0.4622070000000  0.5524400000000  0.5592890000000 1.0
C      1  0.4879110000000  0.5773040000000  0.4900760000000 1.0
C      1  0.4760620000000  0.4833310000000  0.5964690000000 1.0
C      1  0.5493030000000  0.5083470000000  0.4096020000000 1.0
C      1  0.5590550000000  0.4740310000000  0.5723900000000 1.0
C      1  0.4572420000000  0.4197560000000  0.5079340000000 1.0
C      1  0.4649650000000  0.5116850000000  0.4606590000000 1.0
C      1  0.5432430000000  0.5173660000000  0.5826200000000 1.0
C      1  0.4882160000000  0.4558470000000  0.5960940000000 1.0
C      1  0.4098690000000  0.5326160000000  0.5000060000000 1.0
C      1  0.4124820000000  0.5142230000000  0.5233070000000 1.0
C      1  0.5928880000000  0.5300380000000  0.5057010000000 1.0
C      1  0.4657500000000  0.4300610000000  0.4607000000000 1.0
C      1  0.4776450000000  0.4571200000000  0.5123130000000 1.0
C      1  0.4039900000000  0.5224520000000  0.4730480000000 1.0
C      1  0.5217280000000  0.4547520000000  0.4562200000000 1.0
C      1  0.5604220000000  0.4115890000000  0.4868570000000 1.0
C      1  0.4840890000000  0.5343700000000  0.5452590000000 1.0
C      1  0.4724580000000  0.4646940000000  0.5448140000000 1.0
C      1  0.5096460000000  0.4776720000000  0.3961200000000 1.0
C      1  0.4452990000000  0.4613370000000  0.4307910000000 1.0
C      1  0.4391590000000  0.4900040000000  0.4222130000000 1.0
C      1  0.5209720000000  0.4812400000000  0.4418710000000 1.0
C      1  0.5025980000000  0.5489460000000  0.5288110000000 1.0
C      1  0.4657730000000  0.5353010000000  0.4776410000000 1.0
C      1  0.5098470000000  0.5516860000000  0.4539830000000 1.0
C      1  0.5845280000000  0.5162770000000  0.4583350000000 1.0
C      1  0.5601690000000  0.5688630000000  0.5051270000000 1.0
C      1  0.5063150000000  0.5573940000000  0.5851630000000 1.0
C      1  0.5410800000000  0.5655380000000  0.5513440000000 1.0
C      1  0.4047870000000  0.4939950000000  0.4710340000000 1.0
C      1  0.5260540000000  0.4986140000000  0.5992230000000 1.0
C      1  0.4418480000000  0.5521800000000  0.4706770000000 1.0
C      1  0.4470930000000  0.4479730000000  0.5720750000000 1.0
C      1  0.4967820000000  0.5046640000000  0.5090190000000 1.0
C      1  0.5349500000000  0.5752350000000  0.4912960000000 1.0
C      1  0.5077200000000  0.4230200000000  0.4388980000000 1.0
C      1  0.4760120000000  0.4215130000000  0.4861650000000 1.0
C      1  0.4765720000000  0.5918140000000  0.4646030000000 1.0
C      1  0.5248220000000  0.5221970000000  0.5562240000000 1.0
C      1  0.5743610000000  0.4725520000000  0.4358320000000 1.0
C      1  0.4959320000000  0.5947920000000  0.4402270000000 1.0
C      1  0.5407180000000  0.4846260000000  0.4952980000000 1.0
C      1  0.5145110000000  0.4278650000000  0.5630530000000 1.0
C      1  0.5010830000000  0.4729460000000  0.5544930000000 1.0
C      1  0.5889250000000  0.5055090000000  0.4872890000000 1.0
C      1  0.5115850000000  0.4559220000000  0.5775000000000 1.0
END
