TITL C-3578195-8548-746 -2.53113064484191e-06 125000 -941.108401567605 0 0 150 (C1) n - 1
REM
REM in /home/bkarasulu/work/CARBON/AIRSS/Generating-Clusters/EDIP-Nigel-Params/with-SteepDescent/Higher-Symm/SD-CG/HFTN-CG
REM
REM
REM
REM
REM
REM ./C.cell (12c818d87b63d06a65506943cc24bca4)
REM
REM compiler GCC version 9.2.1 20190827 (Red Hat 9.2.1-1)
REM options -cpp -mtune=generic -march=x86-64 -g -O0 -fpre-include=/usr/include/finclude/math-vector-fortran.h
REM seed -606368785 648881493 1611884146 -2063896373 718329508 1160335861 528596194 1392055832 -1437563914 -946282471 1796365803 -1576957208 -364390570 1371204606 -609228522 -401414445 -225296379 -1216102270 -1696444252 1936160006 1256011256 1717288511 -466047406 314886878 578487221 -81332143 1418989340 -555972304 -1669983147 1392636975 1253662926 215201721 531930671
REM
CELL 1.54180   50.00000   50.00000   50.00000   90.00000   90.00000   90.00000
LATT -1
SFAC C  
C      1  0.5507820000000  0.4840450000000  0.5735770000000 1.0
C      1  0.4608100000000  0.4847780000000  0.4222380000000 1.0
C      1  0.5336370000000  0.5272880000000  0.5857130000000 1.0
C      1  0.4754530000000  0.5299490000000  0.3992430000000 1.0
C      1  0.4643940000000  0.4767130000000  0.5816870000000 1.0
C      1  0.5291850000000  0.4741100000000  0.4234960000000 1.0
C      1  0.4624380000000  0.5209310000000  0.5815070000000 1.0
C      1  0.5566420000000  0.5141840000000  0.4259180000000 1.0
C      1  0.5726140000000  0.4159780000000  0.4843520000000 1.0
C      1  0.4273760000000  0.4169840000000  0.5146490000000 1.0
C      1  0.5672410000000  0.5746690000000  0.4860370000000 1.0
C      1  0.4248650000000  0.5795640000000  0.5138890000000 1.0
C      1  0.4300360000000  0.4260330000000  0.4877080000000 1.0
C      1  0.5674880000000  0.4235140000000  0.5117250000000 1.0
C      1  0.4287680000000  0.5739700000000  0.4855580000000 1.0
C      1  0.5720730000000  0.5819170000000  0.5134310000000 1.0
C      1  0.4843940000000  0.5773740000000  0.5719960000000 1.0
C      1  0.5164240000000  0.5667150000000  0.4229680000000 1.0
C      1  0.4858610000000  0.4223630000000  0.5728690000000 1.0
C      1  0.5117860000000  0.4270650000000  0.4268070000000 1.0
C      1  0.5126540000000  0.5794260000000  0.5711700000000 1.0
C      1  0.4909300000000  0.5752870000000  0.4269750000000 1.0
C      1  0.5139070000000  0.4215840000000  0.5725130000000 1.0
C      1  0.4835930000000  0.4268380000000  0.4265660000000 1.0
C      1  0.5316920000000  0.5321160000000  0.3843410000000 1.0
C      1  0.4787370000000  0.5322630000000  0.6150710000000 1.0
C      1  0.5000660000000  0.4742370000000  0.3817270000000 1.0
C      1  0.5013780000000  0.4674600000000  0.6162230000000 1.0
C      1  0.5057070000000  0.5315500000000  0.3756950000000 1.0
C      1  0.5052800000000  0.5393130000000  0.6177530000000 1.0
C      1  0.4735230000000  0.4787790000000  0.3860230000000 1.0
C      1  0.5278430000000  0.4651310000000  0.6134790000000 1.0
C      1  0.5180780000000  0.5827510000000  0.4837040000000 1.0
C      1  0.4742970000000  0.5803250000000  0.5144950000000 1.0
C      1  0.5237120000000  0.4211860000000  0.4829610000000 1.0
C      1  0.4797730000000  0.4168840000000  0.5131730000000 1.0
C      1  0.4788310000000  0.5837170000000  0.4836750000000 1.0
C      1  0.5224810000000  0.5820140000000  0.5142770000000 1.0
C      1  0.4764210000000  0.4214760000000  0.4831330000000 1.0
C      1  0.5188260000000  0.4166600000000  0.5130850000000 1.0
C      1  0.5968300000000  0.4616050000000  0.4845820000000 1.0
C      1  0.3993360000000  0.4602430000000  0.5186260000000 1.0
C      1  0.5979010000000  0.5358930000000  0.4848750000000 1.0
C      1  0.4081630000000  0.5325700000000  0.5127810000000 1.0
C      1  0.3971280000000  0.4624730000000  0.4886850000000 1.0
C      1  0.5984590000000  0.4623870000000  0.5145500000000 1.0
C      1  0.3973820000000  0.5349230000000  0.4846860000000 1.0
C      1  0.5935550000000  0.5355530000000  0.5150960000000 1.0
C      1  0.4756290000000  0.5293630000000  0.4279500000000 1.0
C      1  0.5123530000000  0.5085830000000  0.5800990000000 1.0
C      1  0.4819780000000  0.5012640000000  0.4386530000000 1.0
C      1  0.5207990000000  0.4845800000000  0.5626800000000 1.0
C      1  0.5316030000000  0.5185610000000  0.4423780000000 1.0
C      1  0.4872270000000  0.5145380000000  0.5664520000000 1.0
C      1  0.5118900000000  0.4970500000000  0.4338580000000 1.0
C      1  0.4818280000000  0.4854520000000  0.5587330000000 1.0
C      1  0.5287470000000  0.5342860000000  0.5145290000000 1.0
C      1  0.4671560000000  0.5360600000000  0.4870660000000 1.0
C      1  0.5248750000000  0.4679290000000  0.5162050000000 1.0
C      1  0.4756680000000  0.4714910000000  0.4841520000000 1.0
C      1  0.4719430000000  0.5314640000000  0.5147410000000 1.0
C      1  0.5226660000000  0.5310210000000  0.4875250000000 1.0
C      1  0.4731460000000  0.4673280000000  0.5131930000000 1.0
C      1  0.5278000000000  0.4695160000000  0.4875520000000 1.0
C      1  0.4265470000000  0.5511620000000  0.5532050000000 1.0
C      1  0.5765480000000  0.5558870000000  0.4452780000000 1.0
C      1  0.4267000000000  0.4422140000000  0.5553220000000 1.0
C      1  0.5741340000000  0.4436230000000  0.4457060000000 1.0
C      1  0.5715040000000  0.5553510000000  0.5531360000000 1.0
C      1  0.4241980000000  0.5506110000000  0.4458820000000 1.0
C      1  0.5734720000000  0.4427060000000  0.5525090000000 1.0
C      1  0.4226480000000  0.4467890000000  0.4483960000000 1.0
C      1  0.4296790000000  0.5197690000000  0.4510440000000 1.0
C      1  0.5669330000000  0.5247280000000  0.5511300000000 1.0
C      1  0.4276290000000  0.4748530000000  0.4542940000000 1.0
C      1  0.5695540000000  0.4717410000000  0.5528520000000 1.0
C      1  0.5794440000000  0.5270190000000  0.4407270000000 1.0
C      1  0.4313730000000  0.5203160000000  0.5515330000000 1.0
C      1  0.5686820000000  0.4725340000000  0.4494670000000 1.0
C      1  0.4315840000000  0.4723580000000  0.5522330000000 1.0
C      1  0.4527340000000  0.4096110000000  0.5282790000000 1.0
C      1  0.5477030000000  0.4110850000000  0.4684230000000 1.0
C      1  0.4491620000000  0.5875730000000  0.5290390000000 1.0
C      1  0.5456980000000  0.5859590000000  0.4700400000000 1.0
C      1  0.5460070000000  0.4109870000000  0.5266550000000 1.0
C      1  0.4506270000000  0.4151720000000  0.4710140000000 1.0
C      1  0.5478440000000  0.5904060000000  0.5283120000000 1.0
C      1  0.4500480000000  0.5863020000000  0.4698190000000 1.0
C      1  0.5244860000000  0.4417890000000  0.5560580000000 1.0
C      1  0.4730860000000  0.4476910000000  0.4425580000000 1.0
C      1  0.5244770000000  0.5588100000000  0.5562310000000 1.0
C      1  0.4743500000000  0.5567220000000  0.4413590000000 1.0
C      1  0.4740360000000  0.4420960000000  0.5560000000000 1.0
C      1  0.5264180000000  0.4465920000000  0.4412310000000 1.0
C      1  0.4740330000000  0.5555840000000  0.5568930000000 1.0
C      1  0.5252590000000  0.5499470000000  0.4447730000000 1.0
C      1  0.4855790000000  0.4476620000000  0.4700710000000 1.0
C      1  0.5135480000000  0.4437140000000  0.5282430000000 1.0
C      1  0.4828210000000  0.5555760000000  0.4708640000000 1.0
C      1  0.5146980000000  0.5564710000000  0.5283160000000 1.0
C      1  0.5160810000000  0.4474800000000  0.4704070000000 1.0
C      1  0.4841700000000  0.4437110000000  0.5276630000000 1.0
C      1  0.5123680000000  0.5540060000000  0.4723590000000 1.0
C      1  0.4839580000000  0.5549650000000  0.5285330000000 1.0
C      1  0.5822600000000  0.4851360000000  0.5279320000000 1.0
C      1  0.4138570000000  0.4867540000000  0.4785570000000 1.0
C      1  0.5924270000000  0.5129120000000  0.5360360000000 1.0
C      1  0.4020680000000  0.5119760000000  0.4660290000000 1.0
C      1  0.4137950000000  0.4825730000000  0.5310180000000 1.0
C      1  0.5899170000000  0.4851990000000  0.4666300000000 1.0
C      1  0.4079010000000  0.5110100000000  0.5334300000000 1.0
C      1  0.5909050000000  0.5149150000000  0.4649690000000 1.0
C      1  0.5485620000000  0.5758210000000  0.5554670000000 1.0
C      1  0.4475490000000  0.5696430000000  0.4444580000000 1.0
C      1  0.5484200000000  0.4239940000000  0.5540720000000 1.0
C      1  0.4485980000000  0.4291080000000  0.4441580000000 1.0
C      1  0.4490040000000  0.5721320000000  0.5558750000000 1.0
C      1  0.5489340000000  0.5701510000000  0.4443040000000 1.0
C      1  0.4508470000000  0.4233970000000  0.5554450000000 1.0
C      1  0.5493540000000  0.4268640000000  0.4421100000000 1.0
C      1  0.4636450000000  0.4851180000000  0.5342340000000 1.0
C      1  0.5497750000000  0.4880230000000  0.4803500000000 1.0
C      1  0.4514210000000  0.5112890000000  0.5248210000000 1.0
C      1  0.5371510000000  0.5131040000000  0.4707640000000 1.0
C      1  0.5251050000000  0.4910590000000  0.5341280000000 1.0
C      1  0.4734560000000  0.4964190000000  0.4678140000000 1.0
C      1  0.5440300000000  0.5129500000000  0.5277010000000 1.0
C      1  0.4517670000000  0.5144410000000  0.4754590000000 1.0
C      1  0.4608920000000  0.5448600000000  0.5981110000000 1.0
C      1  0.5520180000000  0.5253200000000  0.4001440000000 1.0
C      1  0.4773400000000  0.4739630000000  0.6064050000000 1.0
C      1  0.5217950000000  0.4692300000000  0.3963700000000 1.0
C      1  0.5314760000000  0.5397990000000  0.6108560000000 1.0
C      1  0.4859980000000  0.5498250000000  0.3828930000000 1.0
C      1  0.5496570000000  0.4699170000000  0.5986070000000 1.0
C      1  0.4593600000000  0.4622820000000  0.4029260000000 1.0
C      1  0.5891160000000  0.4360870000000  0.4700400000000 1.0
C      1  0.4102440000000  0.4345710000000  0.5316320000000 1.0
C      1  0.5884360000000  0.5611980000000  0.4718140000000 1.0
C      1  0.4119660000000  0.5572580000000  0.5282410000000 1.0
C      1  0.4082780000000  0.4384590000000  0.4734760000000 1.0
C      1  0.5881290000000  0.4368150000000  0.5273140000000 1.0
C      1  0.4089340000000  0.5589270000000  0.4702120000000 1.0
C      1  0.5868400000000  0.5611660000000  0.5288270000000 1.0
C      1  0.4375470000000  0.4918330000000  0.5772630000000 1.0
C      1  0.5583180000000  0.5131470000000  0.5776310000000 1.0
C      1  0.5576480000000  0.4845370000000  0.4250980000000 1.0
C      1  0.4338630000000  0.4935910000000  0.4326350000000 1.0
C      1  0.5611080000000  0.4966370000000  0.5086540000000 1.0
C      1  0.4364090000000  0.5016830000000  0.4981850000000 1.0
END
