TITL C-3577087-600-25 -3.33204382810095e-07 125000 -605.39457819964 0 0 96 (C1) n - 1
REM
REM in /home/bkarasulu/work/CARBON/AIRSS/Generating-Clusters/EDIP-Nigel-Params/with-SteepDescent/Higher-Symm/SD-CG/HFTN-CG
REM
REM
REM
REM
REM
REM ./C.cell (12c818d87b63d06a65506943cc24bca4)
REM
REM compiler GCC version 9.2.1 20190827 (Red Hat 9.2.1-1)
REM options -cpp -mtune=generic -march=x86-64 -g -O0 -fpre-include=/usr/include/finclude/math-vector-fortran.h
REM seed -767150765 -1193059912 1343378882 815868342 2019082993 1430165326 2015281732 -2123446763 -501101673 -1884562995 1334349819 -982857610 1634246243 -1045835693 -2109833900 188130618 -930856098 635533265 945697233 351561774 1064894540 364076286 -1910401366 -1182539088 -371239611 -514051000 -737960711 -1554780364 -1001467873 936925971 -1209246283 368777078 -258906876
REM
CELL 1.54180   50.00000   50.00000   50.00000   90.00000   90.00000   90.00000
LATT -1
SFAC C  
C      1  0.4909900000000  0.4344700000000  0.5594070000000 1.0
C      1  0.4921710000000  0.5639770000000  0.5607110000000 1.0
C      1  0.5116320000000  0.5870500000000  0.5216500000000 1.0
C      1  0.5112570000000  0.4121680000000  0.5197140000000 1.0
C      1  0.5324290000000  0.5678930000000  0.5199830000000 1.0
C      1  0.5316140000000  0.4319530000000  0.5179530000000 1.0
C      1  0.5500270000000  0.5770910000000  0.4992520000000 1.0
C      1  0.5508230000000  0.4240930000000  0.4981490000000 1.0
C      1  0.5586870000000  0.4466120000000  0.4808640000000 1.0
C      1  0.5579560000000  0.5550600000000  0.4814290000000 1.0
C      1  0.5100200000000  0.4017150000000  0.4920140000000 1.0
C      1  0.5104730000000  0.5971090000000  0.4938980000000 1.0
C      1  0.4622490000000  0.4721940000000  0.5723760000000 1.0
C      1  0.4533750000000  0.5315020000000  0.5766100000000 1.0
C      1  0.4971790000000  0.5291190000000  0.4260720000000 1.0
C      1  0.4971310000000  0.4715260000000  0.4259360000000 1.0
C      1  0.4856680000000  0.5551580000000  0.5064570000000 1.0
C      1  0.4838220000000  0.4433870000000  0.5056410000000 1.0
C      1  0.5604840000000  0.4856450000000  0.5153070000000 1.0
C      1  0.5558450000000  0.5169300000000  0.5151900000000 1.0
C      1  0.5373460000000  0.4033940000000  0.4834720000000 1.0
C      1  0.5372850000000  0.5980060000000  0.4845000000000 1.0
C      1  0.5275360000000  0.5622680000000  0.4434140000000 1.0
C      1  0.5276530000000  0.4381910000000  0.4431120000000 1.0
C      1  0.4822440000000  0.4344220000000  0.4574320000000 1.0
C      1  0.4825980000000  0.5655620000000  0.4581390000000 1.0
C      1  0.5260100000000  0.5280940000000  0.5804200000000 1.0
C      1  0.5273640000000  0.4693810000000  0.5801270000000 1.0
C      1  0.5152650000000  0.4512360000000  0.5602840000000 1.0
C      1  0.5164770000000  0.5476770000000  0.5611040000000 1.0
C      1  0.4777080000000  0.5287880000000  0.5188020000000 1.0
C      1  0.4768790000000  0.4701930000000  0.5187680000000 1.0
C      1  0.4200610000000  0.4851030000000  0.5098270000000 1.0
C      1  0.4204180000000  0.5153700000000  0.5096700000000 1.0
C      1  0.5110730000000  0.5324430000000  0.4884680000000 1.0
C      1  0.5102320000000  0.4652230000000  0.4881120000000 1.0
C      1  0.5388130000000  0.5535170000000  0.5437420000000 1.0
C      1  0.5357620000000  0.4487620000000  0.5402130000000 1.0
C      1  0.4394360000000  0.4447490000000  0.4815430000000 1.0
C      1  0.4404470000000  0.5552170000000  0.4820520000000 1.0
C      1  0.5453270000000  0.4816080000000  0.4522800000000 1.0
C      1  0.5463330000000  0.5193850000000  0.4522690000000 1.0
C      1  0.5725680000000  0.4863680000000  0.4662230000000 1.0
C      1  0.5737950000000  0.5161120000000  0.4668700000000 1.0
C      1  0.5254790000000  0.5129170000000  0.5092500000000 1.0
C      1  0.5222260000000  0.4806720000000  0.5125730000000 1.0
C      1  0.5469840000000  0.5280160000000  0.4231370000000 1.0
C      1  0.5466800000000  0.4728530000000  0.4231370000000 1.0
C      1  0.5337320000000  0.5434800000000  0.4671060000000 1.0
C      1  0.5338560000000  0.4568630000000  0.4668060000000 1.0
C      1  0.4548590000000  0.4441450000000  0.4557540000000 1.0
C      1  0.4552310000000  0.5561950000000  0.4561090000000 1.0
C      1  0.4977650000000  0.5156860000000  0.5365970000000 1.0
C      1  0.4993610000000  0.4829520000000  0.5339250000000 1.0
C      1  0.4713860000000  0.4853950000000  0.4276670000000 1.0
C      1  0.4714520000000  0.5151900000000  0.4277740000000 1.0
C      1  0.4904960000000  0.4140950000000  0.4753330000000 1.0
C      1  0.4909540000000  0.5852450000000  0.4767550000000 1.0
C      1  0.4878460000000  0.4194890000000  0.5348870000000 1.0
C      1  0.4882820000000  0.5787340000000  0.5362630000000 1.0
C      1  0.4900400000000  0.5154740000000  0.4747490000000 1.0
C      1  0.4898190000000  0.4833500000000  0.4747590000000 1.0
C      1  0.5546820000000  0.4706090000000  0.5405120000000 1.0
C      1  0.5571080000000  0.5304130000000  0.5426200000000 1.0
C      1  0.4861550000000  0.5160750000000  0.5661340000000 1.0
C      1  0.4884620000000  0.4853480000000  0.5684530000000 1.0
C      1  0.5209640000000  0.4855390000000  0.4154110000000 1.0
C      1  0.5211250000000  0.5152080000000  0.4158130000000 1.0
C      1  0.5720190000000  0.5312190000000  0.4931640000000 1.0
C      1  0.5734950000000  0.4708660000000  0.4919740000000 1.0
C      1  0.4395500000000  0.5555670000000  0.5272700000000 1.0
C      1  0.4393690000000  0.4447790000000  0.5276600000000 1.0
C      1  0.4491980000000  0.4703620000000  0.4408980000000 1.0
C      1  0.4492450000000  0.5301870000000  0.4409570000000 1.0
C      1  0.5079810000000  0.5121360000000  0.5966980000000 1.0
C      1  0.5111830000000  0.4837920000000  0.5992370000000 1.0
C      1  0.4660900000000  0.5150230000000  0.4949510000000 1.0
C      1  0.4656540000000  0.4842140000000  0.4948790000000 1.0
C      1  0.5483440000000  0.5144060000000  0.5664900000000 1.0
C      1  0.5472370000000  0.4850520000000  0.5647950000000 1.0
C      1  0.4374880000000  0.5255180000000  0.4863790000000 1.0
C      1  0.4367520000000  0.4745020000000  0.4862160000000 1.0
C      1  0.4419000000000  0.4860480000000  0.5558910000000 1.0
C      1  0.4432750000000  0.5154800000000  0.5547720000000 1.0
C      1  0.4308680000000  0.4855880000000  0.4588180000000 1.0
C      1  0.4310540000000  0.5148700000000  0.4589850000000 1.0
C      1  0.4999000000000  0.5566490000000  0.4367260000000 1.0
C      1  0.4998910000000  0.4438590000000  0.4364020000000 1.0
C      1  0.4536980000000  0.4346180000000  0.5051600000000 1.0
C      1  0.4553160000000  0.5650040000000  0.5054460000000 1.0
C      1  0.4689450000000  0.5545520000000  0.5733290000000 1.0
C      1  0.4670450000000  0.4445450000000  0.5704330000000 1.0
C      1  0.5447870000000  0.5562000000000  0.4216330000000 1.0
C      1  0.5448290000000  0.4446470000000  0.4214010000000 1.0
C      1  0.4286290000000  0.5302060000000  0.5341840000000 1.0
C      1  0.4288510000000  0.4704450000000  0.5342700000000 1.0
END
