TITL C-3577077-324-644 -1.00942592966006e-06 125000 -617.195143659184 0 0 100 (C1) n - 1
REM
REM in /home/bkarasulu/work/CARBON/AIRSS/Generating-Clusters/EDIP-Nigel-Params/with-SteepDescent/Higher-Symm/SD-CG/HFTN-CG
REM
REM
REM
REM
REM
REM ./C.cell (12c818d87b63d06a65506943cc24bca4)
REM
REM compiler GCC version 9.2.1 20190827 (Red Hat 9.2.1-1)
REM options -cpp -mtune=generic -march=x86-64 -g -O0 -fpre-include=/usr/include/finclude/math-vector-fortran.h
REM seed -457147508 2112140867 455909543 1848469339 -943010035 527925611 -851356686 -32197501 -1072190213 -1001462670 1587345363 2009615814 -1182653892 2129449593 1941345088 -1414686588 340085597 -576740648 2099530294 -1017160907 1437214734 1435859535 -376858284 1022294071 -1823266428 -1713375091 459819615 1171863623 -1283434760 -804253547 630028877 1926632834 -1463622900
REM
CELL 1.54180   50.00000   50.00000   50.00000   90.00000   90.00000   90.00000
LATT -1
SFAC C  
C      1  0.4374780000000  0.5460390000000  0.4632110000000 1.0
C      1  0.5654570000000  0.5457180000000  0.4639610000000 1.0
C      1  0.5048310000000  0.5413210000000  0.5712450000000 1.0
C      1  0.4337810000000  0.4599500000000  0.4676640000000 1.0
C      1  0.5611360000000  0.4597800000000  0.4602180000000 1.0
C      1  0.5025030000000  0.4576810000000  0.5724280000000 1.0
C      1  0.5458750000000  0.4364570000000  0.4855370000000 1.0
C      1  0.4892780000000  0.4396450000000  0.5531410000000 1.0
C      1  0.4643520000000  0.4383700000000  0.4671140000000 1.0
C      1  0.5575390000000  0.5662980000000  0.4847010000000 1.0
C      1  0.4894090000000  0.5622500000000  0.5434090000000 1.0
C      1  0.4575320000000  0.5679250000000  0.4596080000000 1.0
C      1  0.4905780000000  0.4694300000000  0.4349610000000 1.0
C      1  0.5628300000000  0.4671580000000  0.5247120000000 1.0
C      1  0.4475500000000  0.4697550000000  0.5444640000000 1.0
C      1  0.4894370000000  0.5331100000000  0.4348100000000 1.0
C      1  0.5626800000000  0.5301950000000  0.5240660000000 1.0
C      1  0.4470200000000  0.5318690000000  0.5420470000000 1.0
C      1  0.5046210000000  0.4459230000000  0.5137570000000 1.0
C      1  0.4786340000000  0.4483230000000  0.4941510000000 1.0
C      1  0.5174930000000  0.4504400000000  0.4859700000000 1.0
C      1  0.5025200000000  0.5454730000000  0.5188040000000 1.0
C      1  0.4844570000000  0.5466840000000  0.4940640000000 1.0
C      1  0.5239400000000  0.5484990000000  0.4937950000000 1.0
C      1  0.5584100000000  0.4399720000000  0.5131000000000 1.0
C      1  0.4611730000000  0.4430170000000  0.5446630000000 1.0
C      1  0.4830690000000  0.4417460000000  0.4435310000000 1.0
C      1  0.5615410000000  0.5589910000000  0.5138930000000 1.0
C      1  0.4593330000000  0.5591270000000  0.5423110000000 1.0
C      1  0.4786900000000  0.5617890000000  0.4379290000000 1.0
C      1  0.4104430000000  0.5445020000000  0.5135000000000 1.0
C      1  0.5319750000000  0.5465210000000  0.4168650000000 1.0
C      1  0.5545400000000  0.5431120000000  0.5694890000000 1.0
C      1  0.4125900000000  0.4555790000000  0.5143260000000 1.0
C      1  0.5336150000000  0.4568070000000  0.4184400000000 1.0
C      1  0.5548350000000  0.4528880000000  0.5705930000000 1.0
C      1  0.4704680000000  0.5906840000000  0.5087220000000 1.0
C      1  0.5019520000000  0.5849600000000  0.4704980000000 1.0
C      1  0.5221140000000  0.5871490000000  0.5153820000000 1.0
C      1  0.4732160000000  0.4082250000000  0.5123500000000 1.0
C      1  0.5044330000000  0.4102140000000  0.4721370000000 1.0
C      1  0.5248690000000  0.4066660000000  0.5180930000000 1.0
C      1  0.5751770000000  0.5138140000000  0.5032350000000 1.0
C      1  0.4595520000000  0.5160600000000  0.5629740000000 1.0
C      1  0.4666020000000  0.5149880000000  0.4371380000000 1.0
C      1  0.5747300000000  0.4842050000000  0.5043230000000 1.0
C      1  0.4594870000000  0.4866540000000  0.5651590000000 1.0
C      1  0.4669240000000  0.4858220000000  0.4364590000000 1.0
C      1  0.4947850000000  0.5884170000000  0.5276600000000 1.0
C      1  0.4770410000000  0.5740500000000  0.4832940000000 1.0
C      1  0.5261870000000  0.5889660000000  0.4860220000000 1.0
C      1  0.4974470000000  0.4108760000000  0.5296030000000 1.0
C      1  0.4772080000000  0.4066990000000  0.4834890000000 1.0
C      1  0.5294820000000  0.4084320000000  0.4883350000000 1.0
C      1  0.4262520000000  0.4306660000000  0.5142920000000 1.0
C      1  0.5274240000000  0.4316020000000  0.4298390000000 1.0
C      1  0.5486660000000  0.4279310000000  0.5588160000000 1.0
C      1  0.4229510000000  0.5698430000000  0.5135470000000 1.0
C      1  0.5239340000000  0.5717390000000  0.4265070000000 1.0
C      1  0.5471890000000  0.5678670000000  0.5577640000000 1.0
C      1  0.5308830000000  0.5231430000000  0.4806110000000 1.0
C      1  0.5037960000000  0.5177330000000  0.5289810000000 1.0
C      1  0.4700050000000  0.5217750000000  0.4880420000000 1.0
C      1  0.5227190000000  0.4796020000000  0.4831720000000 1.0
C      1  0.5045000000000  0.4732980000000  0.5291540000000 1.0
C      1  0.4719130000000  0.4775840000000  0.4923750000000 1.0
C      1  0.5724060000000  0.5256760000000  0.5525710000000 1.0
C      1  0.4173450000000  0.5275290000000  0.5373180000000 1.0
C      1  0.5085830000000  0.5282880000000  0.4117050000000 1.0
C      1  0.5725480000000  0.4706220000000  0.5532590000000 1.0
C      1  0.4175580000000  0.4725790000000  0.5389500000000 1.0
C      1  0.5096050000000  0.4736210000000  0.4118690000000 1.0
C      1  0.5316990000000  0.5130320000000  0.5407440000000 1.0
C      1  0.4472240000000  0.5153800000000  0.5067580000000 1.0
C      1  0.5206220000000  0.5180330000000  0.4531580000000 1.0
C      1  0.5312980000000  0.4822710000000  0.5413710000000 1.0
C      1  0.4469920000000  0.4850210000000  0.5086900000000 1.0
C      1  0.5201010000000  0.4871560000000  0.4528640000000 1.0
C      1  0.5306580000000  0.5265420000000  0.5681730000000 1.0
C      1  0.4232010000000  0.5281730000000  0.4932880000000 1.0
C      1  0.5437530000000  0.5311070000000  0.4387930000000 1.0
C      1  0.5309090000000  0.4704970000000  0.5691220000000 1.0
C      1  0.4237920000000  0.4726660000000  0.4931530000000 1.0
C      1  0.5445100000000  0.4739330000000  0.4395520000000 1.0
C      1  0.4476660000000  0.5783620000000  0.5241670000000 1.0
C      1  0.5017010000000  0.5793510000000  0.4418950000000 1.0
C      1  0.5444890000000  0.5749150000000  0.5307020000000 1.0
C      1  0.4527920000000  0.4269050000000  0.5224660000000 1.0
C      1  0.5056830000000  0.4244120000000  0.4461600000000 1.0
C      1  0.5464540000000  0.4215940000000  0.5315600000000 1.0
C      1  0.5606340000000  0.5182890000000  0.4769120000000 1.0
C      1  0.4888780000000  0.5203370000000  0.5563590000000 1.0
C      1  0.4521570000000  0.5197950000000  0.4629870000000 1.0
C      1  0.5552740000000  0.4804940000000  0.4816540000000 1.0
C      1  0.4885240000000  0.4825050000000  0.5646980000000 1.0
C      1  0.4557790000000  0.4807320000000  0.4638650000000 1.0
C      1  0.5146210000000  0.5010320000000  0.4066620000000 1.0
C      1  0.5742620000000  0.4982290000000  0.5602580000000 1.0
C      1  0.4098850000000  0.4999820000000  0.5364620000000 1.0
C      1  0.4986230000000  0.4916860000000  0.5034920000000 1.0
END
