TITL C-3577086-586-592 -3.10701065708933e-06 125000 -485.07433659272 0 0 79 (C1) n - 1
REM
REM in /home/bkarasulu/work/CARBON/AIRSS/Generating-Clusters/EDIP-Nigel-Params/with-SteepDescent/Higher-Symm/SD-CG/HFTN-CG
REM
REM
REM
REM
REM
REM ./C.cell (12c818d87b63d06a65506943cc24bca4)
REM
REM compiler GCC version 9.2.1 20190827 (Red Hat 9.2.1-1)
REM options -cpp -mtune=generic -march=x86-64 -g -O0 -fpre-include=/usr/include/finclude/math-vector-fortran.h
REM seed -1810863808 -1036915452 1539781100 1035550259 1848274076 1535224171 -1939878160 -242653465 -1550499864 853873148 -1654321283 1143875305 -527278526 694496291 334330119 -1183977561 -1191991102 -109164338 -1025230907 550733637 1561907376 1001663565 -1985745629 -896354316 1793161612 -106677150 1981819735 -576565928 -1158459170 -98350572 -1935422411 1702464378 -410859419
REM
CELL 1.54180   50.00000   50.00000   50.00000   90.00000   90.00000   90.00000
LATT -1
SFAC C  
C      1  0.4434490000000  0.5403530000000  0.5266550000000 1.0
C      1  0.4481150000000  0.4813490000000  0.5662550000000 1.0
C      1  0.4433010000000  0.4430690000000  0.5087130000000 1.0
C      1  0.4469290000000  0.4796330000000  0.4450520000000 1.0
C      1  0.4504790000000  0.5470910000000  0.4593210000000 1.0
C      1  0.4633410000000  0.4254720000000  0.5214570000000 1.0
C      1  0.4582270000000  0.4544360000000  0.4366480000000 1.0
C      1  0.4615440000000  0.5509330000000  0.4326850000000 1.0
C      1  0.4638300000000  0.5624840000000  0.5257290000000 1.0
C      1  0.4717820000000  0.4971860000000  0.5736500000000 1.0
C      1  0.4988400000000  0.5224260000000  0.4152140000000 1.0
C      1  0.4873960000000  0.5836650000000  0.4871740000000 1.0
C      1  0.4965420000000  0.5340160000000  0.5705650000000 1.0
C      1  0.4978400000000  0.4325200000000  0.5569820000000 1.0
C      1  0.4895100000000  0.4269530000000  0.4581700000000 1.0
C      1  0.5033070000000  0.4353960000000  0.4839470000000 1.0
C      1  0.5051260000000  0.4974350000000  0.4361560000000 1.0
C      1  0.5038710000000  0.5601560000000  0.4770260000000 1.0
C      1  0.5098190000000  0.5392640000000  0.5442360000000 1.0
C      1  0.5061810000000  0.4643650000000  0.5536040000000 1.0
C      1  0.5342240000000  0.4734960000000  0.5627360000000 1.0
C      1  0.5318290000000  0.4240930000000  0.4884810000000 1.0
C      1  0.5342180000000  0.4853270000000  0.4335810000000 1.0
C      1  0.5356330000000  0.5659540000000  0.4680910000000 1.0
C      1  0.5354670000000  0.5540280000000  0.5490320000000 1.0
C      1  0.5556590000000  0.5710240000000  0.5103370000000 1.0
C      1  0.5597100000000  0.5177170000000  0.5706720000000 1.0
C      1  0.5347580000000  0.4557550000000  0.5181030000000 1.0
C      1  0.5336370000000  0.4671330000000  0.4683300000000 1.0
C      1  0.5351140000000  0.5242810000000  0.4547360000000 1.0
C      1  0.5105540000000  0.5493230000000  0.4274480000000 1.0
C      1  0.5087180000000  0.5806660000000  0.5186200000000 1.0
C      1  0.5123130000000  0.5128030000000  0.5829960000000 1.0
C      1  0.5091650000000  0.4169720000000  0.5318930000000 1.0
C      1  0.5018010000000  0.4454020000000  0.4362270000000 1.0
C      1  0.4405380000000  0.5602270000000  0.4835030000000 1.0
C      1  0.4541880000000  0.5140200000000  0.5366140000000 1.0
C      1  0.4556240000000  0.4599480000000  0.5480620000000 1.0
C      1  0.4524180000000  0.4533080000000  0.4829500000000 1.0
C      1  0.4618300000000  0.5048210000000  0.4433210000000 1.0
C      1  0.5047220000000  0.4631410000000  0.5226390000000 1.0
C      1  0.5038510000000  0.4661980000000  0.4773320000000 1.0
C      1  0.5003700000000  0.5152450000000  0.4623420000000 1.0
C      1  0.4976490000000  0.5402290000000  0.4985920000000 1.0
C      1  0.5177300000000  0.5123740000000  0.5305650000000 1.0
C      1  0.5517830000000  0.5241470000000  0.4958880000000 1.0
C      1  0.5488100000000  0.5146520000000  0.5254610000000 1.0
C      1  0.5637880000000  0.4876990000000  0.5259780000000 1.0
C      1  0.5636930000000  0.4763120000000  0.4980890000000 1.0
C      1  0.5605320000000  0.4998150000000  0.4808500000000 1.0
C      1  0.4312110000000  0.5372850000000  0.5003290000000 1.0
C      1  0.4315730000000  0.4968190000000  0.5467440000000 1.0
C      1  0.4347060000000  0.4628140000000  0.5284020000000 1.0
C      1  0.4385010000000  0.4771820000000  0.4734800000000 1.0
C      1  0.4504920000000  0.5194400000000  0.4646050000000 1.0
C      1  0.5357500000000  0.5024060000000  0.5697360000000 1.0
C      1  0.5350100000000  0.4246500000000  0.5186290000000 1.0
C      1  0.5304080000000  0.4548910000000  0.4396310000000 1.0
C      1  0.5373220000000  0.5502800000000  0.4414340000000 1.0
C      1  0.5359390000000  0.5763110000000  0.5293490000000 1.0
C      1  0.5518200000000  0.4656140000000  0.5410290000000 1.0
C      1  0.5501380000000  0.4450570000000  0.4802410000000 1.0
C      1  0.5540490000000  0.5019900000000  0.4514300000000 1.0
C      1  0.5544720000000  0.5536510000000  0.4884350000000 1.0
C      1  0.5576470000000  0.5338040000000  0.5473580000000 1.0
C      1  0.4610270000000  0.4366910000000  0.4596660000000 1.0
C      1  0.4691160000000  0.5241760000000  0.4215170000000 1.0
C      1  0.4602110000000  0.5778510000000  0.4996510000000 1.0
C      1  0.4688120000000  0.5254610000000  0.5683820000000 1.0
C      1  0.4677770000000  0.4333000000000  0.5512410000000 1.0
C      1  0.4937830000000  0.5553640000000  0.5235010000000 1.0
C      1  0.4952890000000  0.4925360000000  0.5548990000000 1.0
C      1  0.4915680000000  0.4342520000000  0.5129340000000 1.0
C      1  0.4899780000000  0.4714900000000  0.4489660000000 1.0
C      1  0.4934810000000  0.5444280000000  0.4529590000000 1.0
C      1  0.4636060000000  0.4993040000000  0.5103090000000 1.0
C      1  0.4920270000000  0.4884340000000  0.5034540000000 1.0
C      1  0.4419900000000  0.5044640000000  0.4889180000000 1.0
C      1  0.5096050000000  0.5130240000000  0.5004900000000 1.0
END
