TITL C-3577080-309-4 -1.26931284114627e-06 125000 -865.098638915631 0 0 135 (C1) n - 1
REM
REM in /home/bkarasulu/work/CARBON/AIRSS/Generating-Clusters/EDIP-Nigel-Params/with-SteepDescent/Higher-Symm/SD-CG/HFTN-CG
REM
REM
REM
REM
REM
REM ./C.cell (12c818d87b63d06a65506943cc24bca4)
REM
REM compiler GCC version 9.2.1 20190827 (Red Hat 9.2.1-1)
REM options -cpp -mtune=generic -march=x86-64 -g -O0 -fpre-include=/usr/include/finclude/math-vector-fortran.h
REM seed 2079712487 421229087 -1074680134 -918095630 495146849 -25151036 1073579841 818594361 1696324981 867515187 -1540174522 1703570068 2103874755 1067059813 1868688563 288510076 -1911751872 -1370659362 -2078079025 -2030169621 554135761 1731406800 1815570771 1768348455 -954032783 -1277279634 254630015 1213946406 -697745360 1935055867 -281116920 -1224351560 -1792206217
REM
CELL 1.54180   50.00000   50.00000   50.00000   90.00000   90.00000   90.00000
LATT -1
SFAC C  
C      1  0.5574310000000  0.4599820000000  0.4496060000000 1.0
C      1  0.5148020000000  0.4601630000000  0.5749330000000 1.0
C      1  0.4277310000000  0.4601670000000  0.4752200000000 1.0
C      1  0.4731550000000  0.5004820000000  0.4900130000000 1.0
C      1  0.5227320000000  0.4995640000000  0.4819220000000 1.0
C      1  0.5048940000000  0.5009360000000  0.5287470000000 1.0
C      1  0.4394260000000  0.5645300000000  0.4763940000000 1.0
C      1  0.5507470000000  0.5643790000000  0.4592620000000 1.0
C      1  0.5102980000000  0.5648800000000  0.5664650000000 1.0
C      1  0.5661070000000  0.4476960000000  0.4963680000000 1.0
C      1  0.4699860000000  0.4476770000000  0.5591500000000 1.0
C      1  0.4636920000000  0.4474910000000  0.4441260000000 1.0
C      1  0.5236270000000  0.4522420000000  0.4009510000000 1.0
C      1  0.5737430000000  0.4521990000000  0.5698420000000 1.0
C      1  0.4026400000000  0.4523810000000  0.5288620000000 1.0
C      1  0.5023580000000  0.5851490000000  0.4707380000000 1.0
C      1  0.5240040000000  0.5849520000000  0.5164250000000 1.0
C      1  0.4736740000000  0.5850570000000  0.5122890000000 1.0
C      1  0.4397230000000  0.5326770000000  0.5443110000000 1.0
C      1  0.4918260000000  0.5325590000000  0.4255700000000 1.0
C      1  0.5686370000000  0.5325890000000  0.5303490000000 1.0
C      1  0.5427610000000  0.4274070000000  0.4926740000000 1.0
C      1  0.4847840000000  0.4274490000000  0.5406730000000 1.0
C      1  0.4721910000000  0.4271970000000  0.4662090000000 1.0
C      1  0.5121490000000  0.4341580000000  0.5338020000000 1.0
C      1  0.4644610000000  0.4338290000000  0.4934210000000 1.0
C      1  0.5231930000000  0.4336290000000  0.4721840000000 1.0
C      1  0.4435590000000  0.4715490000000  0.5885740000000 1.0
C      1  0.4514570000000  0.4715710000000  0.4066330000000 1.0
C      1  0.6049840000000  0.4714840000000  0.5045350000000 1.0
C      1  0.4285760000000  0.5646800000000  0.5034790000000 1.0
C      1  0.5327210000000  0.5644720000000  0.4363320000000 1.0
C      1  0.5389850000000  0.5645000000000  0.5608250000000 1.0
C      1  0.4844810000000  0.5611230000000  0.4254350000000 1.0
C      1  0.5722030000000  0.5612210000000  0.5241460000000 1.0
C      1  0.4433840000000  0.5612540000000  0.5506770000000 1.0
C      1  0.4776050000000  0.4739030000000  0.4528510000000 1.0
C      1  0.5517070000000  0.4741390000000  0.5039570000000 1.0
C      1  0.4707160000000  0.4742020000000  0.5429330000000 1.0
C      1  0.4875060000000  0.4538650000000  0.5825240000000 1.0
C      1  0.4347340000000  0.4538840000000  0.4477450000000 1.0
C      1  0.5776430000000  0.4538160000000  0.4695190000000 1.0
C      1  0.4655540000000  0.4197820000000  0.5198770000000 1.0
C      1  0.4997970000000  0.4196090000000  0.4598810000000 1.0
C      1  0.5343690000000  0.4198580000000  0.5197150000000 1.0
C      1  0.5007800000000  0.5363920000000  0.5675650000000 1.0
C      1  0.4420150000000  0.5360720000000  0.4670900000000 1.0
C      1  0.5575140000000  0.5359470000000  0.4662670000000 1.0
C      1  0.4267440000000  0.5190800000000  0.4883280000000 1.0
C      1  0.5466780000000  0.5189040000000  0.4424830000000 1.0
C      1  0.5267220000000  0.5191130000000  0.5698270000000 1.0
C      1  0.5940450000000  0.4489450000000  0.5208720000000 1.0
C      1  0.4347720000000  0.4489990000000  0.5709950000000 1.0
C      1  0.4710070000000  0.4489560000000  0.4076830000000 1.0
C      1  0.5510970000000  0.5864300000000  0.4763120000000 1.0
C      1  0.4954780000000  0.5856050000000  0.5554310000000 1.0
C      1  0.4539950000000  0.5865640000000  0.4674490000000 1.0
C      1  0.5595650000000  0.4242720000000  0.5333500000000 1.0
C      1  0.4411610000000  0.4243280000000  0.5348630000000 1.0
C      1  0.4990370000000  0.4242320000000  0.4313010000000 1.0
C      1  0.5366520000000  0.4414410000000  0.4479320000000 1.0
C      1  0.5265290000000  0.4417000000000  0.5576380000000 1.0
C      1  0.4367290000000  0.4416620000000  0.4940410000000 1.0
C      1  0.4609400000000  0.5249610000000  0.5253820000000 1.0
C      1  0.4975510000000  0.5249440000000  0.4534490000000 1.0
C      1  0.5416370000000  0.5249240000000  0.5214740000000 1.0
C      1  0.4975880000000  0.5881250000000  0.5280640000000 1.0
C      1  0.4765580000000  0.5878760000000  0.4834370000000 1.0
C      1  0.5259220000000  0.5877180000000  0.4877610000000 1.0
C      1  0.5881980000000  0.5017520000000  0.4600500000000 1.0
C      1  0.4905250000000  0.5017010000000  0.5965380000000 1.0
C      1  0.4213640000000  0.5018740000000  0.4435370000000 1.0
C      1  0.5864270000000  0.5164210000000  0.5110130000000 1.0
C      1  0.4474350000000  0.5164910000000  0.5693820000000 1.0
C      1  0.4663010000000  0.5163880000000  0.4197430000000 1.0
C      1  0.4081040000000  0.4574840000000  0.5590840000000 1.0
C      1  0.4946960000000  0.4574140000000  0.3905920000000 1.0
C      1  0.5971400000000  0.4573150000000  0.5499470000000 1.0
C      1  0.4709620000000  0.5184760000000  0.4667150000000 1.0
C      1  0.5434230000000  0.5181620000000  0.4918590000000 1.0
C      1  0.4857190000000  0.5188350000000  0.5419990000000 1.0
C      1  0.5211830000000  0.5017340000000  0.5940330000000 1.0
C      1  0.4083510000000  0.5019300000000  0.4713830000000 1.0
C      1  0.5705110000000  0.5017670000000  0.4349190000000 1.0
C      1  0.5875900000000  0.5313700000000  0.4682570000000 1.0
C      1  0.4836730000000  0.5313160000000  0.5922320000000 1.0
C      1  0.4288010000000  0.5314650000000  0.4399900000000 1.0
C      1  0.5978270000000  0.5389300000000  0.4944250000000 1.0
C      1  0.4559260000000  0.5389180000000  0.5876870000000 1.0
C      1  0.4463010000000  0.5389480000000  0.4179890000000 1.0
C      1  0.5530680000000  0.4485130000000  0.5485160000000 1.0
C      1  0.4314190000000  0.4485800000000  0.5215870000000 1.0
C      1  0.5155310000000  0.4484150000000  0.4295070000000 1.0
C      1  0.5471600000000  0.5754830000000  0.5335990000000 1.0
C      1  0.4474030000000  0.5759550000000  0.5244110000000 1.0
C      1  0.5051890000000  0.5758650000000  0.4420030000000 1.0
C      1  0.6060720000000  0.4959390000000  0.5215510000000 1.0
C      1  0.4283980000000  0.4960230000000  0.5810010000000 1.0
C      1  0.4656650000000  0.4960210000000  0.3973450000000 1.0
C      1  0.3963180000000  0.4780680000000  0.5139510000000 1.0
C      1  0.5397550000000  0.4779090000000  0.4029890000000 1.0
C      1  0.5640520000000  0.4778630000000  0.5828990000000 1.0
C      1  0.4130320000000  0.5263630000000  0.5329840000000 1.0
C      1  0.5149490000000  0.5262030000000  0.4081070000000 1.0
C      1  0.5722180000000  0.5261680000000  0.5591030000000 1.0
C      1  0.5146650000000  0.4961860000000  0.4066870000000 1.0
C      1  0.5733080000000  0.4961230000000  0.5592810000000 1.0
C      1  0.4121100000000  0.4963190000000  0.5338170000000 1.0
C      1  0.5894010000000  0.5651000000000  0.5020570000000 1.0
C      1  0.4535140000000  0.5651660000000  0.5767650000000 1.0
C      1  0.4569000000000  0.5652410000000  0.4210360000000 1.0
C      1  0.5170530000000  0.4720380000000  0.4927650000000 1.0
C      1  0.4964780000000  0.4735190000000  0.5214600000000 1.0
C      1  0.4831950000000  0.4728110000000  0.4851960000000 1.0
C      1  0.4728730000000  0.4743210000000  0.5969700000000 1.0
C      1  0.4295960000000  0.4744070000000  0.4278980000000 1.0
C      1  0.5975410000000  0.4742610000000  0.4749310000000 1.0
C      1  0.5617000000000  0.4758770000000  0.4251990000000 1.0
C      1  0.5338980000000  0.4758400000000  0.5909320000000 1.0
C      1  0.4044630000000  0.4760300000000  0.4838320000000 1.0
C      1  0.4073680000000  0.4871290000000  0.5617630000000 1.0
C      1  0.4927910000000  0.4870650000000  0.3886480000000 1.0
C      1  0.5998880000000  0.4869480000000  0.5493560000000 1.0
C      1  0.4501210000000  0.5040500000000  0.5071710000000 1.0
C      1  0.5188270000000  0.5039340000000  0.4534510000000 1.0
C      1  0.5313020000000  0.5041970000000  0.5400710000000 1.0
C      1  0.5048030000000  0.4773460000000  0.4394480000000 1.0
C      1  0.5499160000000  0.4773800000000  0.5342160000000 1.0
C      1  0.4454570000000  0.4774530000000  0.5261180000000 1.0
C      1  0.5494520000000  0.5384030000000  0.5729290000000 1.0
C      1  0.4128450000000  0.5385700000000  0.5063590000000 1.0
C      1  0.5380630000000  0.5383360000000  0.4213630000000 1.0
C      1  0.5671340000000  0.5000430000000  0.4926120000000 1.0
C      1  0.4731020000000  0.5002820000000  0.5618930000000 1.0
C      1  0.4600790000000  0.5000380000000  0.4457090000000 1.0
END
