TITL C-3578196-9646-538 -3.62293810760106e-06 125000 -1129.50505062859 0 0 180 (C1) n - 1
REM
REM in /home/bkarasulu/work/CARBON/AIRSS/Generating-Clusters/EDIP-Nigel-Params/with-SteepDescent/Higher-Symm/SD-CG/HFTN-CG
REM
REM
REM
REM
REM
REM ./C.cell (12c818d87b63d06a65506943cc24bca4)
REM
REM compiler GCC version 9.2.1 20190827 (Red Hat 9.2.1-1)
REM options -cpp -mtune=generic -march=x86-64 -g -O0 -fpre-include=/usr/include/finclude/math-vector-fortran.h
REM seed -1097172842 -711377240 906713041 -785956712 2049124390 472690940 1008997644 -1382837783 7795088 1662727972 -975792818 -621384810 -1749288336 -1400834580 303163513 1433730587 226218973 1285867412 -1989004258 2016147773 1601831169 931837161 -2042900567 -732372700 1241218063 -855277956 -957181184 -1166770185 717634276 1672334556 751145397 -681125622 -1034599999
REM
CELL 1.54180   50.00000   50.00000   50.00000   90.00000   90.00000   90.00000
LATT -1
SFAC C  
C      1  0.5239860000000  0.4739090000000  0.5301820000000 1.0
C      1  0.5095350000000  0.5387610000000  0.5394280000000 1.0
C      1  0.4633920000000  0.4938450000000  0.5352020000000 1.0
C      1  0.4569190000000  0.5643570000000  0.5805910000000 1.0
C      1  0.4664340000000  0.4363740000000  0.5732740000000 1.0
C      1  0.5742330000000  0.5056760000000  0.5794170000000 1.0
C      1  0.5882700000000  0.4331870000000  0.5165850000000 1.0
C      1  0.5192570000000  0.6142730000000  0.5150190000000 1.0
C      1  0.3975210000000  0.4598230000000  0.5146290000000 1.0
C      1  0.5014540000000  0.5659430000000  0.4810330000000 1.0
C      1  0.4354420000000  0.4680770000000  0.4771940000000 1.0
C      1  0.5616500000000  0.4610640000000  0.4800910000000 1.0
C      1  0.4823220000000  0.5493480000000  0.4957390000000 1.0
C      1  0.4603190000000  0.4558350000000  0.4901660000000 1.0
C      1  0.5571120000000  0.4853840000000  0.4940310000000 1.0
C      1  0.4713370000000  0.4025840000000  0.5402190000000 1.0
C      1  0.5991270000000  0.5268750000000  0.5427660000000 1.0
C      1  0.4273510000000  0.5741470000000  0.5424860000000 1.0
C      1  0.5413210000000  0.5403240000000  0.4203100000000 1.0
C      1  0.4321700000000  0.5197620000000  0.4216550000000 1.0
C      1  0.5148450000000  0.4348380000000  0.4129070000000 1.0
C      1  0.4629130000000  0.4958550000000  0.4420950000000 1.0
C      1  0.5273670000000  0.4631810000000  0.4442340000000 1.0
C      1  0.5079290000000  0.5209870000000  0.4467350000000 1.0
C      1  0.5419520000000  0.4405620000000  0.5721360000000 1.0
C      1  0.5315360000000  0.5688090000000  0.5730760000000 1.0
C      1  0.4245520000000  0.4952740000000  0.5739750000000 1.0
C      1  0.4487740000000  0.5711690000000  0.4254820000000 1.0
C      1  0.4664220000000  0.4240950000000  0.4224990000000 1.0
C      1  0.5846220000000  0.5098790000000  0.4246950000000 1.0
C      1  0.4324330000000  0.4913260000000  0.5308950000000 1.0
C      1  0.5423190000000  0.4485490000000  0.5286800000000 1.0
C      1  0.5232370000000  0.5664870000000  0.5297490000000 1.0
C      1  0.4900900000000  0.4094480000000  0.4493500000000 1.0
C      1  0.5879220000000  0.5387070000000  0.4502520000000 1.0
C      1  0.4230170000000  0.5591970000000  0.4515620000000 1.0
C      1  0.4910720000000  0.5232940000000  0.5031960000000 1.0
C      1  0.4802760000000  0.4782810000000  0.4956320000000 1.0
C      1  0.5287060000000  0.4958490000000  0.4890210000000 1.0
C      1  0.4376400000000  0.4329730000000  0.4308410000000 1.0
C      1  0.5922850000000  0.4805090000000  0.4333200000000 1.0
C      1  0.4719320000000  0.5885180000000  0.4336230000000 1.0
C      1  0.5372460000000  0.5390480000000  0.4946220000000 1.0
C      1  0.4466820000000  0.5127370000000  0.4943650000000 1.0
C      1  0.5132720000000  0.4486950000000  0.4886990000000 1.0
C      1  0.4325560000000  0.4675490000000  0.5763710000000 1.0
C      1  0.5622430000000  0.4604150000000  0.5777990000000 1.0
C      1  0.5041620000000  0.5773200000000  0.5780550000000 1.0
C      1  0.4724080000000  0.3934820000000  0.5113880000000 1.0
C      1  0.6061430000000  0.5322630000000  0.5135760000000 1.0
C      1  0.4212260000000  0.5791340000000  0.5139530000000 1.0
C      1  0.4447960000000  0.4243750000000  0.5578840000000 1.0
C      1  0.5922200000000  0.4933840000000  0.5600190000000 1.0
C      1  0.4603030000000  0.5856310000000  0.5597600000000 1.0
C      1  0.3846690000000  0.5033140000000  0.5364450000000 1.0
C      1  0.5553180000000  0.4010700000000  0.5357410000000 1.0
C      1  0.5620940000000  0.5969600000000  0.5351740000000 1.0
C      1  0.4728720000000  0.5136130000000  0.3941760000000 1.0
C      1  0.4919920000000  0.4913000000000  0.3914490000000 1.0
C      1  0.5163270000000  0.5010860000000  0.4045480000000 1.0
C      1  0.5160440000000  0.4202310000000  0.5274140000000 1.0
C      1  0.5598200000000  0.5533490000000  0.5294890000000 1.0
C      1  0.4211800000000  0.5276590000000  0.5276600000000 1.0
C      1  0.4472890000000  0.3966380000000  0.4958700000000 1.0
C      1  0.6168640000000  0.5084250000000  0.4987310000000 1.0
C      1  0.4421090000000  0.5970640000000  0.5014920000000 1.0
C      1  0.5312950000000  0.5101120000000  0.4619050000000 1.0
C      1  0.4908850000000  0.4964080000000  0.4489240000000 1.0
C      1  0.5005730000000  0.4687410000000  0.4579800000000 1.0
C      1  0.5151040000000  0.4469850000000  0.5810170000000 1.0
C      1  0.5383350000000  0.5420150000000  0.5825870000000 1.0
C      1  0.4439350000000  0.5149330000000  0.5832880000000 1.0
C      1  0.5966650000000  0.4359720000000  0.4877690000000 1.0
C      1  0.5114630000000  0.6129530000000  0.4855680000000 1.0
C      1  0.3961310000000  0.4503760000000  0.4861530000000 1.0
C      1  0.5581460000000  0.5155380000000  0.4114790000000 1.0
C      1  0.4576060000000  0.5423870000000  0.4261130000000 1.0
C      1  0.4858420000000  0.4416190000000  0.4081380000000 1.0
C      1  0.4598100000000  0.4618990000000  0.5839740000000 1.0
C      1  0.5549100000000  0.4863960000000  0.5891120000000 1.0
C      1  0.4844130000000  0.5576180000000  0.5892380000000 1.0
C      1  0.4538320000000  0.4986560000000  0.4126820000000 1.0
C      1  0.5283550000000  0.4598890000000  0.4156910000000 1.0
C      1  0.5126980000000  0.5274520000000  0.4172720000000 1.0
C      1  0.4148580000000  0.5064330000000  0.4428600000000 1.0
C      1  0.5403330000000  0.4215760000000  0.4378370000000 1.0
C      1  0.5445020000000  0.5640220000000  0.4413930000000 1.0
C      1  0.5578010000000  0.5014700000000  0.4519760000000 1.0
C      1  0.4666130000000  0.5432430000000  0.4547410000000 1.0
C      1  0.4759760000000  0.4509130000000  0.4496880000000 1.0
C      1  0.5769910000000  0.4836900000000  0.5162820000000 1.0
C      1  0.4734260000000  0.5653120000000  0.5161630000000 1.0
C      1  0.4464930000000  0.4434550000000  0.5143570000000 1.0
C      1  0.6056160000000  0.4823960000000  0.5069850000000 1.0
C      1  0.4726370000000  0.5936490000000  0.5098930000000 1.0
C      1  0.4310420000000  0.4192750000000  0.5047620000000 1.0
C      1  0.4045480000000  0.5565640000000  0.4990830000000 1.0
C      1  0.4996190000000  0.3932780000000  0.4968010000000 1.0
C      1  0.5957420000000  0.5580300000000  0.4990630000000 1.0
C      1  0.4457250000000  0.5586610000000  0.4718330000000 1.0
C      1  0.4742600000000  0.4256850000000  0.4694930000000 1.0
C      1  0.5798640000000  0.5172670000000  0.4695090000000 1.0
C      1  0.4801730000000  0.5089950000000  0.5585300000000 1.0
C      1  0.5032550000000  0.4777420000000  0.5531160000000 1.0
C      1  0.5189270000000  0.5129190000000  0.5559040000000 1.0
C      1  0.5528010000000  0.5823510000000  0.4899470000000 1.0
C      1  0.3986770000000  0.5059790000000  0.4904600000000 1.0
C      1  0.5464900000000  0.4122990000000  0.4889750000000 1.0
C      1  0.5720640000000  0.5766240000000  0.5134720000000 1.0
C      1  0.3935720000000  0.5229510000000  0.5152430000000 1.0
C      1  0.5341230000000  0.3990970000000  0.5138940000000 1.0
C      1  0.4514090000000  0.4700200000000  0.4498470000000 1.0
C      1  0.5546420000000  0.4707180000000  0.4526080000000 1.0
C      1  0.4957880000000  0.5499510000000  0.4540670000000 1.0
C      1  0.5033220000000  0.5934410000000  0.5312850000000 1.0
C      1  0.4246080000000  0.4603200000000  0.5291690000000 1.0
C      1  0.5733320000000  0.4566870000000  0.5309170000000 1.0
C      1  0.5898080000000  0.5605990000000  0.4687240000000 1.0
C      1  0.4024890000000  0.5497940000000  0.4693140000000 1.0
C      1  0.5068790000000  0.3954450000000  0.4674040000000 1.0
C      1  0.4990420000000  0.5784420000000  0.4285500000000 1.0
C      1  0.4243550000000  0.4589340000000  0.4249050000000 1.0
C      1  0.5779980000000  0.4550160000000  0.4265010000000 1.0
C      1  0.5639580000000  0.5736200000000  0.4635070000000 1.0
C      1  0.4000130000000  0.5207450000000  0.4646670000000 1.0
C      1  0.5340570000000  0.4052660000000  0.4625070000000 1.0
C      1  0.5666170000000  0.5106030000000  0.5287380000000 1.0
C      1  0.4600750000000  0.5535560000000  0.5378920000000 1.0
C      1  0.4726940000000  0.4400140000000  0.5295270000000 1.0
C      1  0.4695290000000  0.5086530000000  0.5983410000000 1.0
C      1  0.5075050000000  0.4726430000000  0.5950700000000 1.0
C      1  0.5200940000000  0.5228790000000  0.5967320000000 1.0
C      1  0.5642540000000  0.5324860000000  0.5741960000000 1.0
C      1  0.4384970000000  0.5419750000000  0.5746260000000 1.0
C      1  0.4942170000000  0.4291540000000  0.5712780000000 1.0
C      1  0.5838520000000  0.4646530000000  0.5583370000000 1.0
C      1  0.4899100000000  0.5947750000000  0.5590060000000 1.0
C      1  0.4244300000000  0.4467820000000  0.5565560000000 1.0
C      1  0.4765380000000  0.4687700000000  0.4016150000000 1.0
C      1  0.5432530000000  0.4923640000000  0.4009620000000 1.0
C      1  0.4835530000000  0.5373710000000  0.4079080000000 1.0
C      1  0.4257850000000  0.4925740000000  0.4961470000000 1.0
C      1  0.5422060000000  0.4416700000000  0.4952210000000 1.0
C      1  0.5284510000000  0.5657540000000  0.4980260000000 1.0
C      1  0.3938250000000  0.4671710000000  0.4637010000000 1.0
C      1  0.5820510000000  0.4249590000000  0.4658070000000 1.0
C      1  0.5264850000000  0.6049000000000  0.4624930000000 1.0
C      1  0.4825620000000  0.5398380000000  0.5544090000000 1.0
C      1  0.4766990000000  0.4675290000000  0.5431150000000 1.0
C      1  0.5392990000000  0.4988030000000  0.5387540000000 1.0
C      1  0.4397590000000  0.5406080000000  0.5027170000000 1.0
C      1  0.4955860000000  0.4307530000000  0.5067270000000 1.0
C      1  0.5645760000000  0.5286070000000  0.5001440000000 1.0
C      1  0.6092280000000  0.4794120000000  0.4577320000000 1.0
C      1  0.4688710000000  0.6005700000000  0.4608260000000 1.0
C      1  0.4276960000000  0.4186230000000  0.4549660000000 1.0
C      1  0.4014280000000  0.5019180000000  0.5591830000000 1.0
C      1  0.5481720000000  0.4170810000000  0.5578970000000 1.0
C      1  0.5497970000000  0.5849240000000  0.5580710000000 1.0
C      1  0.5780960000000  0.5455240000000  0.5523610000000 1.0
C      1  0.4198110000000  0.5469440000000  0.5519420000000 1.0
C      1  0.4985380000000  0.4100040000000  0.5499670000000 1.0
C      1  0.5800760000000  0.4077610000000  0.5248860000000 1.0
C      1  0.5461970000000  0.6164480000000  0.5227730000000 1.0
C      1  0.3792380000000  0.4787820000000  0.5242300000000 1.0
C      1  0.4912870000000  0.5294380000000  0.5962820000000 1.0
C      1  0.4792710000000  0.4812340000000  0.5930690000000 1.0
C      1  0.5274280000000  0.4941450000000  0.5948300000000 1.0
C      1  0.4087480000000  0.4773420000000  0.4420070000000 1.0
C      1  0.5688340000000  0.4307680000000  0.4410540000000 1.0
C      1  0.5229460000000  0.5833850000000  0.4439910000000 1.0
C      1  0.4446780000000  0.5902790000000  0.4732480000000 1.0
C      1  0.4509120000000  0.4047180000000  0.4674940000000 1.0
C      1  0.6094540000000  0.5065590000000  0.4700430000000 1.0
C      1  0.4708220000000  0.5026160000000  0.5070950000000 1.0
C      1  0.5095390000000  0.4748620000000  0.5010340000000 1.0
C      1  0.5200230000000  0.5195740000000  0.5064420000000 1.0
C      1  0.6002650000000  0.4650920000000  0.4829120000000 1.0
C      1  0.4884040000000  0.5943630000000  0.4832230000000 1.0
C      1  0.4192880000000  0.4328890000000  0.4806290000000 1.0
END
