TITL C-3577078-809-361 -4.78808234974433e-07 125000 -179.08494871813 0 0 31 (C1) n - 1
REM
REM in /home/bkarasulu/work/CARBON/AIRSS/Generating-Clusters/EDIP-Nigel-Params/with-SteepDescent/Higher-Symm/SD-CG/HFTN-CG
REM
REM
REM
REM
REM
REM ./C.cell (12c818d87b63d06a65506943cc24bca4)
REM
REM compiler GCC version 9.2.1 20190827 (Red Hat 9.2.1-1)
REM options -cpp -mtune=generic -march=x86-64 -g -O0 -fpre-include=/usr/include/finclude/math-vector-fortran.h
REM seed 1923906470 967902003 -985500705 -1426126458 1862407189 691467129 1013388628 -1243994017 -103802819 -1989832175 297250005 -161837282 -1884480790 -1120872805 -454528004 -2106933462 -1787522453 1969041412 351774242 -246594270 310256296 2067047846 -318350300 -26325332 -483596185 372635594 -838392991 -1604296766 1523969558 -2072631900 655370097 2031697096 24029658
REM
CELL 1.54180   50.00000   50.00000   50.00000   90.00000   90.00000   90.00000
LATT -1
SFAC C  
C      1  0.4685280000000  0.4828090000000  0.5431950000000 1.0
C      1  0.5416870000000  0.4942180000000  0.4874350000000 1.0
C      1  0.5227560000000  0.4921720000000  0.5118350000000 1.0
C      1  0.4783300000000  0.5116280000000  0.4997450000000 1.0
C      1  0.4792710000000  0.4854770000000  0.4564470000000 1.0
C      1  0.5017260000000  0.5562330000000  0.4921330000000 1.0
C      1  0.5080080000000  0.5549500000000  0.5520080000000 1.0
C      1  0.4929030000000  0.4242760000000  0.5131340000000 1.0
C      1  0.4705490000000  0.4532190000000  0.5447030000000 1.0
C      1  0.4867340000000  0.5101800000000  0.4449030000000 1.0
C      1  0.5175650000000  0.5459790000000  0.4475640000000 1.0
C      1  0.4652370000000  0.4632990000000  0.4986580000000 1.0
C      1  0.4643800000000  0.4892760000000  0.5137240000000 1.0
C      1  0.5276690000000  0.5177700000000  0.5289370000000 1.0
C      1  0.5205170000000  0.4640060000000  0.5231900000000 1.0
C      1  0.5072310000000  0.4636050000000  0.5490670000000 1.0
C      1  0.4726160000000  0.5345050000000  0.4569170000000 1.0
C      1  0.4703990000000  0.4408930000000  0.5183850000000 1.0
C      1  0.5262850000000  0.5394650000000  0.4848420000000 1.0
C      1  0.5447870000000  0.5326750000000  0.5087770000000 1.0
C      1  0.5031890000000  0.5339850000000  0.5360800000000 1.0
C      1  0.5615130000000  0.5127400000000  0.4964740000000 1.0
C      1  0.5072990000000  0.4512860000000  0.4773620000000 1.0
C      1  0.4850340000000  0.5393650000000  0.5114970000000 1.0
C      1  0.4617820000000  0.5272810000000  0.4825450000000 1.0
C      1  0.4944150000000  0.4887680000000  0.5549900000000 1.0
C      1  0.5153550000000  0.5167780000000  0.4482890000000 1.0
C      1  0.5123780000000  0.4426140000000  0.5038270000000 1.0
C      1  0.4934440000000  0.5562990000000  0.4616660000000 1.0
C      1  0.5163790000000  0.5108000000000  0.4780110000000 1.0
C      1  0.4820350000000  0.4634500000000  0.4736620000000 1.0
END
