TITL C-3578208-4450-66 9.62851280856259e-07 125000 -385.684903969795 0 0 62 (C1) n - 1
REM
REM in /home/bkarasulu/work/CARBON/AIRSS/Generating-Clusters/EDIP-Nigel-Params/with-SteepDescent/Higher-Symm/SD-CG/HFTN-CG
REM
REM
REM
REM
REM
REM ./C.cell (12c818d87b63d06a65506943cc24bca4)
REM
REM compiler GCC version 9.2.1 20190827 (Red Hat 9.2.1-1)
REM options -cpp -mtune=generic -march=x86-64 -g -O0 -fpre-include=/usr/include/finclude/math-vector-fortran.h
REM seed 1033385823 1754016689 -1429699356 -1776961570 -678234650 1875761058 2120872655 -140801047 -1987549578 1400347319 -423202074 109429781 156128348 1315176844 -1411015273 -1721787031 2076157194 1531969181 -694414269 -1196369832 1388812648 244810234 1532624582 -68841040 -193847258 2086776520 929840471 451203275 -837582920 2106294905 1437581383 1352780079 -1908607064
REM
CELL 1.54180   50.00000   50.00000   50.00000   90.00000   90.00000   90.00000
LATT -1
SFAC C  
C      1  0.5843040000000  0.4784260000000  0.4910820000000 1.0
C      1  0.5194190000000  0.4777610000000  0.4171420000000 1.0
C      1  0.4300250000000  0.4836830000000  0.4528850000000 1.0
C      1  0.4345980000000  0.4826280000000  0.5563300000000 1.0
C      1  0.5340450000000  0.4809350000000  0.5796320000000 1.0
C      1  0.5212070000000  0.5546350000000  0.4467870000000 1.0
C      1  0.4548280000000  0.5553060000000  0.4698790000000 1.0
C      1  0.4488250000000  0.5495920000000  0.5360930000000 1.0
C      1  0.5174000000000  0.5539960000000  0.5550340000000 1.0
C      1  0.5646870000000  0.5514120000000  0.5025970000000 1.0
C      1  0.4409120000000  0.5058880000000  0.5417970000000 1.0
C      1  0.5245010000000  0.5059290000000  0.5713610000000 1.0
C      1  0.5721220000000  0.5025300000000  0.4984560000000 1.0
C      1  0.5260180000000  0.5005990000000  0.4326490000000 1.0
C      1  0.4496620000000  0.5042680000000  0.4526070000000 1.0
C      1  0.4568060000000  0.4625240000000  0.5213490000000 1.0
C      1  0.5051010000000  0.4598600000000  0.5491220000000 1.0
C      1  0.5444540000000  0.4587580000000  0.5079840000000 1.0
C      1  0.5179950000000  0.4640000000000  0.4629410000000 1.0
C      1  0.4687020000000  0.4631080000000  0.4706920000000 1.0
C      1  0.4774150000000  0.4674790000000  0.4411170000000 1.0
C      1  0.4382620000000  0.4794590000000  0.5017160000000 1.0
C      1  0.4831890000000  0.4753950000000  0.5611410000000 1.0
C      1  0.5503630000000  0.4732010000000  0.5331270000000 1.0
C      1  0.5479940000000  0.4674460000000  0.4600390000000 1.0
C      1  0.4800110000000  0.4875020000000  0.4872690000000 1.0
C      1  0.4871070000000  0.4864980000000  0.5190300000000 1.0
C      1  0.5191440000000  0.4923630000000  0.5189860000000 1.0
C      1  0.5227860000000  0.5085910000000  0.4926700000000 1.0
C      1  0.5057780000000  0.4932410000000  0.4729380000000 1.0
C      1  0.5497070000000  0.4963490000000  0.4521820000000 1.0
C      1  0.4742530000000  0.4966620000000  0.4367980000000 1.0
C      1  0.4267510000000  0.5122070000000  0.5175520000000 1.0
C      1  0.4957780000000  0.5108300000000  0.5697930000000 1.0
C      1  0.5661840000000  0.5085830000000  0.5270050000000 1.0
C      1  0.4755730000000  0.5372880000000  0.5345110000000 1.0
C      1  0.5310030000000  0.5392830000000  0.5353800000000 1.0
C      1  0.5580330000000  0.5414170000000  0.4773890000000 1.0
C      1  0.4984180000000  0.5393110000000  0.4473290000000 1.0
C      1  0.4587930000000  0.5365640000000  0.4914760000000 1.0
C      1  0.4799160000000  0.4383370000000  0.4831780000000 1.0
C      1  0.4746410000000  0.4401950000000  0.5123630000000 1.0
C      1  0.5006420000000  0.4448030000000  0.5246930000000 1.0
C      1  0.5219340000000  0.4408380000000  0.5058550000000 1.0
C      1  0.5097030000000  0.4394790000000  0.4794210000000 1.0
C      1  0.5005240000000  0.5092980000000  0.4469140000000 1.0
C      1  0.4568870000000  0.5071080000000  0.4817200000000 1.0
C      1  0.4707700000000  0.5074770000000  0.5379320000000 1.0
C      1  0.5302860000000  0.5102750000000  0.5421320000000 1.0
C      1  0.5511360000000  0.5124810000000  0.4794070000000 1.0
C      1  0.5060390000000  0.4610970000000  0.4358070000000 1.0
C      1  0.4389040000000  0.4670970000000  0.4740130000000 1.0
C      1  0.4566740000000  0.4659790000000  0.5513070000000 1.0
C      1  0.5328620000000  0.4652880000000  0.5562340000000 1.0
C      1  0.5625730000000  0.4613740000000  0.4853410000000 1.0
C      1  0.4370600000000  0.5387870000000  0.5121570000000 1.0
C      1  0.4933270000000  0.5393480000000  0.5587360000000 1.0
C      1  0.5595690000000  0.5390210000000  0.5273160000000 1.0
C      1  0.5445130000000  0.5569410000000  0.4592410000000 1.0
C      1  0.4743300000000  0.5518030000000  0.4519070000000 1.0
C      1  0.5092650000000  0.5332320000000  0.4972410000000 1.0
C      1  0.4847000000000  0.5420620000000  0.5063510000000 1.0
END
