TITL C-3578207-9274-743 -1.16244998624602e-06 125000 -856.878237442093 0 0 137 (C1) n - 1
REM
REM in /home/bkarasulu/work/CARBON/AIRSS/Generating-Clusters/EDIP-Nigel-Params/with-SteepDescent/Higher-Symm/SD-CG/HFTN-CG
REM
REM
REM
REM
REM
REM ./C.cell (12c818d87b63d06a65506943cc24bca4)
REM
REM compiler GCC version 9.2.1 20190827 (Red Hat 9.2.1-1)
REM options -cpp -mtune=generic -march=x86-64 -g -O0 -fpre-include=/usr/include/finclude/math-vector-fortran.h
REM seed 835436884 -1292767309 -1159962719 2023274013 -1511246473 -904217273 -259157345 -1611613642 418024634 -1355195728 1626285508 -618107351 -1431609703 1271875042 -1613973924 1037857480 -1661074721 -1469778063 -582454654 -1520968886 -139471236 -1161452222 -391030920 1764386602 828396386 -963609858 -1023744768 -452115868 1804164638 -506802612 -110284157 -1591199806 -918882357
REM
CELL 1.54180   50.00000   50.00000   50.00000   90.00000   90.00000   90.00000
LATT -1
SFAC C  
C      1  0.4896610000000  0.5237940000000  0.3964260000000 1.0
C      1  0.5383530000000  0.5075430000000  0.4545040000000 1.0
C      1  0.5199570000000  0.5501530000000  0.4231420000000 1.0
C      1  0.4140740000000  0.4916600000000  0.5548440000000 1.0
C      1  0.5509190000000  0.5085920000000  0.5591860000000 1.0
C      1  0.5252940000000  0.4795350000000  0.4606810000000 1.0
C      1  0.5077420000000  0.4212440000000  0.5669080000000 1.0
C      1  0.4327880000000  0.5682960000000  0.5364730000000 1.0
C      1  0.4290470000000  0.4579960000000  0.4421820000000 1.0
C      1  0.4448740000000  0.4826880000000  0.4425960000000 1.0
C      1  0.4398100000000  0.4515980000000  0.5143490000000 1.0
C      1  0.4887250000000  0.5769960000000  0.4398560000000 1.0
C      1  0.5244590000000  0.5116530000000  0.5866540000000 1.0
C      1  0.4310300000000  0.5310420000000  0.4651820000000 1.0
C      1  0.4800610000000  0.4979100000000  0.5952050000000 1.0
C      1  0.5684280000000  0.4569850000000  0.5584120000000 1.0
C      1  0.5719070000000  0.5337000000000  0.4747950000000 1.0
C      1  0.5426410000000  0.4131150000000  0.5535800000000 1.0
C      1  0.5245310000000  0.4131950000000  0.5034280000000 1.0
C      1  0.4548380000000  0.5734680000000  0.5548030000000 1.0
C      1  0.4490970000000  0.5633100000000  0.5122860000000 1.0
C      1  0.5335280000000  0.5587670000000  0.5687460000000 1.0
C      1  0.4681240000000  0.5473630000000  0.5609440000000 1.0
C      1  0.5134630000000  0.4657900000000  0.5474960000000 1.0
C      1  0.4896160000000  0.5466300000000  0.5918740000000 1.0
C      1  0.4897970000000  0.5131480000000  0.4443770000000 1.0
C      1  0.5766490000000  0.4351420000000  0.4962930000000 1.0
C      1  0.5558780000000  0.4937320000000  0.4104590000000 1.0
C      1  0.4098990000000  0.4593070000000  0.4631940000000 1.0
C      1  0.4566500000000  0.5211030000000  0.5478310000000 1.0
C      1  0.5081170000000  0.4795900000000  0.4099300000000 1.0
C      1  0.5401780000000  0.4697280000000  0.5265070000000 1.0
C      1  0.4896640000000  0.4523180000000  0.5313810000000 1.0
C      1  0.5669910000000  0.4543510000000  0.4540060000000 1.0
C      1  0.4708110000000  0.5251440000000  0.5983920000000 1.0
C      1  0.4981340000000  0.4063070000000  0.5145590000000 1.0
C      1  0.5208350000000  0.4489410000000  0.5717900000000 1.0
C      1  0.4999280000000  0.5500240000000  0.5307770000000 1.0
C      1  0.5036640000000  0.4937940000000  0.5577550000000 1.0
C      1  0.5370790000000  0.4700590000000  0.4152520000000 1.0
C      1  0.4757150000000  0.4972560000000  0.5431850000000 1.0
C      1  0.5195970000000  0.5773810000000  0.4376070000000 1.0
C      1  0.5612030000000  0.4313940000000  0.4719010000000 1.0
C      1  0.4575940000000  0.4803860000000  0.5897950000000 1.0
C      1  0.5508940000000  0.6003180000000  0.4771140000000 1.0
C      1  0.5233740000000  0.4336840000000  0.4484410000000 1.0
C      1  0.4402020000000  0.5039330000000  0.5035120000000 1.0
C      1  0.4967520000000  0.4837180000000  0.4472870000000 1.0
C      1  0.4066000000000  0.4658310000000  0.5464830000000 1.0
C      1  0.4577440000000  0.4905320000000  0.4161360000000 1.0
C      1  0.4736620000000  0.4239120000000  0.5837250000000 1.0
C      1  0.4734070000000  0.5194880000000  0.4675700000000 1.0
C      1  0.5493310000000  0.5141110000000  0.4811990000000 1.0
C      1  0.4140270000000  0.4654050000000  0.5187400000000 1.0
C      1  0.4443530000000  0.5259620000000  0.5842730000000 1.0
C      1  0.4715090000000  0.5177850000000  0.4191820000000 1.0
C      1  0.4130030000000  0.5356990000000  0.5327740000000 1.0
C      1  0.5442220000000  0.4172140000000  0.5249360000000 1.0
C      1  0.5880430000000  0.5139020000000  0.4552590000000 1.0
C      1  0.4756780000000  0.4022420000000  0.4956520000000 1.0
C      1  0.4898710000000  0.4217420000000  0.5399540000000 1.0
C      1  0.6003890000000  0.4908360000000  0.4624660000000 1.0
C      1  0.4758220000000  0.5648770000000  0.4155100000000 1.0
C      1  0.5077570000000  0.4907400000000  0.6004330000000 1.0
C      1  0.5953710000000  0.4574590000000  0.4938810000000 1.0
C      1  0.4271350000000  0.5686910000000  0.4690440000000 1.0
C      1  0.4357830000000  0.4225480000000  0.5214930000000 1.0
C      1  0.4399570000000  0.5268620000000  0.5233290000000 1.0
C      1  0.4431090000000  0.5816720000000  0.4901770000000 1.0
C      1  0.5634290000000  0.5104710000000  0.4358730000000 1.0
C      1  0.4784300000000  0.4496970000000  0.4802740000000 1.0
C      1  0.5804840000000  0.4736870000000  0.4736230000000 1.0
C      1  0.5258990000000  0.5080370000000  0.5429070000000 1.0
C      1  0.4997290000000  0.5757760000000  0.5466970000000 1.0
C      1  0.4711630000000  0.5858030000000  0.4807910000000 1.0
C      1  0.4350960000000  0.4974970000000  0.5774430000000 1.0
C      1  0.5761190000000  0.5447050000000  0.5023770000000 1.0
C      1  0.4661060000000  0.4107600000000  0.5580140000000 1.0
C      1  0.5945890000000  0.4704200000000  0.5205660000000 1.0
C      1  0.4630310000000  0.4516280000000  0.5821620000000 1.0
C      1  0.4979430000000  0.5859560000000  0.4946580000000 1.0
C      1  0.5273020000000  0.5259690000000  0.4974110000000 1.0
C      1  0.5635670000000  0.5402390000000  0.4295260000000 1.0
C      1  0.5391360000000  0.4588890000000  0.4431720000000 1.0
C      1  0.4494810000000  0.4369930000000  0.4391050000000 1.0
C      1  0.4701100000000  0.4732930000000  0.4618790000000 1.0
C      1  0.5638280000000  0.4838740000000  0.5609950000000 1.0
C      1  0.5150560000000  0.4638160000000  0.5960040000000 1.0
C      1  0.5119280000000  0.5052520000000  0.3956980000000 1.0
C      1  0.5227380000000  0.5684260000000  0.4859200000000 1.0
C      1  0.5392000000000  0.5773800000000  0.4620990000000 1.0
C      1  0.4089730000000  0.4860220000000  0.4734350000000 1.0
C      1  0.4749390000000  0.5922510000000  0.5447480000000 1.0
C      1  0.5462780000000  0.5513180000000  0.5407470000000 1.0
C      1  0.5271600000000  0.5903630000000  0.5501600000000 1.0
C      1  0.5528200000000  0.5634710000000  0.5107410000000 1.0
C      1  0.4969720000000  0.4610450000000  0.5016970000000 1.0
C      1  0.4648440000000  0.4963260000000  0.4832120000000 1.0
C      1  0.4508990000000  0.4027070000000  0.5086500000000 1.0
C      1  0.4506190000000  0.4156130000000  0.4571420000000 1.0
C      1  0.4783220000000  0.4689600000000  0.4107710000000 1.0
C      1  0.5133160000000  0.5418080000000  0.4772030000000 1.0
C      1  0.4738790000000  0.4212140000000  0.4727520000000 1.0
C      1  0.5244360000000  0.5336250000000  0.5274120000000 1.0
C      1  0.4847370000000  0.5419920000000  0.4813520000000 1.0
C      1  0.5587320000000  0.4873730000000  0.4911460000000 1.0
C      1  0.4128570000000  0.4916760000000  0.5041060000000 1.0
C      1  0.4262540000000  0.5031860000000  0.4565250000000 1.0
C      1  0.5008980000000  0.6024660000000  0.5182840000000 1.0
C      1  0.5402220000000  0.5151020000000  0.3957640000000 1.0
C      1  0.5603620000000  0.5551290000000  0.4557660000000 1.0
C      1  0.5671810000000  0.5309380000000  0.5475280000000 1.0
C      1  0.4013560000000  0.5092560000000  0.5341990000000 1.0
C      1  0.4752790000000  0.4450470000000  0.4278650000000 1.0
C      1  0.4734870000000  0.5639860000000  0.4626990000000 1.0
C      1  0.5317230000000  0.6056590000000  0.5246930000000 1.0
C      1  0.4610980000000  0.4650550000000  0.5356510000000 1.0
C      1  0.4882840000000  0.5089170000000  0.5196230000000 1.0
C      1  0.5173110000000  0.5404720000000  0.5861780000000 1.0
C      1  0.5577830000000  0.4419790000000  0.5185760000000 1.0
C      1  0.4879480000000  0.4896510000000  0.4992960000000 1.0
C      1  0.4980750000000  0.5510780000000  0.4021310000000 1.0
C      1  0.4463890000000  0.4512320000000  0.5585210000000 1.0
C      1  0.4979840000000  0.4309100000000  0.4365580000000 1.0
C      1  0.5717390000000  0.4911050000000  0.5188750000000 1.0
C      1  0.4464830000000  0.5532340000000  0.4511060000000 1.0
C      1  0.5486570000000  0.4380030000000  0.5687630000000 1.0
C      1  0.5161460000000  0.5288710000000  0.4477960000000 1.0
C      1  0.5524770000000  0.5937700000000  0.5054720000000 1.0
C      1  0.5795430000000  0.5220650000000  0.5226740000000 1.0
C      1  0.5289180000000  0.4638710000000  0.4953850000000 1.0
C      1  0.4795850000000  0.5393420000000  0.5120320000000 1.0
C      1  0.5887600000000  0.4493420000000  0.5399840000000 1.0
C      1  0.5443570000000  0.5428620000000  0.4082130000000 1.0
C      1  0.4407550000000  0.4231220000000  0.5505820000000 1.0
C      1  0.4550770000000  0.5441590000000  0.4228020000000 1.0
C      1  0.5323750000000  0.4245650000000  0.4758750000000 1.0
END
