TITL C-3577086-586-583 5.13530412879127e-07 125000 -156.531232731795 0 0 28 (C2h) n - 1
REM
REM in /home/bkarasulu/work/CARBON/AIRSS/Generating-Clusters/EDIP-Nigel-Params/with-SteepDescent/Higher-Symm/SD-CG/HFTN-CG
REM
REM
REM
REM
REM
REM ./C.cell (12c818d87b63d06a65506943cc24bca4)
REM
REM compiler GCC version 9.2.1 20190827 (Red Hat 9.2.1-1)
REM options -cpp -mtune=generic -march=x86-64 -g -O0 -fpre-include=/usr/include/finclude/math-vector-fortran.h
REM seed 1116841531 -1814460797 2062545850 1287441027 842127284 -361322362 1621294160 1260796544 -1942912063 -1688046272 2024227932 -281097137 82633209 -1616163378 336353581 1099154300 -169460813 1623107074 -1770190002 1964371107 -403870730 -741950030 -1572654337 353576574 1618516168 773491110 472428687 1453202288 -420107597 -90395720 1208045513 -1690311340 -1679849900
REM
CELL 1.54180   50.00000   50.00000   50.00000   90.00000   90.00000   90.00000
LATT -1
SFAC C  
C      1  0.5321940000000  0.4678420000000  0.4599720000000 1.0
C      1  0.4610500000000  0.4717560000000  0.5284970000000 1.0
C      1  0.5389500000000  0.5282440000000  0.4715030000000 1.0
C      1  0.4678060000000  0.5321580000000  0.5400280000000 1.0
C      1  0.5300240000000  0.4691060000000  0.5295560000000 1.0
C      1  0.4715440000000  0.4618790000000  0.4706060000000 1.0
C      1  0.5284560000000  0.5381210000000  0.5293940000000 1.0
C      1  0.4699760000000  0.5308940000000  0.4704440000000 1.0
C      1  0.4505570000000  0.5498200000000  0.5294590000000 1.0
C      1  0.5564240000000  0.5473880000000  0.4776520000000 1.0
C      1  0.4435760000000  0.4526120000000  0.5223480000000 1.0
C      1  0.5494430000000  0.4501800000000  0.4705410000000 1.0
C      1  0.4527140000000  0.5482860000000  0.4808360000000 1.0
C      1  0.5479490000000  0.5553730000000  0.5237360000000 1.0
C      1  0.4520510000000  0.4446270000000  0.4762640000000 1.0
C      1  0.5472860000000  0.4517140000000  0.5191640000000 1.0
C      1  0.4808200000000  0.5192250000000  0.5189750000000 1.0
C      1  0.5183630000000  0.5131900000000  0.4845630000000 1.0
C      1  0.4816370000000  0.4868100000000  0.5154370000000 1.0
C      1  0.5191800000000  0.4807750000000  0.4810250000000 1.0
C      1  0.4893440000000  0.5112320000000  0.4697470000000 1.0
C      1  0.5132630000000  0.5179480000000  0.5158580000000 1.0
C      1  0.4867370000000  0.4820520000000  0.4841420000000 1.0
C      1  0.5106560000000  0.4887680000000  0.5302530000000 1.0
C      1  0.5560550000000  0.4431270000000  0.4954850000000 1.0
C      1  0.4439450000000  0.5568730000000  0.5045150000000 1.0
C      1  0.4391060000000  0.4400460000000  0.4991900000000 1.0
C      1  0.5608940000000  0.5599540000000  0.5008100000000 1.0
END
