TITL C-3577089-586-514 -5.08405224222376e-07 125000 -388.839526800387 0 0 64 (C1) n - 1
REM
REM in /home/bkarasulu/work/CARBON/AIRSS/Generating-Clusters/EDIP-Nigel-Params/with-SteepDescent/Higher-Symm/SD-CG/HFTN-CG
REM
REM
REM
REM
REM
REM ./C.cell (12c818d87b63d06a65506943cc24bca4)
REM
REM compiler GCC version 9.2.1 20190827 (Red Hat 9.2.1-1)
REM options -cpp -mtune=generic -march=x86-64 -g -O0 -fpre-include=/usr/include/finclude/math-vector-fortran.h
REM seed 441896509 -46875590 -616166679 -2026506700 442883373 1262843633 -1662165713 -1536419249 -2047854895 -1842855778 -1253151216 361392575 -65169948 1911966778 1596053527 -1302021345 -1410510012 1276867936 250198515 879453094 -1971333900 1649815931 1312107561 -1307535365 -40809754 545734893 844810475 1709090547 -272133416 -114079332 93525342 475841299 -1733327396
REM
CELL 1.54180   50.00000   50.00000   50.00000   90.00000   90.00000   90.00000
LATT -1
SFAC C  
C      1  0.4371050000000  0.5061670000000  0.5367300000000 1.0
C      1  0.4328260000000  0.5065550000000  0.4875400000000 1.0
C      1  0.4541860000000  0.5093590000000  0.4418440000000 1.0
C      1  0.5015880000000  0.5031200000000  0.4255890000000 1.0
C      1  0.5481050000000  0.5061080000000  0.4429210000000 1.0
C      1  0.5737930000000  0.5056570000000  0.4874160000000 1.0
C      1  0.5640460000000  0.5055100000000  0.5367640000000 1.0
C      1  0.5245170000000  0.5059410000000  0.5690390000000 1.0
C      1  0.4751920000000  0.5018990000000  0.5695140000000 1.0
C      1  0.5381100000000  0.4793060000000  0.5062940000000 1.0
C      1  0.5237190000000  0.4890990000000  0.5282620000000 1.0
C      1  0.5000730000000  0.4769580000000  0.5371100000000 1.0
C      1  0.4754540000000  0.4859170000000  0.5268030000000 1.0
C      1  0.4601660000000  0.4718940000000  0.5074210000000 1.0
C      1  0.4686980000000  0.4688600000000  0.4803800000000 1.0
C      1  0.4857160000000  0.4878400000000  0.4674260000000 1.0
C      1  0.5133180000000  0.4791020000000  0.4646900000000 1.0
C      1  0.5326630000000  0.4903590000000  0.4811530000000 1.0
C      1  0.4750030000000  0.5595930000000  0.4679430000000 1.0
C      1  0.5008200000000  0.5681520000000  0.4755950000000 1.0
C      1  0.5268240000000  0.5572650000000  0.4734270000000 1.0
C      1  0.5457830000000  0.5651270000000  0.4940960000000 1.0
C      1  0.5406550000000  0.5642630000000  0.5226120000000 1.0
C      1  0.5152230000000  0.5561070000000  0.5345570000000 1.0
C      1  0.4917990000000  0.5662060000000  0.5225290000000 1.0
C      1  0.4648710000000  0.5583850000000  0.5192080000000 1.0
C      1  0.4554410000000  0.5538660000000  0.4905180000000 1.0
C      1  0.5261320000000  0.4577420000000  0.4280250000000 1.0
C      1  0.5651640000000  0.4599410000000  0.4626650000000 1.0
C      1  0.5767650000000  0.4588390000000  0.5136390000000 1.0
C      1  0.5479420000000  0.4595770000000  0.5573460000000 1.0
C      1  0.4990900000000  0.4564240000000  0.5763450000000 1.0
C      1  0.4498480000000  0.4587080000000  0.5561020000000 1.0
C      1  0.4179760000000  0.4602550000000  0.5123590000000 1.0
C      1  0.4302620000000  0.4624790000000  0.4598220000000 1.0
C      1  0.4735020000000  0.4604960000000  0.4300810000000 1.0
C      1  0.5668770000000  0.4875410000000  0.5117080000000 1.0
C      1  0.5430770000000  0.4894270000000  0.5514840000000 1.0
C      1  0.5001980000000  0.4854690000000  0.5666810000000 1.0
C      1  0.4570180000000  0.4877690000000  0.5503460000000 1.0
C      1  0.4329320000000  0.4881840000000  0.5113290000000 1.0
C      1  0.4413270000000  0.4910870000000  0.4638400000000 1.0
C      1  0.4773680000000  0.4895250000000  0.4375890000000 1.0
C      1  0.5237420000000  0.4866550000000  0.4371430000000 1.0
C      1  0.5589740000000  0.4898610000000  0.4662090000000 1.0
C      1  0.5638610000000  0.4481520000000  0.5367140000000 1.0
C      1  0.5246980000000  0.4467540000000  0.5678660000000 1.0
C      1  0.4736950000000  0.4465450000000  0.5667870000000 1.0
C      1  0.4333050000000  0.4490910000000  0.5344560000000 1.0
C      1  0.4216810000000  0.4517720000000  0.4850670000000 1.0
C      1  0.4509730000000  0.4502770000000  0.4442490000000 1.0
C      1  0.4991240000000  0.4479800000000  0.4281840000000 1.0
C      1  0.5469940000000  0.4474670000000  0.4446120000000 1.0
C      1  0.5727530000000  0.4482330000000  0.4874640000000 1.0
C      1  0.4780070000000  0.5318730000000  0.4550430000000 1.0
C      1  0.5045050000000  0.5287820000000  0.4405650000000 1.0
C      1  0.5300880000000  0.5288410000000  0.4593560000000 1.0
C      1  0.5523240000000  0.5275110000000  0.4925910000000 1.0
C      1  0.5454300000000  0.5266220000000  0.5236390000000 1.0
C      1  0.5125180000000  0.5275550000000  0.5469460000000 1.0
C      1  0.4820340000000  0.5266120000000  0.5542800000000 1.0
C      1  0.4596730000000  0.5305750000000  0.5334890000000 1.0
C      1  0.4575170000000  0.5230500000000  0.4954910000000 1.0
C      1  0.4820300000000  0.5151100000000  0.4795460000000 1.0
END
