TITL C-3578205-846-580 -5.82716845511179e-07 125000 -323.24101124663 0 0 50 (D3) n - 1
REM
REM in /home/bkarasulu/work/CARBON/AIRSS/Generating-Clusters/EDIP-Nigel-Params/with-SteepDescent/Higher-Symm/SD-CG/HFTN-CG
REM
REM
REM
REM
REM
REM ./C.cell (12c818d87b63d06a65506943cc24bca4)
REM
REM compiler GCC version 9.2.1 20190827 (Red Hat 9.2.1-1)
REM options -cpp -mtune=generic -march=x86-64 -g -O0 -fpre-include=/usr/include/finclude/math-vector-fortran.h
REM seed -1350135390 502526824 -2145384927 -2016806658 -1497529595 -2018750502 -1529386916 -917661340 -534197256 -891268277 -952330213 1144812124 -1914166380 -1561493879 917455369 392463673 717112100 -1916638549 139901690 -328029731 -1038040177 -372297268 2128847963 107089436 -935222356 2108572973 -573366054 -1227649311 951902832 -1397399375 -995958471 -463292000 1357105302
REM
CELL 1.54180   50.00000   50.00000   50.00000   90.00000   90.00000   90.00000
LATT -1
SFAC C  
C      1  0.4715160000000  0.5541090000000  0.5112850000000 1.0
C      1  0.4674370000000  0.4481220000000  0.5097760000000 1.0
C      1  0.5612670000000  0.4975680000000  0.5116070000000 1.0
C      1  0.5277450000000  0.5549190000000  0.4938630000000 1.0
C      1  0.5339790000000  0.4490350000000  0.4924810000000 1.0
C      1  0.4391620000000  0.4965940000000  0.4919740000000 1.0
C      1  0.5618810000000  0.5276600000000  0.5161530000000 1.0
C      1  0.4450220000000  0.5395580000000  0.5148840000000 1.0
C      1  0.4931650000000  0.4324110000000  0.5139980000000 1.0
C      1  0.4379350000000  0.5267800000000  0.4882510000000 1.0
C      1  0.5545280000000  0.5410140000000  0.4898760000000 1.0
C      1  0.5085750000000  0.4329250000000  0.4878240000000 1.0
C      1  0.5361860000000  0.5214190000000  0.4456970000000 1.0
C      1  0.4654020000000  0.5211290000000  0.4448260000000 1.0
C      1  0.5010550000000  0.4599750000000  0.4444200000000 1.0
C      1  0.4637710000000  0.5191420000000  0.5585170000000 1.0
C      1  0.5345460000000  0.5202690000000  0.5594000000000 1.0
C      1  0.5001450000000  0.4584140000000  0.5581260000000 1.0
C      1  0.4612210000000  0.4916670000000  0.4462600000000 1.0
C      1  0.5286040000000  0.4710620000000  0.4468020000000 1.0
C      1  0.5127480000000  0.5397160000000  0.4475540000000 1.0
C      1  0.5393250000000  0.4909480000000  0.5571630000000 1.0
C      1  0.4723750000000  0.4689990000000  0.5560400000000 1.0
C      1  0.4868310000000  0.5379560000000  0.5571670000000 1.0
C      1  0.5447750000000  0.4813410000000  0.5298200000000 1.0
C      1  0.4932530000000  0.5477510000000  0.5301030000000 1.0
C      1  0.4615070000000  0.4699370000000  0.5286420000000 1.0
C      1  0.4559760000000  0.4812090000000  0.4733300000000 1.0
C      1  0.5061360000000  0.5486360000000  0.4748730000000 1.0
C      1  0.5394590000000  0.4714730000000  0.4742190000000 1.0
C      1  0.4783430000000  0.5541060000000  0.4822480000000 1.0
C      1  0.4649080000000  0.4543280000000  0.4807090000000 1.0
C      1  0.5580390000000  0.4925680000000  0.4823770000000 1.0
C      1  0.5209270000000  0.5539840000000  0.5228880000000 1.0
C      1  0.5363890000000  0.4544960000000  0.5217070000000 1.0
C      1  0.4424990000000  0.4908650000000  0.5210570000000 1.0
C      1  0.4577080000000  0.5377990000000  0.4684500000000 1.0
C      1  0.4897550000000  0.4447430000000  0.4675620000000 1.0
C      1  0.5543170000000  0.5190100000000  0.4693760000000 1.0
C      1  0.5418930000000  0.5377300000000  0.5362410000000 1.0
C      1  0.5117460000000  0.4440520000000  0.5345810000000 1.0
C      1  0.4456860000000  0.5170130000000  0.5347760000000 1.0
C      1  0.4831230000000  0.4789760000000  0.4294740000000 1.0
C      1  0.5291530000000  0.4965420000000  0.4302800000000 1.0
C      1  0.4909180000000  0.5276240000000  0.4302390000000 1.0
C      1  0.5176910000000  0.4773600000000  0.5735910000000 1.0
C      1  0.4713130000000  0.4940020000000  0.5732520000000 1.0
C      1  0.5089080000000  0.5258430000000  0.5741510000000 1.0
C      1  0.4991650000000  0.4989120000000  0.5850110000000 1.0
C      1  0.5012040000000  0.5012040000000  0.4186510000000 1.0
END
