TITL C-3577082-504-145 8.15458205691702e-07 125000 -1185.61704132603 0 0 188 (C1) n - 1
REM
REM in /home/bkarasulu/work/CARBON/AIRSS/Generating-Clusters/EDIP-Nigel-Params/with-SteepDescent/Higher-Symm/SD-CG/HFTN-CG
REM
REM
REM
REM
REM
REM ./C.cell (12c818d87b63d06a65506943cc24bca4)
REM
REM compiler GCC version 9.2.1 20190827 (Red Hat 9.2.1-1)
REM options -cpp -mtune=generic -march=x86-64 -g -O0 -fpre-include=/usr/include/finclude/math-vector-fortran.h
REM seed 1982510824 1843022342 735378384 -1657723774 -1781687145 732887218 -31917923 525189971 847730135 -490283910 452264307 1040166732 638154042 -450421401 319291158 -781949889 1626637812 1441701490 530512596 1694175046 611867355 -73734369 -144503645 1911783947 -2059219242 -1647455121 1666530852 1432208901 -1272131675 1169624397 -1301368946 -260109171 495118508
REM
CELL 1.54180   50.00000   50.00000   50.00000   90.00000   90.00000   90.00000
LATT -1
SFAC C  
C      1  0.5486450000000  0.5876870000000  0.4369480000000 1.0
C      1  0.5411890000000  0.4040630000000  0.5679140000000 1.0
C      1  0.4486010000000  0.4202050000000  0.4310350000000 1.0
C      1  0.4515400000000  0.6006810000000  0.5752840000000 1.0
C      1  0.5460220000000  0.4303760000000  0.5792040000000 1.0
C      1  0.5503520000000  0.5616780000000  0.4252230000000 1.0
C      1  0.4436110000000  0.4293880000000  0.4046680000000 1.0
C      1  0.4492790000000  0.5739630000000  0.5831660000000 1.0
C      1  0.5650840000000  0.4953210000000  0.5904090000000 1.0
C      1  0.5500580000000  0.5005280000000  0.4170690000000 1.0
C      1  0.4444640000000  0.5064140000000  0.5842290000000 1.0
C      1  0.4256910000000  0.4888040000000  0.4092000000000 1.0
C      1  0.5539620000000  0.5842400000000  0.5003930000000 1.0
C      1  0.5737230000000  0.4249170000000  0.5158760000000 1.0
C      1  0.4340490000000  0.5925870000000  0.4925140000000 1.0
C      1  0.4406170000000  0.4117420000000  0.4947990000000 1.0
C      1  0.4299220000000  0.4226660000000  0.5426090000000 1.0
C      1  0.4396560000000  0.5606250000000  0.4524410000000 1.0
C      1  0.5602280000000  0.5712260000000  0.5524180000000 1.0
C      1  0.5696700000000  0.4230140000000  0.4659010000000 1.0
C      1  0.4256170000000  0.5322690000000  0.4178330000000 1.0
C      1  0.4420310000000  0.4583800000000  0.5667800000000 1.0
C      1  0.5705050000000  0.5391240000000  0.5853230000000 1.0
C      1  0.5617450000000  0.4463560000000  0.4260910000000 1.0
C      1  0.4607120000000  0.4417290000000  0.4476220000000 1.0
C      1  0.4647260000000  0.5703160000000  0.5335360000000 1.0
C      1  0.5400970000000  0.5539170000000  0.4708040000000 1.0
C      1  0.5512730000000  0.4393450000000  0.5297070000000 1.0
C      1  0.4654680000000  0.4693530000000  0.4374190000000 1.0
C      1  0.4542020000000  0.5571180000000  0.5580710000000 1.0
C      1  0.5555870000000  0.4517080000000  0.5579140000000 1.0
C      1  0.5420740000000  0.5397900000000  0.4452320000000 1.0
C      1  0.5907260000000  0.5371850000000  0.5646280000000 1.0
C      1  0.5857810000000  0.4573790000000  0.4389060000000 1.0
C      1  0.4183980000000  0.4654440000000  0.5516450000000 1.0
C      1  0.4059200000000  0.5304150000000  0.4388400000000 1.0
C      1  0.5829110000000  0.5558080000000  0.5435300000000 1.0
C      1  0.5886430000000  0.4441610000000  0.4646870000000 1.0
C      1  0.4145940000000  0.5485540000000  0.4600170000000 1.0
C      1  0.4168110000000  0.4452430000000  0.5310060000000 1.0
C      1  0.4835730000000  0.3972590000000  0.4083680000000 1.0
C      1  0.4994830000000  0.5972130000000  0.5759860000000 1.0
C      1  0.5100930000000  0.6056860000000  0.4211690000000 1.0
C      1  0.4915970000000  0.4000460000000  0.5761180000000 1.0
C      1  0.4882700000000  0.4224410000000  0.3929940000000 1.0
C      1  0.4972780000000  0.5697850000000  0.5872840000000 1.0
C      1  0.4979450000000  0.4180030000000  0.5995060000000 1.0
C      1  0.5129690000000  0.5763100000000  0.3980230000000 1.0
C      1  0.6067170000000  0.4457780000000  0.4858380000000 1.0
C      1  0.5936030000000  0.5610790000000  0.5183110000000 1.0
C      1  0.4008350000000  0.5587760000000  0.4820120000000 1.0
C      1  0.4003900000000  0.4396880000000  0.5090570000000 1.0
C      1  0.5923130000000  0.4839150000000  0.4331530000000 1.0
C      1  0.6031250000000  0.5117170000000  0.5628460000000 1.0
C      1  0.4132350000000  0.4933770000000  0.5471750000000 1.0
C      1  0.3907430000000  0.5067460000000  0.4395580000000 1.0
C      1  0.4299070000000  0.5134900000000  0.5594030000000 1.0
C      1  0.4092990000000  0.4863470000000  0.4334840000000 1.0
C      1  0.5795620000000  0.4943660000000  0.5639210000000 1.0
C      1  0.5779210000000  0.5077090000000  0.4303330000000 1.0
C      1  0.4172410000000  0.5687660000000  0.5026200000000 1.0
C      1  0.4187210000000  0.4314910000000  0.4889030000000 1.0
C      1  0.5792710000000  0.5659000000000  0.4946970000000 1.0
C      1  0.5967550000000  0.4429880000000  0.5121580000000 1.0
C      1  0.5131130000000  0.4687100000000  0.5150890000000 1.0
C      1  0.5215380000000  0.5159890000000  0.4955660000000 1.0
C      1  0.4732600000000  0.5222070000000  0.5047370000000 1.0
C      1  0.4927030000000  0.4664090000000  0.4927360000000 1.0
C      1  0.5087860000000  0.5085970000000  0.4706520000000 1.0
C      1  0.5150240000000  0.4999750000000  0.5196490000000 1.0
C      1  0.4889540000000  0.5119470000000  0.5284400000000 1.0
C      1  0.4852360000000  0.4932070000000  0.4804090000000 1.0
C      1  0.5197650000000  0.5325850000000  0.6089870000000 1.0
C      1  0.5229980000000  0.4573210000000  0.3935720000000 1.0
C      1  0.4725450000000  0.4623900000000  0.6050900000000 1.0
C      1  0.4697210000000  0.5546360000000  0.4085370000000 1.0
C      1  0.5312490000000  0.6124580000000  0.5420460000000 1.0
C      1  0.5273320000000  0.4068900000000  0.4434090000000 1.0
C      1  0.4701700000000  0.6014520000000  0.4494090000000 1.0
C      1  0.4630380000000  0.3903740000000  0.5375480000000 1.0
C      1  0.5068210000000  0.5566750000000  0.5313780000000 1.0
C      1  0.5059110000000  0.4500780000000  0.4718990000000 1.0
C      1  0.5053530000000  0.4442760000000  0.5345040000000 1.0
C      1  0.4929820000000  0.5551780000000  0.4712770000000 1.0
C      1  0.4985170000000  0.5339920000000  0.5474560000000 1.0
C      1  0.5126960000000  0.4694250000000  0.4514640000000 1.0
C      1  0.4950220000000  0.5301990000000  0.4547980000000 1.0
C      1  0.5035290000000  0.4582330000000  0.5617610000000 1.0
C      1  0.4850440000000  0.4303700000000  0.4594030000000 1.0
C      1  0.4918830000000  0.5812280000000  0.5363200000000 1.0
C      1  0.5171340000000  0.5713290000000  0.4673970000000 1.0
C      1  0.5292510000000  0.4210950000000  0.5357890000000 1.0
C      1  0.4952060000000  0.4681220000000  0.4289670000000 1.0
C      1  0.4777210000000  0.5417120000000  0.5680590000000 1.0
C      1  0.5320710000000  0.4699950000000  0.5654980000000 1.0
C      1  0.5142070000000  0.5367080000000  0.4330510000000 1.0
C      1  0.4737000000000  0.5081390000000  0.4119230000000 1.0
C      1  0.4908030000000  0.4997400000000  0.5880410000000 1.0
C      1  0.4995710000000  0.4929150000000  0.4110570000000 1.0
C      1  0.5186200000000  0.5118740000000  0.5865600000000 1.0
C      1  0.4888660000000  0.4087740000000  0.5039400000000 1.0
C      1  0.4781690000000  0.5975710000000  0.4929920000000 1.0
C      1  0.5176190000000  0.4083270000000  0.4922460000000 1.0
C      1  0.5031930000000  0.5946970000000  0.5086940000000 1.0
C      1  0.5624220000000  0.5047460000000  0.5306420000000 1.0
C      1  0.5662850000000  0.5002050000000  0.4829950000000 1.0
C      1  0.4450340000000  0.4890030000000  0.5262090000000 1.0
C      1  0.4408730000000  0.4920240000000  0.4799860000000 1.0
C      1  0.5670140000000  0.5243100000000  0.5018820000000 1.0
C      1  0.5639520000000  0.4811000000000  0.5077010000000 1.0
C      1  0.4448980000000  0.5100240000000  0.5041670000000 1.0
C      1  0.4421840000000  0.4663180000000  0.5017720000000 1.0
C      1  0.5470360000000  0.4679140000000  0.4094860000000 1.0
C      1  0.5693860000000  0.5188400000000  0.6045540000000 1.0
C      1  0.4236800000000  0.5137190000000  0.3968940000000 1.0
C      1  0.4498650000000  0.4758450000000  0.5890170000000 1.0
C      1  0.5629770000000  0.4136080000000  0.4915010000000 1.0
C      1  0.5502320000000  0.5909830000000  0.5316860000000 1.0
C      1  0.4397350000000  0.4024920000000  0.5234820000000 1.0
C      1  0.4449660000000  0.5880660000000  0.4619960000000 1.0
C      1  0.4950830000000  0.5861660000000  0.4393700000000 1.0
C      1  0.4717340000000  0.4125600000000  0.5559070000000 1.0
C      1  0.5018550000000  0.4188510000000  0.4346910000000 1.0
C      1  0.5236810000000  0.6084400000000  0.5684380000000 1.0
C      1  0.4847110000000  0.4423830000000  0.5860010000000 1.0
C      1  0.4963320000000  0.5634640000000  0.4193470000000 1.0
C      1  0.5043930000000  0.4412720000000  0.4119350000000 1.0
C      1  0.5242870000000  0.5582660000000  0.5955260000000 1.0
C      1  0.4714860000000  0.5385070000000  0.6142750000000 1.0
C      1  0.4698760000000  0.4666020000000  0.3860940000000 1.0
C      1  0.5220190000000  0.4685570000000  0.6091000000000 1.0
C      1  0.5114280000000  0.5332450000000  0.3888030000000 1.0
C      1  0.4789930000000  0.6188540000000  0.5369910000000 1.0
C      1  0.4833220000000  0.3862110000000  0.4611990000000 1.0
C      1  0.5182870000000  0.6155430000000  0.4672200000000 1.0
C      1  0.5122490000000  0.3801920000000  0.5331820000000 1.0
C      1  0.5336680000000  0.5574950000000  0.5204420000000 1.0
C      1  0.5319820000000  0.4364880000000  0.4842930000000 1.0
C      1  0.4803190000000  0.4318080000000  0.5228640000000 1.0
C      1  0.4697510000000  0.5679350000000  0.4839120000000 1.0
C      1  0.5245180000000  0.5253440000000  0.5601500000000 1.0
C      1  0.5397690000000  0.4780620000000  0.4464060000000 1.0
C      1  0.4684120000000  0.5194970000000  0.4416670000000 1.0
C      1  0.4808750000000  0.4798850000000  0.5651960000000 1.0
C      1  0.5348320000000  0.5058840000000  0.5403570000000 1.0
C      1  0.5461190000000  0.5047000000000  0.4605100000000 1.0
C      1  0.4722920000000  0.4911990000000  0.5395060000000 1.0
C      1  0.4629430000000  0.4927460000000  0.4594720000000 1.0
C      1  0.5403450000000  0.5385160000000  0.4971220000000 1.0
C      1  0.5405980000000  0.4579810000000  0.5074290000000 1.0
C      1  0.4618920000000  0.5518890000000  0.5093080000000 1.0
C      1  0.4692250000000  0.4522280000000  0.5031060000000 1.0
C      1  0.4861500000000  0.6165930000000  0.4697830000000 1.0
C      1  0.4852060000000  0.3833540000000  0.5195390000000 1.0
C      1  0.5145170000000  0.3910760000000  0.4664370000000 1.0
C      1  0.5079950000000  0.6199320000000  0.5245320000000 1.0
C      1  0.4941060000000  0.4808980000000  0.6120240000000 1.0
C      1  0.4806880000000  0.5317860000000  0.3924990000000 1.0
C      1  0.5003910000000  0.4767620000000  0.3853550000000 1.0
C      1  0.4968240000000  0.5336540000000  0.6253900000000 1.0
C      1  0.4548560000000  0.6063880000000  0.5101430000000 1.0
C      1  0.4716200000000  0.4082370000000  0.4796640000000 1.0
C      1  0.5305150000000  0.3973180000000  0.5166870000000 1.0
C      1  0.5248550000000  0.5927970000000  0.4865920000000 1.0
C      1  0.4698220000000  0.5216120000000  0.5895300000000 1.0
C      1  0.4547220000000  0.4808950000000  0.4092130000000 1.0
C      1  0.5206050000000  0.5152410000000  0.4116930000000 1.0
C      1  0.5362160000000  0.4869290000000  0.5894470000000 1.0
C      1  0.4107290000000  0.4638900000000  0.4497540000000 1.0
C      1  0.4313170000000  0.5406220000000  0.5475570000000 1.0
C      1  0.5827930000000  0.5266660000000  0.4513850000000 1.0
C      1  0.5824950000000  0.4664600000000  0.5548830000000 1.0
C      1  0.4248000000000  0.4524370000000  0.4706250000000 1.0
C      1  0.4321210000000  0.5451530000000  0.5163150000000 1.0
C      1  0.5928010000000  0.4668060000000  0.5277110000000 1.0
C      1  0.5833990000000  0.5450200000000  0.4735470000000 1.0
C      1  0.5316800000000  0.6104510000000  0.4397570000000 1.0
C      1  0.5159460000000  0.3891790000000  0.5629400000000 1.0
C      1  0.4660460000000  0.3947620000000  0.4318370000000 1.0
C      1  0.4759840000000  0.6101610000000  0.5652930000000 1.0
C      1  0.5222870000000  0.4395450000000  0.5970170000000 1.0
C      1  0.5361180000000  0.5593660000000  0.3992150000000 1.0
C      1  0.4638740000000  0.4372760000000  0.3865930000000 1.0
C      1  0.4710010000000  0.5667610000000  0.6038110000000 1.0
C      1  0.4480540000000  0.4293070000000  0.5653230000000 1.0
C      1  0.4506620000000  0.5438070000000  0.4297530000000 1.0
C      1  0.5497850000000  0.4265130000000  0.4456050000000 1.0
C      1  0.5468580000000  0.5539840000000  0.5746070000000 1.0
END
