TITL C-3577089-586-471 -3.33764957012911e-07 125000 -336.349850230123 0 0 54 (C2h) n - 1
REM
REM in /home/bkarasulu/work/CARBON/AIRSS/Generating-Clusters/EDIP-Nigel-Params/with-SteepDescent/Higher-Symm/SD-CG/HFTN-CG
REM
REM
REM
REM
REM
REM ./C.cell (12c818d87b63d06a65506943cc24bca4)
REM
REM compiler GCC version 9.2.1 20190827 (Red Hat 9.2.1-1)
REM options -cpp -mtune=generic -march=x86-64 -g -O0 -fpre-include=/usr/include/finclude/math-vector-fortran.h
REM seed -451387505 2066659808 566867695 944964124 -1529969620 -1900931447 -1432588689 1094972808 1456853772 337990277 -920676491 1869525191 -1191415693 -389424255 -1665535107 269838607 -2075637825 889403185 -1758697753 771880132 -2143149939 1592281554 -287683548 -1744519164 1044162829 1451770942 1644255573 -1760193892 599874586 782299941 -556870101 -553024430 -1898626038
REM
CELL 1.54180   50.00000   50.00000   50.00000   90.00000   90.00000   90.00000
LATT -1
SFAC C  
C      1  0.4394540000000  0.5261060000000  0.4754920000000 1.0
C      1  0.4811170000000  0.4461560000000  0.5195330000000 1.0
C      1  0.5248590000000  0.4750470000000  0.4400860000000 1.0
C      1  0.4407680000000  0.4753120000000  0.5242990000000 1.0
C      1  0.5538850000000  0.4798210000000  0.4808090000000 1.0
C      1  0.5540300000000  0.5206420000000  0.5192460000000 1.0
C      1  0.4739000000000  0.5648480000000  0.4730090000000 1.0
C      1  0.5267320000000  0.5624060000000  0.5257710000000 1.0
C      1  0.5200610000000  0.4460330000000  0.4805330000000 1.0
C      1  0.5201140000000  0.5207490000000  0.5532110000000 1.0
C      1  0.4762110000000  0.5259900000000  0.4386820000000 1.0
C      1  0.4815490000000  0.4800500000000  0.5532500000000 1.0
C      1  0.5605390000000  0.5254830000000  0.4755540000000 1.0
C      1  0.5274070000000  0.4359480000000  0.5268450000000 1.0
C      1  0.4811930000000  0.4800470000000  0.4466430000000 1.0
C      1  0.5618530000000  0.4746900000000  0.5243610000000 1.0
C      1  0.4472770000000  0.4801540000000  0.4806080000000 1.0
C      1  0.4474230000000  0.5209740000000  0.5190450000000 1.0
C      1  0.5201900000000  0.5546400000000  0.4803200000000 1.0
C      1  0.4812470000000  0.5547630000000  0.5193210000000 1.0
C      1  0.4745760000000  0.4383900000000  0.4740820000000 1.0
C      1  0.4764480000000  0.5257490000000  0.5597680000000 1.0
C      1  0.5197580000000  0.5207460000000  0.4466030000000 1.0
C      1  0.5250970000000  0.4748060000000  0.5611720000000 1.0
C      1  0.4528030000000  0.4510690000000  0.5138880000000 1.0
C      1  0.5143890000000  0.4508750000000  0.4522120000000 1.0
C      1  0.4507880000000  0.5159760000000  0.4500840000000 1.0
C      1  0.4494440000000  0.5527880000000  0.4839310000000 1.0
C      1  0.5501980000000  0.5493050000000  0.5143490000000 1.0
C      1  0.5473180000000  0.4525960000000  0.4878610000000 1.0
C      1  0.5153030000000  0.5494150000000  0.5492960000000 1.0
C      1  0.4847480000000  0.5526770000000  0.4485750000000 1.0
C      1  0.4885060000000  0.4527810000000  0.5467600000000 1.0
C      1  0.4535520000000  0.4863620000000  0.5479050000000 1.0
C      1  0.5485180000000  0.4860620000000  0.4528000000000 1.0
C      1  0.5471240000000  0.5132840000000  0.5462890000000 1.0
C      1  0.5518640000000  0.4480070000000  0.5159220000000 1.0
C      1  0.4860050000000  0.4513810000000  0.4505580000000 1.0
C      1  0.5477550000000  0.5144340000000  0.4519490000000 1.0
C      1  0.5485040000000  0.5497260000000  0.4859660000000 1.0
C      1  0.4539890000000  0.5482000000000  0.5119930000000 1.0
C      1  0.4511090000000  0.4514910000000  0.4855040000000 1.0
C      1  0.4869180000000  0.5499210000000  0.5476420000000 1.0
C      1  0.5128020000000  0.5480140000000  0.4530940000000 1.0
C      1  0.5165590000000  0.4481190000000  0.5512780000000 1.0
C      1  0.5505200000000  0.4848200000000  0.5497690000000 1.0
C      1  0.4541830000000  0.4875110000000  0.4535650000000 1.0
C      1  0.4527890000000  0.5147330000000  0.5470530000000 1.0
C      1  0.5025930000000  0.4984370000000  0.5673400000000 1.0
C      1  0.5680630000000  0.4982300000000  0.5017740000000 1.0
C      1  0.5001260000000  0.5694440000000  0.4991820000000 1.0
C      1  0.4987140000000  0.5023590000000  0.4325130000000 1.0
C      1  0.4332440000000  0.5025650000000  0.4980790000000 1.0
C      1  0.5011810000000  0.4313520000000  0.5006710000000 1.0
END
