TITL C-3578199-7832-115 4.8620878840892e-07 125000 -190.502442392756 0 0 34 (T23) n - 1
REM
REM in /home/bkarasulu/work/CARBON/AIRSS/Generating-Clusters/EDIP-Nigel-Params/with-SteepDescent/Higher-Symm/SD-CG/HFTN-CG
REM
REM
REM
REM
REM
REM ./C.cell (12c818d87b63d06a65506943cc24bca4)
REM
REM compiler GCC version 9.2.1 20190827 (Red Hat 9.2.1-1)
REM options -cpp -mtune=generic -march=x86-64 -g -O0 -fpre-include=/usr/include/finclude/math-vector-fortran.h
REM seed -1998985120 -228143878 -403045027 -1810166659 -117922118 1570763220 -472252418 173687736 10410525 -476301524 540622527 483558726 -1729590546 -525103995 240568813 1931378282 293141530 118345806 -402754133 -1630655841 -2121106931 -192419803 1092606835 -824446035 -306330817 -265264576 -1232000821 1444254235 539633854 1801242992 -574402524 1748779018 1541727475
REM
CELL 1.54180   50.00000   50.00000   50.00000   90.00000   90.00000   90.00000
LATT -1
SFAC C  
C      1  0.5672130000000  0.4940280000000  0.4851020000000 1.0
C      1  0.4948500000000  0.4850330000000  0.5664580000000 1.0
C      1  0.4858560000000  0.5663900000000  0.4940950000000 1.0
C      1  0.4308790000000  0.5024190000000  0.4851010000000 1.0
C      1  0.5672130000000  0.5024190000000  0.5114810000000 1.0
C      1  0.4308790000000  0.4940270000000  0.5114810000000 1.0
C      1  0.5032420000000  0.5114130000000  0.5664590000000 1.0
C      1  0.4948510000000  0.5114130000000  0.4301240000000 1.0
C      1  0.5032420000000  0.4850330000000  0.4301240000000 1.0
C      1  0.5122360000000  0.4300560000000  0.4940960000000 1.0
C      1  0.4858570000000  0.4300560000000  0.5024870000000 1.0
C      1  0.5122360000000  0.5663900000000  0.5024870000000 1.0
C      1  0.4710950000000  0.5421670000000  0.4934060000000 1.0
C      1  0.5429900000000  0.4933380000000  0.4703400000000 1.0
C      1  0.4941610000000  0.4702720000000  0.5422350000000 1.0
C      1  0.5269980000000  0.4542790000000  0.4934060000000 1.0
C      1  0.4710950000000  0.4542790000000  0.5031770000000 1.0
C      1  0.5269980000000  0.5421670000000  0.5031770000000 1.0
C      1  0.4551020000000  0.5031080000000  0.4703400000000 1.0
C      1  0.5429900000000  0.5031090000000  0.5262430000000 1.0
C      1  0.4551020000000  0.4933380000000  0.5262430000000 1.0
C      1  0.5039310000000  0.5261750000000  0.5422350000000 1.0
C      1  0.4941610000000  0.5261750000000  0.4543470000000 1.0
C      1  0.5039320000000  0.4702720000000  0.4543480000000 1.0
C      1  0.4990460000000  0.4679440000000  0.4982910000000 1.0
C      1  0.4990460000000  0.5285020000000  0.4982910000000 1.0
C      1  0.4990460000000  0.4982230000000  0.4680120000000 1.0
C      1  0.4687670000000  0.4982230000000  0.4982910000000 1.0
C      1  0.4990460000000  0.4982230000000  0.5285700000000 1.0
C      1  0.5293250000000  0.4982230000000  0.4982910000000 1.0
C      1  0.4676040000000  0.5296650000000  0.4668490000000 1.0
C      1  0.5304890000000  0.4667810000000  0.4668490000000 1.0
C      1  0.4676040000000  0.4667810000000  0.5297340000000 1.0
C      1  0.5304880000000  0.5296660000000  0.5297340000000 1.0
END
