TITL C-3577081-279-702 -3.11492405169959e-06 125000 -734.67552167077 0 0 118 (C1) n - 1
REM
REM in /home/bkarasulu/work/CARBON/AIRSS/Generating-Clusters/EDIP-Nigel-Params/with-SteepDescent/Higher-Symm/SD-CG/HFTN-CG
REM
REM
REM
REM
REM
REM ./C.cell (12c818d87b63d06a65506943cc24bca4)
REM
REM compiler GCC version 9.2.1 20190827 (Red Hat 9.2.1-1)
REM options -cpp -mtune=generic -march=x86-64 -g -O0 -fpre-include=/usr/include/finclude/math-vector-fortran.h
REM seed -1512687203 -2036970629 -545398984 -1664671272 -1819440619 -1651639966 921615324 -2017777289 -1904839800 16488578 -1749319462 1525994902 -858294426 1480131887 223602685 1592631868 -260740479 1273477337 2059428202 -1622742573 -248895614 -514298217 -453847847 996478885 -1942427549 -2002696568 -2097141715 -1365466270 510725330 323474467 449771379 -1141753531 -68199027
REM
CELL 1.54180   50.00000   50.00000   50.00000   90.00000   90.00000   90.00000
LATT -1
SFAC C  
C      1  0.4221130000000  0.4438190000000  0.5452660000000 1.0
C      1  0.5163580000000  0.4537310000000  0.4198940000000 1.0
C      1  0.5622010000000  0.5782790000000  0.5039670000000 1.0
C      1  0.4939980000000  0.4898280000000  0.5998280000000 1.0
C      1  0.5478970000000  0.5283720000000  0.4872420000000 1.0
C      1  0.4527800000000  0.4363930000000  0.4508070000000 1.0
C      1  0.5453110000000  0.5158610000000  0.5173750000000 1.0
C      1  0.4825000000000  0.4091700000000  0.4928720000000 1.0
C      1  0.5552170000000  0.4870030000000  0.5607490000000 1.0
C      1  0.5454490000000  0.4010890000000  0.4846430000000 1.0
C      1  0.4356260000000  0.5660950000000  0.5226300000000 1.0
C      1  0.5424350000000  0.5576090000000  0.4393060000000 1.0
C      1  0.5081210000000  0.4623490000000  0.5142690000000 1.0
C      1  0.4194630000000  0.4641440000000  0.4953160000000 1.0
C      1  0.5177260000000  0.5963410000000  0.5003490000000 1.0
C      1  0.5145120000000  0.5504130000000  0.5500510000000 1.0
C      1  0.5833350000000  0.4933640000000  0.4926620000000 1.0
C      1  0.4735860000000  0.4601760000000  0.5198460000000 1.0
C      1  0.4906940000000  0.5937250000000  0.4920120000000 1.0
C      1  0.4186830000000  0.4705760000000  0.5333340000000 1.0
C      1  0.5028550000000  0.5027230000000  0.5372950000000 1.0
C      1  0.5075410000000  0.4246680000000  0.4247990000000 1.0
C      1  0.5113380000000  0.4692530000000  0.3966010000000 1.0
C      1  0.4325210000000  0.4596440000000  0.4450530000000 1.0
C      1  0.5505600000000  0.4688860000000  0.4573320000000 1.0
C      1  0.5077630000000  0.5388450000000  0.5037150000000 1.0
C      1  0.5052970000000  0.4428230000000  0.5558380000000 1.0
C      1  0.4702770000000  0.4576150000000  0.4916410000000 1.0
C      1  0.5341710000000  0.4197160000000  0.4413330000000 1.0
C      1  0.5267940000000  0.5440090000000  0.5916050000000 1.0
C      1  0.5035770000000  0.5420480000000  0.4126350000000 1.0
C      1  0.5566450000000  0.5612730000000  0.5538400000000 1.0
C      1  0.4232930000000  0.4955750000000  0.5492440000000 1.0
C      1  0.5631340000000  0.4516310000000  0.5292840000000 1.0
C      1  0.4975390000000  0.5405790000000  0.5879560000000 1.0
C      1  0.4558320000000  0.4680240000000  0.5745740000000 1.0
C      1  0.5805240000000  0.5522970000000  0.4456650000000 1.0
C      1  0.4237380000000  0.5192660000000  0.5320450000000 1.0
C      1  0.4446030000000  0.5053750000000  0.4299380000000 1.0
C      1  0.4576930000000  0.4335690000000  0.4814110000000 1.0
C      1  0.4965780000000  0.5719130000000  0.5363680000000 1.0
C      1  0.4516930000000  0.5004570000000  0.4717410000000 1.0
C      1  0.5760720000000  0.5195200000000  0.4778800000000 1.0
C      1  0.4565070000000  0.4848280000000  0.5257070000000 1.0
C      1  0.5421170000000  0.4497350000000  0.4359580000000 1.0
C      1  0.4787980000000  0.4660920000000  0.5924720000000 1.0
C      1  0.5550260000000  0.5139370000000  0.5699400000000 1.0
C      1  0.4956060000000  0.5364940000000  0.4587850000000 1.0
C      1  0.4169540000000  0.4736140000000  0.4659020000000 1.0
C      1  0.5034430000000  0.5205090000000  0.4810670000000 1.0
C      1  0.4999160000000  0.4128590000000  0.5174050000000 1.0
C      1  0.4316770000000  0.4357050000000  0.4962180000000 1.0
C      1  0.5230090000000  0.4656150000000  0.5946160000000 1.0
C      1  0.5444270000000  0.5292780000000  0.4278630000000 1.0
C      1  0.4459250000000  0.4938590000000  0.5672600000000 1.0
C      1  0.4756720000000  0.4524660000000  0.4365130000000 1.0
C      1  0.5662830000000  0.5334970000000  0.5520220000000 1.0
C      1  0.4416900000000  0.4776580000000  0.4230390000000 1.0
C      1  0.4428130000000  0.4442710000000  0.5660730000000 1.0
C      1  0.5260140000000  0.4127970000000  0.4683150000000 1.0
C      1  0.4377160000000  0.4908160000000  0.5007180000000 1.0
C      1  0.5182360000000  0.5646790000000  0.4215640000000 1.0
C      1  0.5027870000000  0.5642100000000  0.4633540000000 1.0
C      1  0.5648220000000  0.4802930000000  0.5349950000000 1.0
C      1  0.4853450000000  0.4154980000000  0.4430350000000 1.0
C      1  0.4933160000000  0.4972640000000  0.4310060000000 1.0
C      1  0.4163570000000  0.5241410000000  0.4809860000000 1.0
C      1  0.4850920000000  0.5557490000000  0.5122720000000 1.0
C      1  0.5214020000000  0.5876580000000  0.5281580000000 1.0
C      1  0.4634480000000  0.4360040000000  0.5350460000000 1.0
C      1  0.4484990000000  0.5508380000000  0.4498500000000 1.0
C      1  0.4879320000000  0.5267820000000  0.4320760000000 1.0
C      1  0.5384270000000  0.4670640000000  0.5709600000000 1.0
C      1  0.4877580000000  0.4218830000000  0.5428100000000 1.0
C      1  0.4838380000000  0.5152300000000  0.5910790000000 1.0
C      1  0.5187810000000  0.5266910000000  0.5290560000000 1.0
C      1  0.5410820000000  0.5846760000000  0.4844750000000 1.0
C      1  0.5359850000000  0.4851710000000  0.5019520000000 1.0
C      1  0.5845260000000  0.4972640000000  0.5218090000000 1.0
C      1  0.5627100000000  0.4203540000000  0.4922450000000 1.0
C      1  0.4670920000000  0.5820460000000  0.4824160000000 1.0
C      1  0.5896380000000  0.5460400000000  0.4725800000000 1.0
C      1  0.5382820000000  0.5656530000000  0.5760150000000 1.0
C      1  0.4587450000000  0.5175510000000  0.5772280000000 1.0
C      1  0.4657890000000  0.4646270000000  0.4100250000000 1.0
C      1  0.5203890000000  0.4347730000000  0.5149790000000 1.0
C      1  0.5808080000000  0.5251140000000  0.5287830000000 1.0
C      1  0.5430530000000  0.5212460000000  0.5940660000000 1.0
C      1  0.4779190000000  0.5056680000000  0.5204660000000 1.0
C      1  0.4822960000000  0.5022630000000  0.4897470000000 1.0
C      1  0.4685540000000  0.5335420000000  0.5237290000000 1.0
C      1  0.5730790000000  0.5066250000000  0.4515630000000 1.0
C      1  0.4815670000000  0.5582750000000  0.5693260000000 1.0
C      1  0.4883410000000  0.4841520000000  0.4044550000000 1.0
C      1  0.4977020000000  0.4060920000000  0.4681870000000 1.0
C      1  0.5614510000000  0.4716740000000  0.4874750000000 1.0
C      1  0.4550560000000  0.5439340000000  0.5647570000000 1.0
C      1  0.4580720000000  0.5304260000000  0.4301720000000 1.0
C      1  0.5387160000000  0.4376070000000  0.5379160000000 1.0
C      1  0.5173060000000  0.4764400000000  0.5400030000000 1.0
C      1  0.5007740000000  0.5802180000000  0.4379220000000 1.0
C      1  0.4437210000000  0.5415630000000  0.5364570000000 1.0
C      1  0.4395640000000  0.5418100000000  0.4766770000000 1.0
C      1  0.5300460000000  0.5060480000000  0.4769330000000 1.0
C      1  0.4141360000000  0.5023050000000  0.4618540000000 1.0
C      1  0.5836670000000  0.5641520000000  0.4927940000000 1.0
C      1  0.4662550000000  0.5749990000000  0.4537060000000 1.0
C      1  0.5444220000000  0.4974270000000  0.4500120000000 1.0
C      1  0.4769400000000  0.4803460000000  0.4502900000000 1.0
C      1  0.4350240000000  0.4256490000000  0.5239300000000 1.0
C      1  0.4093470000000  0.5164730000000  0.5077410000000 1.0
C      1  0.5467240000000  0.5725880000000  0.5284510000000 1.0
C      1  0.5692120000000  0.4459920000000  0.5012660000000 1.0
C      1  0.4491820000000  0.5624420000000  0.4967350000000 1.0
C      1  0.5011840000000  0.4480540000000  0.5856240000000 1.0
C      1  0.4871640000000  0.4757010000000  0.4777880000000 1.0
C      1  0.5333600000000  0.5592510000000  0.4694720000000 1.0
C      1  0.5734430000000  0.5277150000000  0.4316480000000 1.0
END
