TITL C-3578198-8939-576 -2.00493638819622e-06 125000 -594.613241273714 0 0 94 (C1) n - 1
REM
REM in /home/bkarasulu/work/CARBON/AIRSS/Generating-Clusters/EDIP-Nigel-Params/with-SteepDescent/Higher-Symm/SD-CG/HFTN-CG
REM
REM
REM
REM
REM
REM ./C.cell (12c818d87b63d06a65506943cc24bca4)
REM
REM compiler GCC version 9.2.1 20190827 (Red Hat 9.2.1-1)
REM options -cpp -mtune=generic -march=x86-64 -g -O0 -fpre-include=/usr/include/finclude/math-vector-fortran.h
REM seed 1373208730 -626918222 103590447 -1858844272 137046630 -432949733 1006794955 1229624107 -809317263 287769843 -845749788 1633399455 620177034 -1621895568 977526872 -1338666013 1171131302 -591815791 1428739921 -663557358 1536195783 1114461267 -255773699 -672772413 -1111410323 -2098391273 73967748 -1551711790 -958772699 1586354361 -572214564 2021627655 -796581060
REM
CELL 1.54180   50.00000   50.00000   50.00000   90.00000   90.00000   90.00000
LATT -1
SFAC C  
C      1  0.5105340000000  0.5638390000000  0.5467240000000 1.0
C      1  0.4566490000000  0.5665890000000  0.5267570000000 1.0
C      1  0.4630870000000  0.5631500000000  0.4674690000000 1.0
C      1  0.5199690000000  0.5650510000000  0.4513120000000 1.0
C      1  0.5493670000000  0.5632950000000  0.5043890000000 1.0
C      1  0.4730870000000  0.5487430000000  0.4437710000000 1.0
C      1  0.5429720000000  0.5475140000000  0.4571810000000 1.0
C      1  0.5548770000000  0.5489100000000  0.5298200000000 1.0
C      1  0.4891010000000  0.5545200000000  0.5646000000000 1.0
C      1  0.4390540000000  0.5495080000000  0.5102250000000 1.0
C      1  0.4165240000000  0.4602290000000  0.4885890000000 1.0
C      1  0.4814580000000  0.4621800000000  0.4060740000000 1.0
C      1  0.5775800000000  0.4605330000000  0.4586890000000 1.0
C      1  0.5578010000000  0.4586970000000  0.5624570000000 1.0
C      1  0.4694510000000  0.4663790000000  0.5885520000000 1.0
C      1  0.4429150000000  0.4737030000000  0.5518670000000 1.0
C      1  0.4315210000000  0.4763630000000  0.4503090000000 1.0
C      1  0.5265420000000  0.4750450000000  0.4138300000000 1.0
C      1  0.5805330000000  0.4745660000000  0.5006230000000 1.0
C      1  0.5224360000000  0.4788570000000  0.5882320000000 1.0
C      1  0.5150620000000  0.5215110000000  0.4299130000000 1.0
C      1  0.5630220000000  0.5199900000000  0.4953320000000 1.0
C      1  0.5275450000000  0.5241210000000  0.5658350000000 1.0
C      1  0.4467900000000  0.5244240000000  0.5496630000000 1.0
C      1  0.4470310000000  0.5187170000000  0.4698040000000 1.0
C      1  0.5685040000000  0.5230740000000  0.5245640000000 1.0
C      1  0.4998420000000  0.5294550000000  0.5774790000000 1.0
C      1  0.4286640000000  0.5264460000000  0.5256550000000 1.0
C      1  0.4578930000000  0.5236300000000  0.4419560000000 1.0
C      1  0.5429240000000  0.5241560000000  0.4397850000000 1.0
C      1  0.4786890000000  0.5847910000000  0.4806540000000 1.0
C      1  0.5098660000000  0.5829280000000  0.4734480000000 1.0
C      1  0.5246860000000  0.5797440000000  0.5010860000000 1.0
C      1  0.5059890000000  0.5821060000000  0.5245730000000 1.0
C      1  0.4780770000000  0.5826080000000  0.5127930000000 1.0
C      1  0.5151850000000  0.4174260000000  0.5132270000000 1.0
C      1  0.4857200000000  0.4113560000000  0.5152470000000 1.0
C      1  0.4735850000000  0.4203870000000  0.4876810000000 1.0
C      1  0.4959370000000  0.4221490000000  0.4677090000000 1.0
C      1  0.5204650000000  0.4241810000000  0.4847260000000 1.0
C      1  0.4620400000000  0.4953360000000  0.5875840000000 1.0
C      1  0.4105660000000  0.4901960000000  0.4904620000000 1.0
C      1  0.4825510000000  0.4926590000000  0.4071390000000 1.0
C      1  0.5777280000000  0.4909320000000  0.4572500000000 1.0
C      1  0.5626040000000  0.4887530000000  0.5638030000000 1.0
C      1  0.4821660000000  0.4367660000000  0.5447540000000 1.0
C      1  0.4672490000000  0.4496340000000  0.4936180000000 1.0
C      1  0.4937390000000  0.4373460000000  0.4418710000000 1.0
C      1  0.5376080000000  0.4465660000000  0.4802050000000 1.0
C      1  0.5253400000000  0.4359320000000  0.5343990000000 1.0
C      1  0.4701310000000  0.4511680000000  0.4312910000000 1.0
C      1  0.5490820000000  0.4522930000000  0.4544510000000 1.0
C      1  0.5518000000000  0.4496080000000  0.5340960000000 1.0
C      1  0.5156160000000  0.4350140000000  0.5619480000000 1.0
C      1  0.4405410000000  0.4552320000000  0.5058590000000 1.0
C      1  0.5115360000000  0.5006710000000  0.4067960000000 1.0
C      1  0.5828530000000  0.4996020000000  0.4849950000000 1.0
C      1  0.5424130000000  0.5011850000000  0.5821720000000 1.0
C      1  0.4398200000000  0.4990800000000  0.5681580000000 1.0
C      1  0.4230380000000  0.5004520000000  0.4654650000000 1.0
C      1  0.5590980000000  0.5469040000000  0.4820700000000 1.0
C      1  0.5360010000000  0.5505180000000  0.5525840000000 1.0
C      1  0.4603380000000  0.5537640000000  0.5537810000000 1.0
C      1  0.4431600000000  0.5464730000000  0.4812360000000 1.0
C      1  0.5014680000000  0.5495370000000  0.4336500000000 1.0
C      1  0.4734760000000  0.5137680000000  0.5399520000000 1.0
C      1  0.4728510000000  0.5035750000000  0.4875850000000 1.0
C      1  0.4991710000000  0.5064380000000  0.4514400000000 1.0
C      1  0.5259720000000  0.5097560000000  0.5013070000000 1.0
C      1  0.5261760000000  0.5080050000000  0.5376020000000 1.0
C      1  0.4838040000000  0.5064350000000  0.5685920000000 1.0
C      1  0.4255900000000  0.4995400000000  0.5139900000000 1.0
C      1  0.4736230000000  0.4998760000000  0.4353400000000 1.0
C      1  0.5508000000000  0.4988460000000  0.4502170000000 1.0
C      1  0.5551860000000  0.4987390000000  0.5362980000000 1.0
C      1  0.5340970000000  0.4757040000000  0.4433630000000 1.0
C      1  0.5546080000000  0.4744020000000  0.5168340000000 1.0
C      1  0.4990410000000  0.4799020000000  0.5689080000000 1.0
C      1  0.4449510000000  0.4791850000000  0.5228980000000 1.0
C      1  0.4613720000000  0.4746690000000  0.4474660000000 1.0
C      1  0.4721850000000  0.4939320000000  0.5173360000000 1.0
C      1  0.4771720000000  0.4743770000000  0.4737340000000 1.0
C      1  0.5088460000000  0.4791110000000  0.4596730000000 1.0
C      1  0.5275900000000  0.4784760000000  0.4991800000000 1.0
C      1  0.5114640000000  0.4831360000000  0.5425130000000 1.0
C      1  0.4635630000000  0.4552070000000  0.5624770000000 1.0
C      1  0.4198620000000  0.4530450000000  0.4612400000000 1.0
C      1  0.5088070000000  0.4522320000000  0.4100700000000 1.0
C      1  0.5868610000000  0.4521880000000  0.4844370000000 1.0
C      1  0.5336370000000  0.4518730000000  0.5793700000000 1.0
C      1  0.5006070000000  0.5216470000000  0.4859400000000 1.0
C      1  0.4963720000000  0.5525960000000  0.4939920000000 1.0
C      1  0.4985330000000  0.4771000000000  0.5178010000000 1.0
C      1  0.4869950000000  0.4506220000000  0.5170950000000 1.0
END
