TITL C-3577079-311-360 -2.42628060297394e-06 125000 -159.448589330244 0 0 29 (C3h) n - 1
REM
REM in /home/bkarasulu/work/CARBON/AIRSS/Generating-Clusters/EDIP-Nigel-Params/with-SteepDescent/Higher-Symm/SD-CG/HFTN-CG
REM
REM
REM
REM
REM
REM ./C.cell (12c818d87b63d06a65506943cc24bca4)
REM
REM compiler GCC version 9.2.1 20190827 (Red Hat 9.2.1-1)
REM options -cpp -mtune=generic -march=x86-64 -g -O0 -fpre-include=/usr/include/finclude/math-vector-fortran.h
REM seed -1712667050 -439555594 430651938 -2024758805 1066357822 2107615223 529176641 18893476 188306209 -421391883 -274088708 -1718800672 -1950639980 1941692013 -1333946356 1654701070 779098883 -400865527 1386909013 908222984 -1849665217 -547430626 1096756599 746120105 31657667 -1412993973 1983679309 1831921864 2028649740 712367015 1470252354 -1504708557 359063446
REM
CELL 1.54180   50.00000   50.00000   50.00000   90.00000   90.00000   90.00000
LATT -1
SFAC C  
C      1  0.5147480000000  0.5061390000000  0.5686300000000 1.0
C      1  0.5147850000000  0.4370210000000  0.4725250000000 1.0
C      1  0.5147980000000  0.5548090000000  0.4607200000000 1.0
C      1  0.4842260000000  0.5061410000000  0.5686170000000 1.0
C      1  0.4842630000000  0.4370230000000  0.4725120000000 1.0
C      1  0.4842760000000  0.5548110000000  0.4607070000000 1.0
C      1  0.4846600000000  0.5534990000000  0.4931490000000 1.0
C      1  0.4846300000000  0.4787010000000  0.5512600000000 1.0
C      1  0.4846700000000  0.4657740000000  0.4574280000000 1.0
C      1  0.5143860000000  0.5534970000000  0.4931610000000 1.0
C      1  0.5143560000000  0.4787000000000  0.5512730000000 1.0
C      1  0.5143960000000  0.4657720000000  0.4574410000000 1.0
C      1  0.5214330000000  0.4974640000000  0.5261950000000 1.0
C      1  0.5214490000000  0.4781100000000  0.4862360000000 1.0
C      1  0.5214500000000  0.5223930000000  0.4894540000000 1.0
C      1  0.4775780000000  0.4974670000000  0.5261760000000 1.0
C      1  0.4775940000000  0.4781130000000  0.4862170000000 1.0
C      1  0.4775950000000  0.5223960000000  0.4894350000000 1.0
C      1  0.4752290000000  0.5248930000000  0.5457280000000 1.0
C      1  0.4752430000000  0.4474670000000  0.5001910000000 1.0
C      1  0.4752670000000  0.5256160000000  0.4559060000000 1.0
C      1  0.5237680000000  0.5248900000000  0.5457490000000 1.0
C      1  0.5237830000000  0.4474640000000  0.5002120000000 1.0
C      1  0.5238070000000  0.5256130000000  0.4559270000000 1.0
C      1  0.4995080000000  0.4619570000000  0.5137730000000 1.0
C      1  0.4995340000000  0.5066150000000  0.4616810000000 1.0
C      1  0.4995070000000  0.5294000000000  0.5264020000000 1.0
C      1  0.4610090000000  0.4993270000000  0.5006020000000 1.0
C      1  0.5380240000000  0.4993210000000  0.5006350000000 1.0
END
