TITL C-3578207-9274-368 1.21418828606777e-06 125000 -684.831939605131 0 0 107 (C1) n - 1
REM
REM in /home/bkarasulu/work/CARBON/AIRSS/Generating-Clusters/EDIP-Nigel-Params/with-SteepDescent/Higher-Symm/SD-CG/HFTN-CG
REM
REM
REM
REM
REM
REM ./C.cell (12c818d87b63d06a65506943cc24bca4)
REM
REM compiler GCC version 9.2.1 20190827 (Red Hat 9.2.1-1)
REM options -cpp -mtune=generic -march=x86-64 -g -O0 -fpre-include=/usr/include/finclude/math-vector-fortran.h
REM seed 391752712 21277280 1450339243 -645166669 1882279276 -2090976179 1810700732 -1742283782 -1050031924 1026200856 352939915 -355502733 -949689919 -1327866439 104017656 -344690603 171672356 -36768055 1550477006 -957124529 313282526 -1720041578 -1166127738 -1898099108 1066293073 -1364296603 1706062670 1763347047 -446864122 -1846843611 -1215643149 -1257856565 -858309698
REM
CELL 1.54180   50.00000   50.00000   50.00000   90.00000   90.00000   90.00000
LATT -1
SFAC C  
C      1  0.5739830000000  0.5070890000000  0.4477000000000 1.0
C      1  0.5681570000000  0.5490570000000  0.4927300000000 1.0
C      1  0.5607720000000  0.5205020000000  0.5404160000000 1.0
C      1  0.5614690000000  0.4686700000000  0.5330350000000 1.0
C      1  0.5635240000000  0.4586500000000  0.4818740000000 1.0
C      1  0.4362210000000  0.5059380000000  0.4546660000000 1.0
C      1  0.4378400000000  0.5439910000000  0.4912300000000 1.0
C      1  0.4322000000000  0.5231080000000  0.5413910000000 1.0
C      1  0.4244290000000  0.4640700000000  0.5357330000000 1.0
C      1  0.4324210000000  0.4571670000000  0.4775280000000 1.0
C      1  0.5201620000000  0.5102800000000  0.4269310000000 1.0
C      1  0.5220710000000  0.5768930000000  0.4890280000000 1.0
C      1  0.5216810000000  0.5352730000000  0.5686170000000 1.0
C      1  0.5219100000000  0.4462640000000  0.5544990000000 1.0
C      1  0.5224900000000  0.4323210000000  0.4672130000000 1.0
C      1  0.4755910000000  0.5102550000000  0.4220810000000 1.0
C      1  0.4774790000000  0.5758000000000  0.4855430000000 1.0
C      1  0.4771690000000  0.5365560000000  0.5660180000000 1.0
C      1  0.4775340000000  0.4475060000000  0.5589680000000 1.0
C      1  0.4775780000000  0.4324800000000  0.4667160000000 1.0
C      1  0.4388000000000  0.4561860000000  0.4487580000000 1.0
C      1  0.4381880000000  0.5343560000000  0.4422050000000 1.0
C      1  0.4394020000000  0.5644910000000  0.5138560000000 1.0
C      1  0.4400460000000  0.5050190000000  0.5629230000000 1.0
C      1  0.4416290000000  0.4431990000000  0.5240870000000 1.0
C      1  0.5608980000000  0.4563930000000  0.4512670000000 1.0
C      1  0.5585230000000  0.5333940000000  0.4457270000000 1.0
C      1  0.5602450000000  0.5654260000000  0.5166030000000 1.0
C      1  0.5601690000000  0.5054260000000  0.5673400000000 1.0
C      1  0.5605380000000  0.4383770000000  0.5269470000000 1.0
C      1  0.5176420000000  0.4599940000000  0.4257890000000 1.0
C      1  0.5168820000000  0.5582640000000  0.4408870000000 1.0
C      1  0.5178150000000  0.5773780000000  0.5386500000000 1.0
C      1  0.5170950000000  0.4878080000000  0.5841150000000 1.0
C      1  0.5175220000000  0.4168650000000  0.5151910000000 1.0
C      1  0.4813100000000  0.4598540000000  0.4242340000000 1.0
C      1  0.4812050000000  0.5586340000000  0.4385250000000 1.0
C      1  0.4813280000000  0.5770670000000  0.5370000000000 1.0
C      1  0.4834600000000  0.4874240000000  0.5828180000000 1.0
C      1  0.4816540000000  0.4182960000000  0.5157690000000 1.0
C      1  0.5344160000000  0.5364850000000  0.4293740000000 1.0
C      1  0.5363270000000  0.5838300000000  0.5150920000000 1.0
C      1  0.5354790000000  0.5123960000000  0.5829670000000 1.0
C      1  0.5358340000000  0.4258060000000  0.5376680000000 1.0
C      1  0.5362820000000  0.4417820000000  0.4423330000000 1.0
C      1  0.4629120000000  0.5376620000000  0.4257720000000 1.0
C      1  0.4638910000000  0.5809980000000  0.5123560000000 1.0
C      1  0.4649130000000  0.5110220000000  0.5771570000000 1.0
C      1  0.4636370000000  0.4295120000000  0.5378560000000 1.0
C      1  0.4638420000000  0.4420430000000  0.4413850000000 1.0
C      1  0.5125030000000  0.4647150000000  0.5327830000000 1.0
C      1  0.5153080000000  0.4592520000000  0.4777450000000 1.0
C      1  0.5087740000000  0.5061550000000  0.4551350000000 1.0
C      1  0.5121460000000  0.5505410000000  0.4989750000000 1.0
C      1  0.5133260000000  0.5191740000000  0.5450870000000 1.0
C      1  0.4857560000000  0.4704310000000  0.5419910000000 1.0
C      1  0.4870930000000  0.4574560000000  0.4786860000000 1.0
C      1  0.4821400000000  0.5055420000000  0.4499460000000 1.0
C      1  0.4865760000000  0.5473660000000  0.4869270000000 1.0
C      1  0.4876760000000  0.5282350000000  0.5393870000000 1.0
C      1  0.5848180000000  0.4822530000000  0.5192410000000 1.0
C      1  0.5867840000000  0.4760630000000  0.4900970000000 1.0
C      1  0.5874020000000  0.5030100000000  0.4760430000000 1.0
C      1  0.5816480000000  0.5235800000000  0.4963920000000 1.0
C      1  0.5830580000000  0.5116070000000  0.5226150000000 1.0
C      1  0.4135320000000  0.4830920000000  0.5161090000000 1.0
C      1  0.4135050000000  0.4772330000000  0.4873800000000 1.0
C      1  0.4132750000000  0.5035640000000  0.4738410000000 1.0
C      1  0.4143280000000  0.5250470000000  0.4946650000000 1.0
C      1  0.4140340000000  0.5121520000000  0.5211810000000 1.0
C      1  0.4686300000000  0.4625280000000  0.5826010000000 1.0
C      1  0.4640250000000  0.4196440000000  0.4905410000000 1.0
C      1  0.4625760000000  0.4831140000000  0.4170370000000 1.0
C      1  0.4633410000000  0.5725930000000  0.4587110000000 1.0
C      1  0.4630890000000  0.5613290000000  0.5557300000000 1.0
C      1  0.5351350000000  0.4648860000000  0.5748610000000 1.0
C      1  0.5355950000000  0.4185280000000  0.4909430000000 1.0
C      1  0.5346160000000  0.4844910000000  0.4220170000000 1.0
C      1  0.5349030000000  0.5710960000000  0.4620130000000 1.0
C      1  0.5351060000000  0.5600490000000  0.5567880000000 1.0
C      1  0.5346800000000  0.5119080000000  0.5261050000000 1.0
C      1  0.5356840000000  0.4805050000000  0.5203840000000 1.0
C      1  0.5388760000000  0.4754470000000  0.4892910000000 1.0
C      1  0.5474840000000  0.5034020000000  0.4763330000000 1.0
C      1  0.5310980000000  0.5261780000000  0.4988820000000 1.0
C      1  0.4699110000000  0.5138870000000  0.5205460000000 1.0
C      1  0.4627210000000  0.4819300000000  0.5262970000000 1.0
C      1  0.4689300000000  0.4784660000000  0.4898810000000 1.0
C      1  0.4623580000000  0.5039840000000  0.4716800000000 1.0
C      1  0.4643760000000  0.5276270000000  0.4925990000000 1.0
C      1  0.4396370000000  0.4355890000000  0.4961550000000 1.0
C      1  0.4380110000000  0.4822810000000  0.4344720000000 1.0
C      1  0.4386130000000  0.5560260000000  0.4629590000000 1.0
C      1  0.4389150000000  0.5520170000000  0.5407450000000 1.0
C      1  0.4349250000000  0.4777600000000  0.5580110000000 1.0
C      1  0.5608630000000  0.4327660000000  0.4977180000000 1.0
C      1  0.5584940000000  0.4827630000000  0.4386400000000 1.0
C      1  0.5593330000000  0.5550620000000  0.4654300000000 1.0
C      1  0.5594620000000  0.5510650000000  0.5426520000000 1.0
C      1  0.5599680000000  0.4758410000000  0.5628370000000 1.0
C      1  0.5003930000000  0.4324820000000  0.5678390000000 1.0
C      1  0.4996970000000  0.5944860000000  0.4838300000000 1.0
C      1  0.4998920000000  0.4161760000000  0.4591030000000 1.0
C      1  0.4996700000000  0.5128290000000  0.4065490000000 1.0
C      1  0.4987050000000  0.5442270000000  0.5838380000000 1.0
C      1  0.4940500000000  0.4925630000000  0.5044090000000 1.0
C      1  0.5090320000000  0.5093970000000  0.4849410000000 1.0
END
