TITL C-3577077-324-40 -2.55079414060476e-06 125000 -1038.08496347578 0 0 164 (C1) n - 1
REM
REM in /home/bkarasulu/work/CARBON/AIRSS/Generating-Clusters/EDIP-Nigel-Params/with-SteepDescent/Higher-Symm/SD-CG/HFTN-CG
REM
REM
REM
REM
REM
REM ./C.cell (12c818d87b63d06a65506943cc24bca4)
REM
REM compiler GCC version 9.2.1 20190827 (Red Hat 9.2.1-1)
REM options -cpp -mtune=generic -march=x86-64 -g -O0 -fpre-include=/usr/include/finclude/math-vector-fortran.h
REM seed -749370380 -200074794 -1169399558 -656433019 674347732 -297655966 -2038244072 1313389486 1438041646 -274669463 613333015 707504922 1888054332 1364085411 -57904597 -577868330 1706743927 1790602074 -717942318 -1762120096 1936704102 -587196794 1927446960 -617153551 842445990 -969964930 1649504326 1803437684 -765674124 -468338251 1091049567 -572835448 1819513770
REM
CELL 1.54180   50.00000   50.00000   50.00000   90.00000   90.00000   90.00000
LATT -1
SFAC C  
C      1  0.6012580000000  0.5154250000000  0.5394940000000 1.0
C      1  0.6025350000000  0.4871670000000  0.5495940000000 1.0
C      1  0.5945770000000  0.4636480000000  0.5286840000000 1.0
C      1  0.6023000000000  0.4481830000000  0.4993150000000 1.0
C      1  0.5958540000000  0.4600840000000  0.4720270000000 1.0
C      1  0.6059710000000  0.4950640000000  0.4304560000000 1.0
C      1  0.6005750000000  0.5185200000000  0.4460740000000 1.0
C      1  0.5951270000000  0.5565580000000  0.4904130000000 1.0
C      1  0.5970270000000  0.5681160000000  0.5163360000000 1.0
C      1  0.4769510000000  0.5695050000000  0.4160290000000 1.0
C      1  0.4806290000000  0.5995810000000  0.4852940000000 1.0
C      1  0.4734770000000  0.5907170000000  0.5577870000000 1.0
C      1  0.4744860000000  0.5369130000000  0.6041830000000 1.0
C      1  0.4740410000000  0.4656740000000  0.6033100000000 1.0
C      1  0.4804050000000  0.4168120000000  0.5590750000000 1.0
C      1  0.4767780000000  0.3944160000000  0.4869340000000 1.0
C      1  0.4706070000000  0.4240350000000  0.4197570000000 1.0
C      1  0.4851780000000  0.4924980000000  0.4100740000000 1.0
C      1  0.5211340000000  0.5899310000000  0.5472840000000 1.0
C      1  0.5281200000000  0.5444580000000  0.5855530000000 1.0
C      1  0.5272200000000  0.4919350000000  0.5974060000000 1.0
C      1  0.5267550000000  0.4282090000000  0.5551970000000 1.0
C      1  0.5260130000000  0.3927080000000  0.4892760000000 1.0
C      1  0.5286320000000  0.4088120000000  0.4443480000000 1.0
C      1  0.5231050000000  0.4652780000000  0.4011770000000 1.0
C      1  0.5279810000000  0.5649100000000  0.4138960000000 1.0
C      1  0.5297120000000  0.5843010000000  0.4579020000000 1.0
C      1  0.4229840000000  0.5753570000000  0.4745030000000 1.0
C      1  0.4224640000000  0.5720460000000  0.5281960000000 1.0
C      1  0.4221020000000  0.5392770000000  0.5659530000000 1.0
C      1  0.4212170000000  0.4896410000000  0.5767540000000 1.0
C      1  0.4277930000000  0.4467250000000  0.5487900000000 1.0
C      1  0.4321150000000  0.4300410000000  0.5014730000000 1.0
C      1  0.4306110000000  0.4446110000000  0.4519820000000 1.0
C      1  0.4334990000000  0.4888180000000  0.4280810000000 1.0
C      1  0.4277930000000  0.5395400000000  0.4339190000000 1.0
C      1  0.5189010000000  0.4624580000000  0.4664720000000 1.0
C      1  0.5332300000000  0.5085910000000  0.4502880000000 1.0
C      1  0.5244380000000  0.5377840000000  0.4555730000000 1.0
C      1  0.5189200000000  0.5484150000000  0.4927720000000 1.0
C      1  0.5125690000000  0.5308610000000  0.5410330000000 1.0
C      1  0.5297630000000  0.5041310000000  0.5464390000000 1.0
C      1  0.5120400000000  0.4776490000000  0.5497660000000 1.0
C      1  0.5319350000000  0.4491640000000  0.5102080000000 1.0
C      1  0.5182610000000  0.4413500000000  0.4858370000000 1.0
C      1  0.4889630000000  0.5412140000000  0.4195860000000 1.0
C      1  0.4817220000000  0.5838660000000  0.4597000000000 1.0
C      1  0.4769840000000  0.5925860000000  0.5293540000000 1.0
C      1  0.4795840000000  0.5484040000000  0.5774230000000 1.0
C      1  0.4802160000000  0.4931550000000  0.5942640000000 1.0
C      1  0.4817550000000  0.4449540000000  0.5654300000000 1.0
C      1  0.4871040000000  0.4115080000000  0.5095610000000 1.0
C      1  0.4824840000000  0.4186920000000  0.4459960000000 1.0
C      1  0.4967450000000  0.4886410000000  0.4385040000000 1.0
C      1  0.4589100000000  0.5138090000000  0.4604990000000 1.0
C      1  0.4573670000000  0.5424570000000  0.4717940000000 1.0
C      1  0.4491690000000  0.5455830000000  0.5002600000000 1.0
C      1  0.4651590000000  0.5360100000000  0.5240050000000 1.0
C      1  0.4507660000000  0.5124320000000  0.5414590000000 1.0
C      1  0.4606780000000  0.4845360000000  0.5476290000000 1.0
C      1  0.4650930000000  0.4655220000000  0.5247520000000 1.0
C      1  0.4671580000000  0.4527720000000  0.4825360000000 1.0
C      1  0.4690920000000  0.4709010000000  0.4588320000000 1.0
C      1  0.5745470000000  0.4329140000000  0.5000160000000 1.0
C      1  0.5810260000000  0.4407790000000  0.4524280000000 1.0
C      1  0.5786790000000  0.4872190000000  0.4231780000000 1.0
C      1  0.5775050000000  0.5326430000000  0.4337040000000 1.0
C      1  0.5762700000000  0.5714480000000  0.4733100000000 1.0
C      1  0.5696320000000  0.5714080000000  0.5232510000000 1.0
C      1  0.5805520000000  0.5332370000000  0.5584070000000 1.0
C      1  0.5785930000000  0.4852840000000  0.5676560000000 1.0
C      1  0.5795530000000  0.4413860000000  0.5457490000000 1.0
C      1  0.3958390000000  0.5687660000000  0.4750000000000 1.0
C      1  0.3954030000000  0.5640630000000  0.5248560000000 1.0
C      1  0.3965360000000  0.5343860000000  0.5554670000000 1.0
C      1  0.3947580000000  0.4900670000000  0.5674700000000 1.0
C      1  0.4000760000000  0.4482040000000  0.5441820000000 1.0
C      1  0.4046290000000  0.4341300000000  0.4997910000000 1.0
C      1  0.4033530000000  0.4515360000000  0.4557490000000 1.0
C      1  0.4067770000000  0.4893340000000  0.4360370000000 1.0
C      1  0.4006340000000  0.5339260000000  0.4387600000000 1.0
C      1  0.4579580000000  0.5134260000000  0.5972550000000 1.0
C      1  0.4577880000000  0.4531170000000  0.5826730000000 1.0
C      1  0.4672410000000  0.4151570000000  0.5327490000000 1.0
C      1  0.4621630000000  0.4099910000000  0.4662600000000 1.0
C      1  0.4665630000000  0.4524470000000  0.4149490000000 1.0
C      1  0.4700040000000  0.5185950000000  0.4117170000000 1.0
C      1  0.4594090000000  0.5796370000000  0.4394510000000 1.0
C      1  0.4601270000000  0.5937640000000  0.5057450000000 1.0
C      1  0.4584450000000  0.5672820000000  0.5665890000000 1.0
C      1  0.5412970000000  0.4528870000000  0.4208790000000 1.0
C      1  0.5306480000000  0.5143310000000  0.4114710000000 1.0
C      1  0.5382720000000  0.5612240000000  0.4422750000000 1.0
C      1  0.5278830000000  0.5789400000000  0.4874930000000 1.0
C      1  0.5308790000000  0.5539780000000  0.5534120000000 1.0
C      1  0.5383770000000  0.5119620000000  0.5765310000000 1.0
C      1  0.5320250000000  0.4564610000000  0.5650230000000 1.0
C      1  0.5354440000000  0.4244330000000  0.5273420000000 1.0
C      1  0.5359590000000  0.4160240000000  0.4725420000000 1.0
C      1  0.4902400000000  0.4400250000000  0.4989240000000 1.0
C      1  0.4955790000000  0.4557690000000  0.4484920000000 1.0
C      1  0.4876250000000  0.5104800000000  0.4577110000000 1.0
C      1  0.4962640000000  0.5371330000000  0.4492420000000 1.0
C      1  0.4837080000000  0.5553310000000  0.4678650000000 1.0
C      1  0.4983950000000  0.5383280000000  0.5154700000000 1.0
C      1  0.4892810000000  0.5251220000000  0.5585490000000 1.0
C      1  0.4863740000000  0.4941510000000  0.5637380000000 1.0
C      1  0.4934200000000  0.4578340000000  0.5300830000000 1.0
C      1  0.5042170000000  0.5839980000000  0.4169320000000 1.0
C      1  0.5081030000000  0.5995220000000  0.4980300000000 1.0
C      1  0.5016800000000  0.5896640000000  0.5693090000000 1.0
C      1  0.5031120000000  0.5306020000000  0.6117980000000 1.0
C      1  0.5241380000000  0.4626710000000  0.5925100000000 1.0
C      1  0.5071120000000  0.4091630000000  0.5619300000000 1.0
C      1  0.5015450000000  0.3835430000000  0.4736740000000 1.0
C      1  0.5297740000000  0.4269930000000  0.4227170000000 1.0
C      1  0.5137540000000  0.4930600000000  0.3983460000000 1.0
C      1  0.5615920000000  0.5127310000000  0.4167880000000 1.0
C      1  0.5664930000000  0.5565170000000  0.4481670000000 1.0
C      1  0.5572330000000  0.5792690000000  0.4963020000000 1.0
C      1  0.5597500000000  0.5522690000000  0.5441750000000 1.0
C      1  0.5676940000000  0.5116630000000  0.5749820000000 1.0
C      1  0.5621580000000  0.4609950000000  0.5613110000000 1.0
C      1  0.5660610000000  0.4208650000000  0.5271340000000 1.0
C      1  0.5660840000000  0.4212030000000  0.4730340000000 1.0
C      1  0.5686420000000  0.4581770000000  0.4288000000000 1.0
C      1  0.5158590000000  0.5397690000000  0.4056430000000 1.0
C      1  0.5056220000000  0.5939770000000  0.4449040000000 1.0
C      1  0.5038940000000  0.6003910000000  0.5262860000000 1.0
C      1  0.5028370000000  0.5651820000000  0.5852000000000 1.0
C      1  0.5036030000000  0.5024680000000  0.6100080000000 1.0
C      1  0.4987710000000  0.4503300000000  0.5993640000000 1.0
C      1  0.5166830000000  0.4026810000000  0.5154630000000 1.0
C      1  0.5026830000000  0.3964930000000  0.4464520000000 1.0
C      1  0.4996000000000  0.4458720000000  0.4069330000000 1.0
C      1  0.4380420000000  0.5146180000000  0.5723220000000 1.0
C      1  0.4401930000000  0.4688390000000  0.5651610000000 1.0
C      1  0.4474630000000  0.4391070000000  0.5266410000000 1.0
C      1  0.4464550000000  0.4334370000000  0.4757170000000 1.0
C      1  0.4486390000000  0.4641980000000  0.4372560000000 1.0
C      1  0.4470790000000  0.5152390000000  0.4325250000000 1.0
C      1  0.4398810000000  0.5600750000000  0.4533700000000 1.0
C      1  0.4376270000000  0.5732640000000  0.5019290000000 1.0
C      1  0.4397360000000  0.5546830000000  0.5470690000000 1.0
C      1  0.3918390000000  0.5424750000000  0.4837070000000 1.0
C      1  0.3862920000000  0.5406210000000  0.5120130000000 1.0
C      1  0.3910840000000  0.5201650000000  0.5318840000000 1.0
C      1  0.3865750000000  0.4930300000000  0.5408420000000 1.0
C      1  0.3894220000000  0.4677440000000  0.5271060000000 1.0
C      1  0.3956170000000  0.4605280000000  0.4999540000000 1.0
C      1  0.3911870000000  0.4701580000000  0.4732060000000 1.0
C      1  0.3978970000000  0.4956590000000  0.4617850000000 1.0
C      1  0.3894450000000  0.5232240000000  0.4622400000000 1.0
C      1  0.5778250000000  0.5312530000000  0.4920610000000 1.0
C      1  0.5442440000000  0.5307080000000  0.4931080000000 1.0
C      1  0.5760210000000  0.5196310000000  0.5217510000000 1.0
C      1  0.5529430000000  0.4997960000000  0.5237030000000 1.0
C      1  0.5683970000000  0.4755830000000  0.5198720000000 1.0
C      1  0.5575020000000  0.4583900000000  0.5002780000000 1.0
C      1  0.5623100000000  0.4691110000000  0.4709930000000 1.0
C      1  0.5637940000000  0.4970420000000  0.4572750000000 1.0
C      1  0.5866560000000  0.5112370000000  0.4715950000000 1.0
C      1  0.5237530000000  0.4907890000000  0.4735920000000 1.0
C      1  0.5373340000000  0.5025740000000  0.4976850000000 1.0
END
