TITL C-3577083-591-519 -9.59708662079685e-07 125000 -382.538863892196 0 0 62 (C1) n - 1
REM
REM in /home/bkarasulu/work/CARBON/AIRSS/Generating-Clusters/EDIP-Nigel-Params/with-SteepDescent/Higher-Symm/SD-CG/HFTN-CG
REM
REM
REM
REM
REM
REM ./C.cell (12c818d87b63d06a65506943cc24bca4)
REM
REM compiler GCC version 9.2.1 20190827 (Red Hat 9.2.1-1)
REM options -cpp -mtune=generic -march=x86-64 -g -O0 -fpre-include=/usr/include/finclude/math-vector-fortran.h
REM seed 1834646226 -833768455 1915552392 1895034005 1087153686 1461172531 29720234 261790818 316791837 1125335813 256002908 -311480621 913153286 -712081887 494436570 -95318810 -1353176500 -977115557 -2011069384 -1841745004 -564189208 1332034165 5197054 1139130018 -489242761 951109845 -1758755892 1194411474 251100648 -513358740 951200776 -1445229884 -17747361
REM
CELL 1.54180   50.00000   50.00000   50.00000   90.00000   90.00000   90.00000
LATT -1
SFAC C  
C      1  0.5521020000000  0.4920070000000  0.5543080000000 1.0
C      1  0.5315010000000  0.5398410000000  0.5560580000000 1.0
C      1  0.4831530000000  0.5440650000000  0.5565180000000 1.0
C      1  0.4466820000000  0.5075430000000  0.5603850000000 1.0
C      1  0.4676720000000  0.4614350000000  0.5593180000000 1.0
C      1  0.5160400000000  0.4598450000000  0.5542010000000 1.0
C      1  0.5521540000000  0.4945400000000  0.4439880000000 1.0
C      1  0.5298590000000  0.5427190000000  0.4454150000000 1.0
C      1  0.4785060000000  0.5473530000000  0.4413160000000 1.0
C      1  0.4461670000000  0.5065290000000  0.4375530000000 1.0
C      1  0.4728260000000  0.4603560000000  0.4439140000000 1.0
C      1  0.5235240000000  0.4483970000000  0.4391040000000 1.0
C      1  0.5505990000000  0.4708280000000  0.4858630000000 1.0
C      1  0.5585410000000  0.5472050000000  0.4848170000000 1.0
C      1  0.5055370000000  0.5457850000000  0.4820710000000 1.0
C      1  0.4506660000000  0.5199190000000  0.4848050000000 1.0
C      1  0.4516670000000  0.4741290000000  0.4869220000000 1.0
C      1  0.5084960000000  0.4655770000000  0.4789640000000 1.0
C      1  0.5606670000000  0.4644490000000  0.5133970000000 1.0
C      1  0.5482300000000  0.5369250000000  0.5097310000000 1.0
C      1  0.5045630000000  0.5304430000000  0.5094630000000 1.0
C      1  0.4383910000000  0.5267710000000  0.5129000000000 1.0
C      1  0.4440800000000  0.4648780000000  0.5143870000000 1.0
C      1  0.5169570000000  0.4793450000000  0.5040770000000 1.0
C      1  0.4530280000000  0.4824100000000  0.5708500000000 1.0
C      1  0.4929770000000  0.4563700000000  0.5692030000000 1.0
C      1  0.5379810000000  0.4715630000000  0.5661410000000 1.0
C      1  0.5470710000000  0.5178510000000  0.5631290000000 1.0
C      1  0.5076830000000  0.5453010000000  0.5691700000000 1.0
C      1  0.4627730000000  0.5288880000000  0.5669930000000 1.0
C      1  0.4583770000000  0.4815960000000  0.4328130000000 1.0
C      1  0.4963570000000  0.4507910000000  0.4318390000000 1.0
C      1  0.5380680000000  0.4721920000000  0.4346230000000 1.0
C      1  0.5452670000000  0.5208380000000  0.4379830000000 1.0
C      1  0.5049760000000  0.5456790000000  0.4335160000000 1.0
C      1  0.4597050000000  0.5300260000000  0.4304970000000 1.0
C      1  0.5420050000000  0.4397060000000  0.5158000000000 1.0
C      1  0.5654870000000  0.5137990000000  0.5129880000000 1.0
C      1  0.5124610000000  0.5681940000000  0.5183350000000 1.0
C      1  0.4556570000000  0.5518040000000  0.5145610000000 1.0
C      1  0.4249220000000  0.4812500000000  0.5265800000000 1.0
C      1  0.4882530000000  0.4420970000000  0.5175850000000 1.0
C      1  0.5438870000000  0.4327490000000  0.4865190000000 1.0
C      1  0.5750240000000  0.5125240000000  0.4846470000000 1.0
C      1  0.5162750000000  0.5743060000000  0.4880390000000 1.0
C      1  0.4570770000000  0.5581790000000  0.4861250000000 1.0
C      1  0.4270520000000  0.4812950000000  0.4724190000000 1.0
C      1  0.4838330000000  0.4376110000000  0.4890010000000 1.0
C      1  0.4835300000000  0.5484390000000  0.5271840000000 1.0
C      1  0.4387700000000  0.5049290000000  0.5328620000000 1.0
C      1  0.4668690000000  0.4574660000000  0.5305450000000 1.0
C      1  0.5155730000000  0.4544840000000  0.5244020000000 1.0
C      1  0.5537810000000  0.4900120000000  0.5257340000000 1.0
C      1  0.5356140000000  0.5526460000000  0.5301570000000 1.0
C      1  0.4787840000000  0.5488770000000  0.4699600000000 1.0
C      1  0.4327360000000  0.5074740000000  0.4638770000000 1.0
C      1  0.4664980000000  0.4534290000000  0.4719330000000 1.0
C      1  0.5224730000000  0.4419710000000  0.4684290000000 1.0
C      1  0.5647470000000  0.4904550000000  0.4696590000000 1.0
C      1  0.5387150000000  0.5606070000000  0.4683440000000 1.0
C      1  0.4711490000000  0.4983470000000  0.4894310000000 1.0
C      1  0.4955460000000  0.5015930000000  0.5060760000000 1.0
END
