TITL C-3577089-586-182 0.0976480912721916 125000 -65.6005444938018 0 0 13 (C1) n - 1
REM
REM in /home/bkarasulu/work/CARBON/AIRSS/Generating-Clusters/EDIP-Nigel-Params/with-SteepDescent/Higher-Symm/SD-CG/HFTN-CG
REM
REM
REM
REM
REM
REM ./C.cell (12c818d87b63d06a65506943cc24bca4)
REM
REM compiler GCC version 9.2.1 20190827 (Red Hat 9.2.1-1)
REM options -cpp -mtune=generic -march=x86-64 -g -O0 -fpre-include=/usr/include/finclude/math-vector-fortran.h
REM seed -365767338 1373497969 2060397848 -1688658221 -1860911241 1836346733 -520202053 -1913003263 -271908784 2139953795 -906482921 713541835 12673625 928334645 1764003399 -2093837599 -1073460919 1128363009 1444782118 -1440706894 234979845 1397316069 -844020909 2039421579 118874041 -1644078666 -190488158 1277564506 -2013724548 528806279 560257084 320692613 1703705974
REM
CELL 1.54180   50.00000   50.00000   50.00000   90.00000   90.00000   90.00000
LATT -1
SFAC C  
C      1  0.5128430000000  0.5595570000000  0.5425250000000 1.0
C      1  0.4990720000000  0.5210260000000  0.5107610000000 1.0
C      1  0.5120250000000  0.5899630000000  0.5846610000000 1.0
C      1  0.5113170000000  0.4755280000000  0.4847220000000 1.0
C      1  0.5071010000000  0.4988620000000  0.4964300000000 1.0
C      1  0.4666830000000  0.4364300000000  0.4518890000000 1.0
C      1  0.5133020000000  0.5750580000000  0.5639230000000 1.0
C      1  0.5184780000000  0.4530980000000  0.4709420000000 1.0
C      1  0.4418890000000  0.4406820000000  0.4472160000000 1.0
C      1  0.5169910000000  0.5437630000000  0.5202880000000 1.0
C      1  0.4993380000000  0.5466660000000  0.4978150000000 1.0
C      1  0.4934520000000  0.4311970000000  0.4525440000000 1.0
C      1  0.5075090000000  0.4281720000000  0.4762820000000 1.0
END
