TITL C-3578205-846-657 4.2193832826158e-07 125000 -321.804229112617 0 0 51 (C1) n - 1
REM
REM in /home/bkarasulu/work/CARBON/AIRSS/Generating-Clusters/EDIP-Nigel-Params/with-SteepDescent/Higher-Symm/SD-CG/HFTN-CG
REM
REM
REM
REM
REM
REM ./C.cell (12c818d87b63d06a65506943cc24bca4)
REM
REM compiler GCC version 9.2.1 20190827 (Red Hat 9.2.1-1)
REM options -cpp -mtune=generic -march=x86-64 -g -O0 -fpre-include=/usr/include/finclude/math-vector-fortran.h
REM seed 700097238 248978493 -917714977 -243198145 -478317075 134726711 596211939 -2025480528 -604614209 -1413829099 -481034698 1640985260 -1124279156 850449170 262164814 -858431264 -1078226803 1334507263 -1025577442 444070101 -1607758966 -1390597310 1452775771 486812769 1826801824 -1784749808 1834773943 1211921801 -608228138 550698532 2143314155 1017057058 1014358627
REM
CELL 1.54180   50.00000   50.00000   50.00000   90.00000   90.00000   90.00000
LATT -1
SFAC C  
C      1  0.5470640000000  0.4771660000000  0.4595470000000 1.0
C      1  0.5521840000000  0.4792180000000  0.5302680000000 1.0
C      1  0.4843460000000  0.4754870000000  0.5637010000000 1.0
C      1  0.4366980000000  0.4759160000000  0.5041000000000 1.0
C      1  0.4764940000000  0.4767150000000  0.4398420000000 1.0
C      1  0.4459030000000  0.5281540000000  0.4556680000000 1.0
C      1  0.4444230000000  0.5245450000000  0.5335010000000 1.0
C      1  0.5183760000000  0.5275270000000  0.5643000000000 1.0
C      1  0.5635720000000  0.5245060000000  0.5037440000000 1.0
C      1  0.5237980000000  0.5221820000000  0.4443180000000 1.0
C      1  0.4556960000000  0.4804290000000  0.4605380000000 1.0
C      1  0.5256100000000  0.4739820000000  0.4384670000000 1.0
C      1  0.5659480000000  0.4747890000000  0.5041170000000 1.0
C      1  0.5146750000000  0.4790770000000  0.5589310000000 1.0
C      1  0.4436570000000  0.4740340000000  0.5348970000000 1.0
C      1  0.5508290000000  0.5263200000000  0.4563170000000 1.0
C      1  0.4765250000000  0.5270300000000  0.4365530000000 1.0
C      1  0.4342970000000  0.5249390000000  0.5036670000000 1.0
C      1  0.4830060000000  0.5259650000000  0.5633630000000 1.0
C      1  0.5585990000000  0.5277670000000  0.5345990000000 1.0
C      1  0.5321900000000  0.5015760000000  0.5679920000000 1.0
C      1  0.4429930000000  0.4996890000000  0.5510620000000 1.0
C      1  0.4345350000000  0.5010100000000  0.4613990000000 1.0
C      1  0.5168300000000  0.5000520000000  0.4261070000000 1.0
C      1  0.5759270000000  0.5003260000000  0.4908470000000 1.0
C      1  0.4679460000000  0.5003880000000  0.5694030000000 1.0
C      1  0.5571410000000  0.5013850000000  0.5494600000000 1.0
C      1  0.5657620000000  0.5003520000000  0.4615670000000 1.0
C      1  0.4859830000000  0.5007850000000  0.4245880000000 1.0
C      1  0.4241220000000  0.4999620000000  0.4907710000000 1.0
C      1  0.5244190000000  0.4471620000000  0.4923740000000 1.0
C      1  0.5137640000000  0.4507750000000  0.5201390000000 1.0
C      1  0.4871880000000  0.4655670000000  0.5179300000000 1.0
C      1  0.4771460000000  0.4512100000000  0.4931720000000 1.0
C      1  0.5004100000000  0.4487840000000  0.4749130000000 1.0
C      1  0.4787900000000  0.5363960000000  0.4891920000000 1.0
C      1  0.4882600000000  0.5260240000000  0.5154840000000 1.0
C      1  0.5155450000000  0.5379950000000  0.5165870000000 1.0
C      1  0.5237220000000  0.5504670000000  0.4914030000000 1.0
C      1  0.4991080000000  0.5509170000000  0.4738670000000 1.0
C      1  0.5509250000000  0.5417210000000  0.4823980000000 1.0
C      1  0.5318060000000  0.5407120000000  0.5407780000000 1.0
C      1  0.4713560000000  0.5364800000000  0.5381220000000 1.0
C      1  0.4506990000000  0.5394400000000  0.4829030000000 1.0
C      1  0.5015460000000  0.5411950000000  0.4459920000000 1.0
C      1  0.4523340000000  0.4621500000000  0.4828660000000 1.0
C      1  0.4698180000000  0.4604080000000  0.5417790000000 1.0
C      1  0.5307070000000  0.4624290000000  0.5405470000000 1.0
C      1  0.5496530000000  0.4602040000000  0.4834290000000 1.0
C      1  0.5003510000000  0.4605600000000  0.4475500000000 1.0
C      1  0.4899200000000  0.4957560000000  0.5144130000000 1.0
END
