TITL C-3578195-8548-225 -3.38237740024815e-07 125000 -699.155904855642 0 0 113 (C1) n - 1
REM
REM in /home/bkarasulu/work/CARBON/AIRSS/Generating-Clusters/EDIP-Nigel-Params/with-SteepDescent/Higher-Symm/SD-CG/HFTN-CG
REM
REM
REM
REM
REM
REM ./C.cell (12c818d87b63d06a65506943cc24bca4)
REM
REM compiler GCC version 9.2.1 20190827 (Red Hat 9.2.1-1)
REM options -cpp -mtune=generic -march=x86-64 -g -O0 -fpre-include=/usr/include/finclude/math-vector-fortran.h
REM seed -1774646862 -1917802475 -696317145 1491566823 -753080759 262069002 800846242 -1339135100 -1956858361 -2127360210 -519908343 -1931478934 499341475 1011827562 -51332479 -544123731 460395311 -1050858031 13615868 -643038627 -2065890340 -1581517216 276130249 1174948816 1729276794 398837588 -1926814219 1663627539 -367109782 1750454505 -453166566 1668766823 703784445
REM
CELL 1.54180   50.00000   50.00000   50.00000   90.00000   90.00000   90.00000
LATT -1
SFAC C  
C      1  0.5015450000000  0.4282010000000  0.4985130000000 1.0
C      1  0.4976510000000  0.5438150000000  0.4351790000000 1.0
C      1  0.4991300000000  0.5300690000000  0.5688180000000 1.0
C      1  0.4974190000000  0.5740050000000  0.4914090000000 1.0
C      1  0.5031350000000  0.4605280000000  0.4403790000000 1.0
C      1  0.4994820000000  0.4687960000000  0.5694100000000 1.0
C      1  0.5356950000000  0.5491120000000  0.4739220000000 1.0
C      1  0.5338780000000  0.4968300000000  0.5505430000000 1.0
C      1  0.5359030000000  0.4624870000000  0.4788790000000 1.0
C      1  0.4631520000000  0.4405110000000  0.4716800000000 1.0
C      1  0.4594360000000  0.5030680000000  0.5594170000000 1.0
C      1  0.4609380000000  0.5514870000000  0.4663320000000 1.0
C      1  0.4225090000000  0.4588310000000  0.4947780000000 1.0
C      1  0.4182770000000  0.5289280000000  0.4643610000000 1.0
C      1  0.4111360000000  0.5164970000000  0.5402510000000 1.0
C      1  0.5863190000000  0.5426350000000  0.4933330000000 1.0
C      1  0.5776760000000  0.4750730000000  0.4711900000000 1.0
C      1  0.5873800000000  0.4832100000000  0.5391410000000 1.0
C      1  0.4926940000000  0.4868170000000  0.5917820000000 1.0
C      1  0.4980460000000  0.4310180000000  0.4456630000000 1.0
C      1  0.4938180000000  0.5857070000000  0.4646170000000 1.0
C      1  0.5059230000000  0.5129560000000  0.5912620000000 1.0
C      1  0.5063470000000  0.5719720000000  0.4413270000000 1.0
C      1  0.5135940000000  0.4194860000000  0.4700820000000 1.0
C      1  0.5400790000000  0.5139630000000  0.5735660000000 1.0
C      1  0.5430200000000  0.4331620000000  0.4732280000000 1.0
C      1  0.5395200000000  0.5531270000000  0.4446340000000 1.0
C      1  0.4578600000000  0.4797380000000  0.5777550000000 1.0
C      1  0.4570530000000  0.5793430000000  0.4752980000000 1.0
C      1  0.4619070000000  0.4452630000000  0.4436720000000 1.0
C      1  0.5812860000000  0.4574240000000  0.4941200000000 1.0
C      1  0.5768930000000  0.5255180000000  0.4687940000000 1.0
C      1  0.5749980000000  0.5099650000000  0.5316850000000 1.0
C      1  0.4257180000000  0.5421160000000  0.4917330000000 1.0
C      1  0.4361200000000  0.4819430000000  0.4706680000000 1.0
C      1  0.4192070000000  0.4851790000000  0.5395900000000 1.0
C      1  0.5494770000000  0.5719360000000  0.4854040000000 1.0
C      1  0.5469490000000  0.4750400000000  0.5676880000000 1.0
C      1  0.5535100000000  0.4421040000000  0.4480430000000 1.0
C      1  0.4458510000000  0.4206240000000  0.4826160000000 1.0
C      1  0.4444930000000  0.5238200000000  0.5733040000000 1.0
C      1  0.4439470000000  0.5594900000000  0.4441470000000 1.0
C      1  0.4541410000000  0.5149260000000  0.5101690000000 1.0
C      1  0.4481510000000  0.4929580000000  0.5321620000000 1.0
C      1  0.4583020000000  0.4997110000000  0.4828740000000 1.0
C      1  0.5373590000000  0.4733470000000  0.5090570000000 1.0
C      1  0.5511030000000  0.5037260000000  0.5103850000000 1.0
C      1  0.5491010000000  0.5207100000000  0.4806310000000 1.0
C      1  0.4107590000000  0.5240970000000  0.5111380000000 1.0
C      1  0.4069590000000  0.4754200000000  0.5130630000000 1.0
C      1  0.4112790000000  0.5000870000000  0.4689890000000 1.0
C      1  0.5991700000000  0.4733390000000  0.5130820000000 1.0
C      1  0.5964490000000  0.5233360000000  0.5139680000000 1.0
C      1  0.5925440000000  0.4997200000000  0.4718350000000 1.0
C      1  0.4470890000000  0.5725450000000  0.5243750000000 1.0
C      1  0.4487960000000  0.4384860000000  0.5544010000000 1.0
C      1  0.4515090000000  0.4892240000000  0.4222570000000 1.0
C      1  0.5632980000000  0.4164510000000  0.5185340000000 1.0
C      1  0.5632460000000  0.5555390000000  0.5534920000000 1.0
C      1  0.5551820000000  0.5121790000000  0.4221120000000 1.0
C      1  0.4325090000000  0.5335530000000  0.4378950000000 1.0
C      1  0.4290180000000  0.5352480000000  0.5536260000000 1.0
C      1  0.4345200000000  0.4338810000000  0.5046690000000 1.0
C      1  0.5645360000000  0.4683630000000  0.4464520000000 1.0
C      1  0.5681150000000  0.4640170000000  0.5499530000000 1.0
C      1  0.5657540000000  0.5606330000000  0.5044540000000 1.0
C      1  0.5483180000000  0.5502300000000  0.5262820000000 1.0
C      1  0.5531420000000  0.4525250000000  0.5273910000000 1.0
C      1  0.5442320000000  0.4895780000000  0.4390220000000 1.0
C      1  0.4562130000000  0.4391640000000  0.5251080000000 1.0
C      1  0.4441350000000  0.5449050000000  0.5315300000000 1.0
C      1  0.4571650000000  0.5158470000000  0.4331690000000 1.0
C      1  0.5322740000000  0.5038890000000  0.4632550000000 1.0
C      1  0.5318440000000  0.5233970000000  0.5217070000000 1.0
C      1  0.5090010000000  0.4759860000000  0.5204580000000 1.0
C      1  0.4800350000000  0.5080980000000  0.4636940000000 1.0
C      1  0.4631500000000  0.4682460000000  0.5244480000000 1.0
C      1  0.4817000000000  0.5243790000000  0.5214390000000 1.0
C      1  0.4821380000000  0.4206580000000  0.5211450000000 1.0
C      1  0.4785410000000  0.5293770000000  0.4164260000000 1.0
C      1  0.4867650000000  0.5553020000000  0.5703870000000 1.0
C      1  0.5098400000000  0.5878710000000  0.5136780000000 1.0
C      1  0.5228320000000  0.4754210000000  0.4230150000000 1.0
C      1  0.5248930000000  0.4534900000000  0.5711490000000 1.0
C      1  0.5365140000000  0.5182660000000  0.4018330000000 1.0
C      1  0.5387260000000  0.5715100000000  0.5573680000000 1.0
C      1  0.5430170000000  0.4170280000000  0.5388740000000 1.0
C      1  0.4695020000000  0.4827230000000  0.4018510000000 1.0
C      1  0.4742240000000  0.4325570000000  0.5666280000000 1.0
C      1  0.4738420000000  0.5827780000000  0.5280350000000 1.0
C      1  0.4875880000000  0.5048180000000  0.4012630000000 1.0
C      1  0.4900580000000  0.5758260000000  0.5515320000000 1.0
C      1  0.4937250000000  0.4217160000000  0.5485170000000 1.0
C      1  0.5164730000000  0.4982230000000  0.4046690000000 1.0
C      1  0.5212820000000  0.4329920000000  0.5496690000000 1.0
C      1  0.5159570000000  0.5759470000000  0.5397000000000 1.0
C      1  0.4457180000000  0.4697830000000  0.4433420000000 1.0
C      1  0.4360670000000  0.5711040000000  0.4970070000000 1.0
C      1  0.4365970000000  0.4639100000000  0.5638950000000 1.0
C      1  0.5632850000000  0.5353960000000  0.4393580000000 1.0
C      1  0.5669000000000  0.4306390000000  0.4932610000000 1.0
C      1  0.5653400000000  0.5264130000000  0.5583560000000 1.0
C      1  0.4875010000000  0.4515660000000  0.4863720000000 1.0
C      1  0.4865890000000  0.5378300000000  0.4623300000000 1.0
C      1  0.4869080000000  0.5123020000000  0.5488160000000 1.0
C      1  0.5066450000000  0.5464820000000  0.4840140000000 1.0
C      1  0.5078760000000  0.4672190000000  0.4693670000000 1.0
C      1  0.5058120000000  0.4882490000000  0.5470090000000 1.0
C      1  0.4842850000000  0.4729650000000  0.5065610000000 1.0
C      1  0.5061160000000  0.5236800000000  0.5045760000000 1.0
C      1  0.5058160000000  0.4970800000000  0.4759660000000 1.0
C      1  0.6063530000000  0.4993900000000  0.4984150000000 1.0
C      1  0.4004930000000  0.5000950000000  0.4972120000000 1.0
END
