TITL C-3578194-7807-674 -5.004245652959e-07 125000 -669.544337295993 0 0 108 (C1) n - 1
REM
REM in /home/bkarasulu/work/CARBON/AIRSS/Generating-Clusters/EDIP-Nigel-Params/with-SteepDescent/Higher-Symm/SD-CG/HFTN-CG
REM
REM
REM
REM
REM
REM ./C.cell (12c818d87b63d06a65506943cc24bca4)
REM
REM compiler GCC version 9.2.1 20190827 (Red Hat 9.2.1-1)
REM options -cpp -mtune=generic -march=x86-64 -g -O0 -fpre-include=/usr/include/finclude/math-vector-fortran.h
REM seed -1946603297 774154443 -800687479 -457158219 123654231 703864402 1493616443 -1375791195 321346836 104487630 -1200754716 -1082994066 -1270165483 1427355402 -933689377 446319141 -743308477 1609909253 1119647764 384395368 -269906111 1019757369 1187370865 -1542634118 824709180 -215802438 -15152957 1125164925 -336956468 -1261190189 -1991024237 -1636877847 -242938542
REM
CELL 1.54180   50.00000   50.00000   50.00000   90.00000   90.00000   90.00000
LATT -1
SFAC C  
C      1  0.4613670000000  0.4149270000000  0.4774930000000 1.0
C      1  0.5388490000000  0.4163310000000  0.5222510000000 1.0
C      1  0.5802040000000  0.4792650000000  0.5367190000000 1.0
C      1  0.4194710000000  0.4784080000000  0.4643190000000 1.0
C      1  0.4486730000000  0.5769420000000  0.5252130000000 1.0
C      1  0.5501550000000  0.5613960000000  0.4865020000000 1.0
C      1  0.4653750000000  0.4113510000000  0.5065920000000 1.0
C      1  0.5355220000000  0.4110100000000  0.4931280000000 1.0
C      1  0.5073620000000  0.5000070000000  0.4711940000000 1.0
C      1  0.4953330000000  0.5063300000000  0.5252070000000 1.0
C      1  0.4198980000000  0.4764980000000  0.4942200000000 1.0
C      1  0.5820500000000  0.4751750000000  0.5074250000000 1.0
C      1  0.4344640000000  0.4547390000000  0.4516560000000 1.0
C      1  0.5645050000000  0.4561870000000  0.5486290000000 1.0
C      1  0.4755780000000  0.5697030000000  0.4438110000000 1.0
C      1  0.5231910000000  0.5713500000000  0.5594450000000 1.0
C      1  0.5413760000000  0.4339300000000  0.4748420000000 1.0
C      1  0.4591800000000  0.4350370000000  0.5234290000000 1.0
C      1  0.5315920000000  0.5569680000000  0.4622530000000 1.0
C      1  0.4559110000000  0.5655830000000  0.5506560000000 1.0
C      1  0.4499480000000  0.4813880000000  0.4985030000000 1.0
C      1  0.5520320000000  0.4794750000000  0.5021040000000 1.0
C      1  0.5038580000000  0.4605170000000  0.5772680000000 1.0
C      1  0.4944890000000  0.4572140000000  0.4204990000000 1.0
C      1  0.5216260000000  0.4295180000000  0.4516770000000 1.0
C      1  0.4782960000000  0.4320250000000  0.5467060000000 1.0
C      1  0.5344760000000  0.4594090000000  0.4896540000000 1.0
C      1  0.4667880000000  0.4600480000000  0.5081110000000 1.0
C      1  0.5438580000000  0.5456340000000  0.5154730000000 1.0
C      1  0.4610600000000  0.5375300000000  0.4866410000000 1.0
C      1  0.5697400000000  0.5309680000000  0.5236900000000 1.0
C      1  0.4333620000000  0.5287910000000  0.4771300000000 1.0
C      1  0.5386490000000  0.4957390000000  0.5263880000000 1.0
C      1  0.4621840000000  0.4932480000000  0.4715500000000 1.0
C      1  0.5247610000000  0.5927120000000  0.5179120000000 1.0
C      1  0.4770350000000  0.5864000000000  0.4869690000000 1.0
C      1  0.4082250000000  0.5001990000000  0.5108130000000 1.0
C      1  0.5940220000000  0.4984770000000  0.4912090000000 1.0
C      1  0.5694040000000  0.4862990000000  0.4325510000000 1.0
C      1  0.4252990000000  0.4846830000000  0.5593220000000 1.0
C      1  0.4749430000000  0.5843850000000  0.5151830000000 1.0
C      1  0.5266750000000  0.5916750000000  0.4890180000000 1.0
C      1  0.4737700000000  0.5263020000000  0.5712460000000 1.0
C      1  0.5249890000000  0.5242100000000  0.4272600000000 1.0
C      1  0.4670340000000  0.5642360000000  0.4717350000000 1.0
C      1  0.5367080000000  0.5700680000000  0.5331300000000 1.0
C      1  0.4767890000000  0.5753050000000  0.5702270000000 1.0
C      1  0.5221240000000  0.5716510000000  0.4383830000000 1.0
C      1  0.5074970000000  0.4013100000000  0.4874980000000 1.0
C      1  0.4932960000000  0.4022370000000  0.5127350000000 1.0
C      1  0.4279040000000  0.5316710000000  0.5442200000000 1.0
C      1  0.5712810000000  0.5316630000000  0.4517060000000 1.0
C      1  0.4467210000000  0.4846760000000  0.4134870000000 1.0
C      1  0.5518010000000  0.4862700000000  0.5857610000000 1.0
C      1  0.5108530000000  0.4174200000000  0.5322930000000 1.0
C      1  0.4894160000000  0.4150560000000  0.4672430000000 1.0
C      1  0.5115130000000  0.5499510000000  0.4193240000000 1.0
C      1  0.4879260000000  0.5500260000000  0.5835790000000 1.0
C      1  0.5325870000000  0.5144800000000  0.4746780000000 1.0
C      1  0.4691450000000  0.5239260000000  0.5197510000000 1.0
C      1  0.4361280000000  0.5039340000000  0.4594520000000 1.0
C      1  0.5641770000000  0.5056720000000  0.5402040000000 1.0
C      1  0.5226320000000  0.5204620000000  0.5172650000000 1.0
C      1  0.4809520000000  0.5153450000000  0.4778460000000 1.0
C      1  0.4772220000000  0.4750210000000  0.4504690000000 1.0
C      1  0.5218510000000  0.4783820000000  0.5472030000000 1.0
C      1  0.4283350000000  0.4471440000000  0.5566270000000 1.0
C      1  0.5705650000000  0.4499140000000  0.4433700000000 1.0
C      1  0.4683300000000  0.5216910000000  0.4239430000000 1.0
C      1  0.5306820000000  0.5234440000000  0.5752190000000 1.0
C      1  0.4404700000000  0.5105630000000  0.4305970000000 1.0
C      1  0.5586770000000  0.5122460000000  0.5689130000000 1.0
C      1  0.5015940000000  0.5976630000000  0.4746970000000 1.0
C      1  0.4971170000000  0.5979040000000  0.5295450000000 1.0
C      1  0.5763830000000  0.5462450000000  0.4776090000000 1.0
C      1  0.4229590000000  0.5490070000000  0.5207320000000 1.0
C      1  0.4493940000000  0.4658680000000  0.5669180000000 1.0
C      1  0.5474220000000  0.4652460000000  0.4333930000000 1.0
C      1  0.5060080000000  0.4558170000000  0.5335710000000 1.0
C      1  0.4940700000000  0.4533070000000  0.4644790000000 1.0
C      1  0.4517590000000  0.4998010000000  0.5212020000000 1.0
C      1  0.5563720000000  0.4986400000000  0.4797370000000 1.0
C      1  0.4567310000000  0.4624180000000  0.4314530000000 1.0
C      1  0.5415750000000  0.4649350000000  0.5671180000000 1.0
C      1  0.5175990000000  0.5493790000000  0.5781420000000 1.0
C      1  0.4818480000000  0.5481350000000  0.4242240000000 1.0
C      1  0.5002230000000  0.5903290000000  0.5584080000000 1.0
C      1  0.4990730000000  0.5892010000000  0.4455480000000 1.0
C      1  0.4972530000000  0.4850880000000  0.4120050000000 1.0
C      1  0.5011490000000  0.4883510000000  0.5851120000000 1.0
C      1  0.4920190000000  0.5051680000000  0.5632820000000 1.0
C      1  0.5069760000000  0.5018700000000  0.4330570000000 1.0
C      1  0.5847730000000  0.5265790000000  0.4988550000000 1.0
C      1  0.4138520000000  0.5294800000000  0.4993340000000 1.0
C      1  0.5254570000000  0.5010430000000  0.5953070000000 1.0
C      1  0.4730210000000  0.4991210000000  0.4034360000000 1.0
C      1  0.5218090000000  0.4494910000000  0.4306870000000 1.0
C      1  0.4770280000000  0.4529560000000  0.5664040000000 1.0
C      1  0.5783980000000  0.5028510000000  0.4559730000000 1.0
C      1  0.4265110000000  0.5034360000000  0.5356920000000 1.0
C      1  0.5405150000000  0.5315450000000  0.4521620000000 1.0
C      1  0.4573220000000  0.5364550000000  0.5481010000000 1.0
C      1  0.5685650000000  0.4337740000000  0.4656420000000 1.0
C      1  0.4319000000000  0.4348390000000  0.5321980000000 1.0
C      1  0.5078960000000  0.4710440000000  0.4849550000000 1.0
C      1  0.4932140000000  0.4729210000000  0.5123370000000 1.0
C      1  0.5580330000000  0.4348760000000  0.5313220000000 1.0
C      1  0.4420230000000  0.4334720000000  0.4686410000000 1.0
END
