TITL C-3577084-3642-557 -9.5880765118248e-07 125000 -699.360587407761 0 0 113 (C1) n - 1
REM
REM in /home/bkarasulu/work/CARBON/AIRSS/Generating-Clusters/EDIP-Nigel-Params/with-SteepDescent/Higher-Symm/SD-CG/HFTN-CG
REM
REM
REM
REM
REM
REM ./C.cell (12c818d87b63d06a65506943cc24bca4)
REM
REM compiler GCC version 9.2.1 20190827 (Red Hat 9.2.1-1)
REM options -cpp -mtune=generic -march=x86-64 -g -O0 -fpre-include=/usr/include/finclude/math-vector-fortran.h
REM seed -1660686201 -411517317 1424939878 -1504859960 290552118 -1681309978 -890483040 1645069634 -982818823 560860833 171125380 -34893449 1164743739 -57064649 1623886481 287230152 1354564506 -1112101489 1281583018 -256837362 -1201279468 571146882 -493923180 610801132 -1964920379 -1837468099 1721578933 -766896814 1186931822 261695641 -575419500 -1435107880 1908344550
REM
CELL 1.54180   50.00000   50.00000   50.00000   90.00000   90.00000   90.00000
LATT -1
SFAC C  
C      1  0.5348710000000  0.4632310000000  0.5603210000000 1.0
C      1  0.5336450000000  0.4408030000000  0.4627090000000 1.0
C      1  0.5343410000000  0.5374700000000  0.4392420000000 1.0
C      1  0.5330730000000  0.5589170000000  0.5356170000000 1.0
C      1  0.5318570000000  0.5184180000000  0.4154060000000 1.0
C      1  0.5306110000000  0.5837410000000  0.5183860000000 1.0
C      1  0.5327880000000  0.4810420000000  0.5851600000000 1.0
C      1  0.5322010000000  0.4159990000000  0.4806320000000 1.0
C      1  0.5043580000000  0.4114520000000  0.4897370000000 1.0
C      1  0.5037990000000  0.5099960000000  0.4111640000000 1.0
C      1  0.5012990000000  0.5870340000000  0.5089200000000 1.0
C      1  0.5046160000000  0.4897750000000  0.5892290000000 1.0
C      1  0.5139980000000  0.4385950000000  0.5645300000000 1.0
C      1  0.5130410000000  0.4355220000000  0.4378200000000 1.0
C      1  0.5140660000000  0.5624480000000  0.4333060000000 1.0
C      1  0.5129090000000  0.5633430000000  0.5603800000000 1.0
C      1  0.5741410000000  0.4431690000000  0.5352760000000 1.0
C      1  0.5743160000000  0.4642360000000  0.4414740000000 1.0
C      1  0.5744660000000  0.5584270000000  0.4627680000000 1.0
C      1  0.5730630000000  0.5368790000000  0.5582890000000 1.0
C      1  0.4964920000000  0.4127650000000  0.4417410000000 1.0
C      1  0.4969370000000  0.5581280000000  0.4110920000000 1.0
C      1  0.4962900000000  0.5861490000000  0.5573770000000 1.0
C      1  0.4973600000000  0.4418870000000  0.5873340000000 1.0
C      1  0.5236340000000  0.4632030000000  0.4807580000000 1.0
C      1  0.5244470000000  0.5208510000000  0.4623570000000 1.0
C      1  0.5237210000000  0.5362130000000  0.5157820000000 1.0
C      1  0.5257670000000  0.4811230000000  0.5378270000000 1.0
C      1  0.5945920000000  0.5065810000000  0.4787750000000 1.0
C      1  0.5947610000000  0.5219680000000  0.5059240000000 1.0
C      1  0.5951300000000  0.4948260000000  0.5214280000000 1.0
C      1  0.5943190000000  0.4794680000000  0.4938340000000 1.0
C      1  0.5077050000000  0.4259700000000  0.5159340000000 1.0
C      1  0.5065100000000  0.4838660000000  0.4259910000000 1.0
C      1  0.5091170000000  0.5739570000000  0.4814620000000 1.0
C      1  0.5075830000000  0.5154240000000  0.5739820000000 1.0
C      1  0.4975190000000  0.4252380000000  0.5434660000000 1.0
C      1  0.4966200000000  0.4561930000000  0.4236390000000 1.0
C      1  0.4983060000000  0.5769540000000  0.4540710000000 1.0
C      1  0.4969980000000  0.5426940000000  0.5747630000000 1.0
C      1  0.4215740000000  0.4914800000000  0.5506840000000 1.0
C      1  0.4221210000000  0.4502510000000  0.4920460000000 1.0
C      1  0.4223790000000  0.5089080000000  0.4505600000000 1.0
C      1  0.4212570000000  0.5507140000000  0.5082020000000 1.0
C      1  0.5650430000000  0.5382690000000  0.4465990000000 1.0
C      1  0.5635700000000  0.5524140000000  0.5376560000000 1.0
C      1  0.5656880000000  0.4621650000000  0.5533130000000 1.0
C      1  0.5645410000000  0.4477730000000  0.4611990000000 1.0
C      1  0.4433660000000  0.4564260000000  0.4389860000000 1.0
C      1  0.4449030000000  0.5625730000000  0.4561890000000 1.0
C      1  0.4431190000000  0.5435320000000  0.5615240000000 1.0
C      1  0.4437400000000  0.4388520000000  0.5442810000000 1.0
C      1  0.4529900000000  0.4130350000000  0.5020400000000 1.0
C      1  0.4525820000000  0.4989330000000  0.4132020000000 1.0
C      1  0.4513010000000  0.5888550000000  0.4994500000000 1.0
C      1  0.4523150000000  0.5015650000000  0.5880250000000 1.0
C      1  0.4570000000000  0.4730530000000  0.5827150000000 1.0
C      1  0.4568340000000  0.4179100000000  0.4733820000000 1.0
C      1  0.4567360000000  0.5276130000000  0.4177750000000 1.0
C      1  0.4548140000000  0.5832280000000  0.5283530000000 1.0
C      1  0.4708330000000  0.5050150000000  0.5553150000000 1.0
C      1  0.4717550000000  0.4456060000000  0.5046750000000 1.0
C      1  0.4713610000000  0.4968450000000  0.4458690000000 1.0
C      1  0.4717480000000  0.5577650000000  0.4968750000000 1.0
C      1  0.5401540000000  0.5775360000000  0.4901050000000 1.0
C      1  0.5445200000000  0.5071700000000  0.5802870000000 1.0
C      1  0.5444150000000  0.4210310000000  0.5064610000000 1.0
C      1  0.5434680000000  0.4926770000000  0.4213610000000 1.0
C      1  0.4416150000000  0.5550840000000  0.5323420000000 1.0
C      1  0.4426510000000  0.4679650000000  0.5553310000000 1.0
C      1  0.4428280000000  0.4456090000000  0.4684380000000 1.0
C      1  0.4431510000000  0.5328270000000  0.4458070000000 1.0
C      1  0.4143690000000  0.5223880000000  0.5028420000000 1.0
C      1  0.4147010000000  0.4976540000000  0.5224930000000 1.0
C      1  0.4152610000000  0.4784490000000  0.4978760000000 1.0
C      1  0.4149730000000  0.5029330000000  0.4785730000000 1.0
C      1  0.4686030000000  0.5470880000000  0.5741230000000 1.0
C      1  0.4691950000000  0.4263200000000  0.5479530000000 1.0
C      1  0.4681950000000  0.4517400000000  0.4253400000000 1.0
C      1  0.4694950000000  0.5767000000000  0.4502310000000 1.0
C      1  0.5720590000000  0.4903740000000  0.5425680000000 1.0
C      1  0.5700790000000  0.4602720000000  0.4885550000000 1.0
C      1  0.5704950000000  0.5109300000000  0.4594830000000 1.0
C      1  0.5701130000000  0.5402900000000  0.5102960000000 1.0
C      1  0.5685660000000  0.5104720000000  0.5647990000000 1.0
C      1  0.5670650000000  0.4383230000000  0.5091100000000 1.0
C      1  0.5671420000000  0.4904820000000  0.4373300000000 1.0
C      1  0.5648310000000  0.5611900000000  0.4886050000000 1.0
C      1  0.4818400000000  0.4631480000000  0.5269440000000 1.0
C      1  0.4815080000000  0.4732690000000  0.4614420000000 1.0
C      1  0.4806050000000  0.5412380000000  0.4729610000000 1.0
C      1  0.4807770000000  0.5263640000000  0.5370060000000 1.0
C      1  0.5045150000000  0.4833550000000  0.4742710000000 1.0
C      1  0.5053080000000  0.5298970000000  0.4819370000000 1.0
C      1  0.5031040000000  0.5153880000000  0.5229540000000 1.0
C      1  0.5050380000000  0.4770940000000  0.5177690000000 1.0
C      1  0.4631800000000  0.5199960000000  0.4639720000000 1.0
C      1  0.4626530000000  0.5391430000000  0.5189350000000 1.0
C      1  0.4630620000000  0.4811630000000  0.5389090000000 1.0
C      1  0.4633110000000  0.4626390000000  0.4812460000000 1.0
C      1  0.4358170000000  0.5674420000000  0.4856220000000 1.0
C      1  0.4349160000000  0.5143480000000  0.5674070000000 1.0
C      1  0.4359830000000  0.4338130000000  0.5148680000000 1.0
C      1  0.4357220000000  0.4860270000000  0.4339960000000 1.0
C      1  0.4859410000000  0.5326560000000  0.4165350000000 1.0
C      1  0.4841960000000  0.5818650000000  0.5321710000000 1.0
C      1  0.4863280000000  0.4676330000000  0.5833170000000 1.0
C      1  0.4859430000000  0.4171100000000  0.4676200000000 1.0
C      1  0.5482480000000  0.4951070000000  0.5258610000000 1.0
C      1  0.5460330000000  0.4782330000000  0.4908040000000 1.0
C      1  0.5465170000000  0.5076870000000  0.4778380000000 1.0
C      1  0.5476040000000  0.5204940000000  0.5070800000000 1.0
C      1  0.4922600000000  0.5040830000000  0.4933690000000 1.0
END
