TITL C-3578195-8548-466 -2.31854947101502e-06 125000 -325.170799418606 0 0 55 (C1) n - 1
REM
REM in /home/bkarasulu/work/CARBON/AIRSS/Generating-Clusters/EDIP-Nigel-Params/with-SteepDescent/Higher-Symm/SD-CG/HFTN-CG
REM
REM
REM
REM
REM
REM ./C.cell (12c818d87b63d06a65506943cc24bca4)
REM
REM compiler GCC version 9.2.1 20190827 (Red Hat 9.2.1-1)
REM options -cpp -mtune=generic -march=x86-64 -g -O0 -fpre-include=/usr/include/finclude/math-vector-fortran.h
REM seed 1372870981 29151667 -505246650 -980790140 -1401361772 1003943399 -1352026921 -1543303647 1833207702 -891459578 1747992740 -1813913142 688831551 -1026170419 -1614501140 -497148815 -26388100 -613151555 2106956997 -915201067 1989584306 2147045507 -1594862239 -167320321 -320338310 1307223444 -1317390019 930694925 -1650140141 -1007452686 1926567737 575910483 -507059955
REM
CELL 1.54180   50.00000   50.00000   50.00000   90.00000   90.00000   90.00000
LATT -1
SFAC C  
C      1  0.4641380000000  0.5434690000000  0.4450690000000 1.0
C      1  0.4624070000000  0.5416300000000  0.5561440000000 1.0
C      1  0.4731960000000  0.5149120000000  0.4503830000000 1.0
C      1  0.4725680000000  0.5140610000000  0.5484720000000 1.0
C      1  0.5758950000000  0.4618350000000  0.5143660000000 1.0
C      1  0.5755690000000  0.4599710000000  0.4864130000000 1.0
C      1  0.5267130000000  0.5493990000000  0.4545060000000 1.0
C      1  0.5246540000000  0.5516990000000  0.5429250000000 1.0
C      1  0.5666880000000  0.5217250000000  0.4643030000000 1.0
C      1  0.5656690000000  0.5248520000000  0.5323820000000 1.0
C      1  0.5725470000000  0.5419420000000  0.5111750000000 1.0
C      1  0.5737230000000  0.5400850000000  0.4843820000000 1.0
C      1  0.4533750000000  0.5545300000000  0.4713020000000 1.0
C      1  0.4513770000000  0.5546430000000  0.5304870000000 1.0
C      1  0.4766050000000  0.4569270000000  0.5212420000000 1.0
C      1  0.4768970000000  0.4569800000000  0.4769910000000 1.0
C      1  0.4678350000000  0.4674430000000  0.5472190000000 1.0
C      1  0.4682400000000  0.4675110000000  0.4509040000000 1.0
C      1  0.4520420000000  0.4924760000000  0.5442680000000 1.0
C      1  0.4528110000000  0.4930040000000  0.4541200000000 1.0
C      1  0.4739600000000  0.4276160000000  0.4840000000000 1.0
C      1  0.4737430000000  0.4276030000000  0.5144060000000 1.0
C      1  0.4898040000000  0.5539490000000  0.5589690000000 1.0
C      1  0.4909560000000  0.5564000000000  0.4420110000000 1.0
C      1  0.5747910000000  0.4977530000000  0.5295760000000 1.0
C      1  0.5750270000000  0.4944710000000  0.4682570000000 1.0
C      1  0.5200850000000  0.5026240000000  0.4678910000000 1.0
C      1  0.5191580000000  0.5044990000000  0.5291840000000 1.0
C      1  0.4944220000000  0.5178790000000  0.4707560000000 1.0
C      1  0.4927360000000  0.5188150000000  0.5271190000000 1.0
C      1  0.5155200000000  0.4756990000000  0.4542440000000 1.0
C      1  0.5148770000000  0.4775150000000  0.5427790000000 1.0
C      1  0.4295870000000  0.4885380000000  0.4846760000000 1.0
C      1  0.4293920000000  0.4885490000000  0.5132320000000 1.0
C      1  0.4237580000000  0.5126040000000  0.5271010000000 1.0
C      1  0.4252090000000  0.5133200000000  0.4720500000000 1.0
C      1  0.5387840000000  0.5230060000000  0.4550140000000 1.0
C      1  0.5375950000000  0.5256200000000  0.5415240000000 1.0
C      1  0.4344980000000  0.5361040000000  0.5145480000000 1.0
C      1  0.4379480000000  0.5346800000000  0.4859280000000 1.0
C      1  0.4749850000000  0.5671940000000  0.4868220000000 1.0
C      1  0.4757380000000  0.5659660000000  0.5159450000000 1.0
C      1  0.4979910000000  0.4139730000000  0.4755660000000 1.0
C      1  0.4975940000000  0.4140080000000  0.5234200000000 1.0
C      1  0.5181380000000  0.4320910000000  0.4845590000000 1.0
C      1  0.5179610000000  0.4320550000000  0.5148120000000 1.0
C      1  0.5010690000000  0.5471650000000  0.4689160000000 1.0
C      1  0.4978690000000  0.5484820000000  0.5303180000000 1.0
C      1  0.4921190000000  0.4755240000000  0.5594130000000 1.0
C      1  0.4927240000000  0.4733460000000  0.4377700000000 1.0
C      1  0.5543480000000  0.4759690000000  0.4755690000000 1.0
C      1  0.5545550000000  0.4786330000000  0.5233250000000 1.0
C      1  0.5073560000000  0.4603990000000  0.4795030000000 1.0
C      1  0.5070320000000  0.4605400000000  0.5184730000000 1.0
C      1  0.5354100000000  0.4865050000000  0.4990950000000 1.0
END
