TITL C-3577076-40-388 0.068995691128813 125000 -526.604512565583 0 0 89 (C1) n - 1
REM
REM in /home/bkarasulu/work/CARBON/AIRSS/Generating-Clusters/EDIP-Nigel-Params/with-SteepDescent/Higher-Symm/SD-CG/HFTN-CG
REM
REM
REM
REM
REM
REM ./C.cell (12c818d87b63d06a65506943cc24bca4)
REM
REM compiler GCC version 9.2.1 20190827 (Red Hat 9.2.1-1)
REM options -cpp -mtune=generic -march=x86-64 -g -O0 -fpre-include=/usr/include/finclude/math-vector-fortran.h
REM seed -220001812 -705486068 -743016902 758163365 -371433560 -616304976 -422524977 1051853006 -911895129 529217063 1118372268 -1370055272 -1154407649 422121276 -176573073 1815961378 -804902260 -52665209 1094716366 594092243 -1612357760 1830199187 1244428081 977941159 2123062273 -2030430451 -17326078 -1926871809 -2145477331 808676849 359599763 -166933379 -16296667
REM
CELL 1.54180   50.00000   50.00000   50.00000   90.00000   90.00000   90.00000
LATT -1
SFAC C  
C      1  0.4223070000000  0.4963920000000  0.4916990000000 1.0
C      1  0.4666510000000  0.4948070000000  0.5684030000000 1.0
C      1  0.5538360000000  0.4954690000000  0.5481330000000 1.0
C      1  0.5691440000000  0.4995540000000  0.4601220000000 1.0
C      1  0.4849790000000  0.4983110000000  0.4303530000000 1.0
C      1  0.5314690000000  0.4453610000000  0.5377220000000 1.0
C      1  0.5421740000000  0.4495390000000  0.4863400000000 1.0
C      1  0.4964760000000  0.4430390000000  0.4483150000000 1.0
C      1  0.4493970000000  0.4445720000000  0.4870620000000 1.0
C      1  0.4705540000000  0.4446660000000  0.5401910000000 1.0
C      1  0.5604940000000  0.4783890000000  0.4430800000000 1.0
C      1  0.4655290000000  0.4776940000000  0.4258370000000 1.0
C      1  0.4147470000000  0.4759630000000  0.5104020000000 1.0
C      1  0.4825440000000  0.4741330000000  0.5806300000000 1.0
C      1  0.5651600000000  0.4734480000000  0.5326220000000 1.0
C      1  0.5315030000000  0.4750670000000  0.4452660000000 1.0
C      1  0.4552670000000  0.4720610000000  0.4528200000000 1.0
C      1  0.4399280000000  0.4727250000000  0.5248900000000 1.0
C      1  0.5036730000000  0.4714270000000  0.5604270000000 1.0
C      1  0.5748400000000  0.4730620000000  0.5053270000000 1.0
C      1  0.4818960000000  0.5198260000000  0.5711320000000 1.0
C      1  0.5609770000000  0.5218620000000  0.5360700000000 1.0
C      1  0.5557840000000  0.5241590000000  0.4527840000000 1.0
C      1  0.4720040000000  0.5236970000000  0.4372320000000 1.0
C      1  0.4250670000000  0.5211620000000  0.5078490000000 1.0
C      1  0.5687450000000  0.5490500000000  0.4942550000000 1.0
C      1  0.5148430000000  0.5460930000000  0.4383980000000 1.0
C      1  0.4409420000000  0.5435120000000  0.4686650000000 1.0
C      1  0.4462290000000  0.5424010000000  0.5463400000000 1.0
C      1  0.5256550000000  0.5403800000000  0.5670300000000 1.0
C      1  0.4673040000000  0.4205590000000  0.4910360000000 1.0
C      1  0.4816330000000  0.4205850000000  0.5274740000000 1.0
C      1  0.5206870000000  0.4209500000000  0.5252390000000 1.0
C      1  0.5292450000000  0.4233360000000  0.4873150000000 1.0
C      1  0.4969250000000  0.4200610000000  0.4659110000000 1.0
C      1  0.4904040000000  0.5396770000000  0.4544570000000 1.0
C      1  0.4487230000000  0.5346270000000  0.4962800000000 1.0
C      1  0.4764070000000  0.5356700000000  0.5464640000000 1.0
C      1  0.5343850000000  0.5357470000000  0.5386880000000 1.0
C      1  0.5634260000000  0.5496570000000  0.4655580000000 1.0
C      1  0.5243650000000  0.4935990000000  0.5600300000000 1.0
C      1  0.5785300000000  0.4987680000000  0.4902700000000 1.0
C      1  0.5153660000000  0.4979190000000  0.4343330000000 1.0
C      1  0.4429820000000  0.4960120000000  0.4678680000000 1.0
C      1  0.4475910000000  0.4947440000000  0.5440140000000 1.0
C      1  0.4810660000000  0.4612700000000  0.4664240000000 1.0
C      1  0.4593260000000  0.4740610000000  0.4996070000000 1.0
C      1  0.4844410000000  0.4724910000000  0.5344490000000 1.0
C      1  0.5277930000000  0.4729490000000  0.5211820000000 1.0
C      1  0.5280070000000  0.4739770000000  0.4754740000000 1.0
C      1  0.5347010000000  0.5626610000000  0.5259910000000 1.0
C      1  0.5536700000000  0.5738520000000  0.4549030000000 1.0
C      1  0.4789880000000  0.5650240000000  0.4623520000000 1.0
C      1  0.4551840000000  0.5587450000000  0.5118190000000 1.0
C      1  0.4924990000000  0.5621290000000  0.5470640000000 1.0
C      1  0.4714070000000  0.5104830000000  0.4980400000000 1.0
C      1  0.4849080000000  0.5106490000000  0.5265260000000 1.0
C      1  0.5160370000000  0.5131600000000  0.5222920000000 1.0
C      1  0.5395400000000  0.4965270000000  0.4925110000000 1.0
C      1  0.4948230000000  0.5180710000000  0.4787810000000 1.0
C      1  0.4390290000000  0.5667740000000  0.5325050000000 1.0
C      1  0.5093680000000  0.5630890000000  0.5699050000000 1.0
C      1  0.5556440000000  0.5689540000000  0.5087400000000 1.0
C      1  0.5296360000000  0.5689760000000  0.4439640000000 1.0
C      1  0.4522270000000  0.5677290000000  0.4597880000000 1.0
C      1  0.5714600000000  0.5230380000000  0.5075490000000 1.0
C      1  0.5310240000000  0.5225960000000  0.4364570000000 1.0
C      1  0.4459610000000  0.5206030000000  0.4516330000000 1.0
C      1  0.4318690000000  0.5183420000000  0.5370830000000 1.0
C      1  0.5120140000000  0.5160980000000  0.5746360000000 1.0
C      1  0.5185290000000  0.4465680000000  0.5626850000000 1.0
C      1  0.5698320000000  0.4502850000000  0.4901350000000 1.0
C      1  0.5204250000000  0.4505040000000  0.4355920000000 1.0
C      1  0.4395450000000  0.4481660000000  0.4596220000000 1.0
C      1  0.4425380000000  0.4469010000000  0.5381930000000 1.0
C      1  0.5073200000000  0.5714800000000  0.5230280000000 1.0
C      1  0.5007720000000  0.4670660000000  0.5105390000000 1.0
C      1  0.4899570000000  0.6424580000000  0.4898120000000 1.0
C      1  0.4959120000000  0.6194140000000  0.5012000000000 1.0
C      1  0.5000900000000  0.3926510000000  0.4994990000000 1.0
C      1  0.4831530000000  0.3423920000000  0.4968990000000 1.0
C      1  0.4990060000000  0.4239970000000  0.5001610000000 1.0
C      1  0.4779560000000  0.6874990000000  0.4668650000000 1.0
C      1  0.5200600000000  0.5199440000000  0.4934440000000 1.0
C      1  0.5023590000000  0.5969380000000  0.5135210000000 1.0
C      1  0.4837820000000  0.6652320000000  0.4780050000000 1.0
C      1  0.4986550000000  0.4786100000000  0.4833410000000 1.0
C      1  0.4906640000000  0.3676620000000  0.4980780000000 1.0
C      1  0.4748240000000  0.3182500000000  0.4956250000000 1.0
END
