TITL C-3577082-504-636 -1.63736864235532e-06 125000 -285.787755644746 0 0 48 (C1) n - 1
REM
REM in /home/bkarasulu/work/CARBON/AIRSS/Generating-Clusters/EDIP-Nigel-Params/with-SteepDescent/Higher-Symm/SD-CG/HFTN-CG
REM
REM
REM
REM
REM
REM ./C.cell (12c818d87b63d06a65506943cc24bca4)
REM
REM compiler GCC version 9.2.1 20190827 (Red Hat 9.2.1-1)
REM options -cpp -mtune=generic -march=x86-64 -g -O0 -fpre-include=/usr/include/finclude/math-vector-fortran.h
REM seed 166042390 291769117 -1709913490 775056230 -1181484922 878920435 -1422625646 1348160391 1059047835 -1061089747 1065789405 823653982 -1996425069 -1663078165 -1253188747 -140388793 -945502422 637240177 137029657 -1996089760 2022175362 -1951339212 385264796 1479522007 224290607 -1312311274 1541490895 1941686369 1730644058 -1585825233 2112793317 -601874079 2050346568
REM
CELL 1.54180   50.00000   50.00000   50.00000   90.00000   90.00000   90.00000
LATT -1
SFAC C  
C      1  0.5706410000000  0.5003230000000  0.4667680000000 1.0
C      1  0.5584520000000  0.4984470000000  0.5419650000000 1.0
C      1  0.4893030000000  0.5012980000000  0.5741090000000 1.0
C      1  0.4341430000000  0.4984220000000  0.5295590000000 1.0
C      1  0.4402290000000  0.5011740000000  0.4607230000000 1.0
C      1  0.5028150000000  0.5013730000000  0.4194470000000 1.0
C      1  0.4956630000000  0.4575610000000  0.5527210000000 1.0
C      1  0.4582300000000  0.5412080000000  0.5255250000000 1.0
C      1  0.4640400000000  0.4602580000000  0.4737270000000 1.0
C      1  0.5034340000000  0.5310050000000  0.4525720000000 1.0
C      1  0.5389860000000  0.4688270000000  0.4773830000000 1.0
C      1  0.5362360000000  0.5391140000000  0.5256730000000 1.0
C      1  0.5056960000000  0.4618510000000  0.4449680000000 1.0
C      1  0.5465490000000  0.5413710000000  0.4797040000000 1.0
C      1  0.5382100000000  0.4543070000000  0.5370490000000 1.0
C      1  0.4937060000000  0.5440880000000  0.5546580000000 1.0
C      1  0.4566510000000  0.4554560000000  0.5198090000000 1.0
C      1  0.4617880000000  0.5440030000000  0.4683280000000 1.0
C      1  0.4722980000000  0.4994780000000  0.4855440000000 1.0
C      1  0.4991620000000  0.5041050000000  0.4681670000000 1.0
C      1  0.5261450000000  0.4962590000000  0.4845640000000 1.0
C      1  0.5262350000000  0.4994650000000  0.5173400000000 1.0
C      1  0.4991910000000  0.4975720000000  0.5348540000000 1.0
C      1  0.4726350000000  0.5025150000000  0.5180510000000 1.0
C      1  0.4857470000000  0.5535770000000  0.4582530000000 1.0
C      1  0.5231850000000  0.4489740000000  0.4620310000000 1.0
C      1  0.5308490000000  0.5503470000000  0.5007850000000 1.0
C      1  0.5148030000000  0.4408960000000  0.5425850000000 1.0
C      1  0.4782850000000  0.5573110000000  0.5362320000000 1.0
C      1  0.4712220000000  0.4478910000000  0.4975280000000 1.0
C      1  0.5477260000000  0.5140620000000  0.4746120000000 1.0
C      1  0.5462830000000  0.4786540000000  0.5268030000000 1.0
C      1  0.5030610000000  0.5183350000000  0.5572490000000 1.0
C      1  0.4558000000000  0.4808110000000  0.5312740000000 1.0
C      1  0.4518360000000  0.5200500000000  0.4774750000000 1.0
C      1  0.4974800000000  0.4878430000000  0.4431540000000 1.0
C      1  0.5650900000000  0.4737440000000  0.4678210000000 1.0
C      1  0.5552180000000  0.5249550000000  0.5383780000000 1.0
C      1  0.4825540000000  0.4761660000000  0.5665620000000 1.0
C      1  0.4370510000000  0.5253250000000  0.5302040000000 1.0
C      1  0.4445010000000  0.4746080000000  0.4621880000000 1.0
C      1  0.5086770000000  0.5270670000000  0.4251370000000 1.0
C      1  0.4984930000000  0.5738500000000  0.4726930000000 1.0
C      1  0.5107290000000  0.4290940000000  0.4770170000000 1.0
C      1  0.5098450000000  0.5699730000000  0.4977650000000 1.0
C      1  0.5048800000000  0.4237790000000  0.5232530000000 1.0
C      1  0.4926530000000  0.5734830000000  0.5191090000000 1.0
C      1  0.4935960000000  0.4297280000000  0.4986830000000 1.0
END
