TITL C-3578202-4305-124 -1.96254046568248e-06 125000 -582.226185083376 0 0 92 (C1) n - 1
REM
REM in /home/bkarasulu/work/CARBON/AIRSS/Generating-Clusters/EDIP-Nigel-Params/with-SteepDescent/Higher-Symm/SD-CG/HFTN-CG
REM
REM
REM
REM
REM
REM ./C.cell (12c818d87b63d06a65506943cc24bca4)
REM
REM compiler GCC version 9.2.1 20190827 (Red Hat 9.2.1-1)
REM options -cpp -mtune=generic -march=x86-64 -g -O0 -fpre-include=/usr/include/finclude/math-vector-fortran.h
REM seed 1980021710 1351054879 243763232 -1034472133 29654437 -1808792564 2146135331 -91731089 -203134488 1606520469 588042271 806371294 -853228677 -1771520391 1922597034 -359984476 241008862 239316479 -488117284 1544291861 1005566610 -852157803 -151985554 1787415331 -771975875 -137699905 -859503620 1724477546 2082668547 63416055 1128013733 1953313265 152797683
REM
CELL 1.54180   50.00000   50.00000   50.00000   90.00000   90.00000   90.00000
LATT -1
SFAC C  
C      1  0.5607370000000  0.4799080000000  0.5584720000000 1.0
C      1  0.5599070000000  0.5597780000000  0.5148650000000 1.0
C      1  0.5622190000000  0.5195230000000  0.4429050000000 1.0
C      1  0.5619170000000  0.4397400000000  0.4862460000000 1.0
C      1  0.4335070000000  0.4449450000000  0.5164720000000 1.0
C      1  0.4301620000000  0.5134350000000  0.5547670000000 1.0
C      1  0.4317430000000  0.5591780000000  0.4796750000000 1.0
C      1  0.4334060000000  0.4855520000000  0.4476820000000 1.0
C      1  0.5752090000000  0.4868670000000  0.4783550000000 1.0
C      1  0.5860580000000  0.4607880000000  0.5228800000000 1.0
C      1  0.5742140000000  0.5130770000000  0.5235030000000 1.0
C      1  0.5859300000000  0.5393080000000  0.4792780000000 1.0
C      1  0.5819380000000  0.5388710000000  0.5096670000000 1.0
C      1  0.5823320000000  0.5130840000000  0.4646730000000 1.0
C      1  0.5832330000000  0.4612090000000  0.4923280000000 1.0
C      1  0.5813190000000  0.4869390000000  0.5373590000000 1.0
C      1  0.4289080000000  0.5602870000000  0.5107650000000 1.0
C      1  0.4316420000000  0.5177320000000  0.4463320000000 1.0
C      1  0.4324050000000  0.4469300000000  0.4851540000000 1.0
C      1  0.4287990000000  0.4817210000000  0.5538090000000 1.0
C      1  0.4997830000000  0.4213540000000  0.4926560000000 1.0
C      1  0.4963850000000  0.4889690000000  0.5820660000000 1.0
C      1  0.4985490000000  0.5778470000000  0.5055400000000 1.0
C      1  0.4985580000000  0.5089560000000  0.4168160000000 1.0
C      1  0.4315610000000  0.4733870000000  0.5253110000000 1.0
C      1  0.4246840000000  0.5272020000000  0.5291460000000 1.0
C      1  0.4270250000000  0.5299960000000  0.4736350000000 1.0
C      1  0.4290300000000  0.4766800000000  0.4763850000000 1.0
C      1  0.5089700000000  0.4647740000000  0.4899220000000 1.0
C      1  0.4986440000000  0.5058830000000  0.5156990000000 1.0
C      1  0.5065590000000  0.5342690000000  0.5094440000000 1.0
C      1  0.5005040000000  0.4929710000000  0.4846750000000 1.0
C      1  0.5148940000000  0.5092030000000  0.5700000000000 1.0
C      1  0.5192620000000  0.5763180000000  0.4840200000000 1.0
C      1  0.5182600000000  0.4895310000000  0.4287230000000 1.0
C      1  0.5197180000000  0.4226610000000  0.5149810000000 1.0
C      1  0.4582770000000  0.5268390000000  0.4360110000000 1.0
C      1  0.4580600000000  0.4334780000000  0.4753980000000 1.0
C      1  0.4535100000000  0.4708970000000  0.5689660000000 1.0
C      1  0.4544500000000  0.5722790000000  0.5215810000000 1.0
C      1  0.5475890000000  0.4500950000000  0.4621070000000 1.0
C      1  0.5559370000000  0.4522730000000  0.5595020000000 1.0
C      1  0.5448540000000  0.5490280000000  0.5382900000000 1.0
C      1  0.5570090000000  0.5470700000000  0.4415380000000 1.0
C      1  0.4754970000000  0.5424180000000  0.5639430000000 1.0
C      1  0.4779760000000  0.5726080000000  0.4509790000000 1.0
C      1  0.4791290000000  0.4555670000000  0.4333780000000 1.0
C      1  0.4770330000000  0.4262700000000  0.5466290000000 1.0
C      1  0.5305220000000  0.5303170000000  0.4920090000000 1.0
C      1  0.5198660000000  0.5133730000000  0.4699520000000 1.0
C      1  0.5321330000000  0.4693170000000  0.5079760000000 1.0
C      1  0.5198380000000  0.4858010000000  0.5299440000000 1.0
C      1  0.4675520000000  0.4945820000000  0.5792390000000 1.0
C      1  0.4706450000000  0.5816940000000  0.4990350000000 1.0
C      1  0.4707200000000  0.5035930000000  0.4242550000000 1.0
C      1  0.4712690000000  0.4203340000000  0.4978330000000 1.0
C      1  0.4630970000000  0.5645750000000  0.4763910000000 1.0
C      1  0.4646450000000  0.4810670000000  0.4428490000000 1.0
C      1  0.4634770000000  0.4356890000000  0.5211430000000 1.0
C      1  0.4606300000000  0.5157200000000  0.5595840000000 1.0
C      1  0.4762570000000  0.4309610000000  0.4512740000000 1.0
C      1  0.4731250000000  0.4466870000000  0.5692790000000 1.0
C      1  0.4734170000000  0.5673330000000  0.5451540000000 1.0
C      1  0.4733670000000  0.5519560000000  0.4290190000000 1.0
C      1  0.4518160000000  0.5284150000000  0.5167890000000 1.0
C      1  0.4521650000000  0.5206460000000  0.4882910000000 1.0
C      1  0.4536920000000  0.4908200000000  0.4878890000000 1.0
C      1  0.4591750000000  0.4819400000000  0.5161820000000 1.0
C      1  0.5645370000000  0.4427810000000  0.5344090000000 1.0
C      1  0.5541100000000  0.5216860000000  0.5421740000000 1.0
C      1  0.5644720000000  0.5567450000000  0.4669370000000 1.0
C      1  0.5559050000000  0.4779200000000  0.4589580000000 1.0
C      1  0.4996280000000  0.4611660000000  0.5715900000000 1.0
C      1  0.5012470000000  0.5744000000000  0.5346880000000 1.0
C      1  0.5004740000000  0.5373060000000  0.4262380000000 1.0
C      1  0.5039520000000  0.4239780000000  0.4634610000000 1.0
C      1  0.5177960000000  0.4502040000000  0.4625060000000 1.0
C      1  0.5025900000000  0.4620710000000  0.5400690000000 1.0
C      1  0.5150880000000  0.5484940000000  0.5366930000000 1.0
C      1  0.5008280000000  0.5350600000000  0.4589820000000 1.0
C      1  0.5039300000000  0.5352140000000  0.5613000000000 1.0
C      1  0.5073030000000  0.5725300000000  0.4575240000000 1.0
C      1  0.5078450000000  0.4627950000000  0.4367030000000 1.0
C      1  0.5064810000000  0.4239040000000  0.5410530000000 1.0
C      1  0.5375920000000  0.4989740000000  0.5524040000000 1.0
C      1  0.5433290000000  0.5573150000000  0.4889330000000 1.0
C      1  0.5390930000000  0.5003610000000  0.4482460000000 1.0
C      1  0.5442610000000  0.4420060000000  0.5115440000000 1.0
C      1  0.4808160000000  0.4598700000000  0.5161800000000 1.0
C      1  0.4698580000000  0.5069610000000  0.5296390000000 1.0
C      1  0.4785520000000  0.5384420000000  0.4827450000000 1.0
C      1  0.4756110000000  0.4873060000000  0.4704080000000 1.0
END
