TITL C-3578207-9274-210 -4.11945863805944e-06 125000 -715.076416823526 0 0 115 (C1) n - 1
REM
REM in /home/bkarasulu/work/CARBON/AIRSS/Generating-Clusters/EDIP-Nigel-Params/with-SteepDescent/Higher-Symm/SD-CG/HFTN-CG
REM
REM
REM
REM
REM
REM ./C.cell (12c818d87b63d06a65506943cc24bca4)
REM
REM compiler GCC version 9.2.1 20190827 (Red Hat 9.2.1-1)
REM options -cpp -mtune=generic -march=x86-64 -g -O0 -fpre-include=/usr/include/finclude/math-vector-fortran.h
REM seed 342414326 -2146004713 -855294898 907656564 1507030121 574058711 496559497 1903665745 -1041010877 -2072059716 930748624 1195927709 823139759 2061319240 -497614515 -2089411576 -881535415 1974091965 -1762659627 -1724338504 535476490 302364727 2081870195 616675056 81528933 1207512780 -398983557 -134591993 -756728706 -812769522 -1709501614 1161180563 150882498
REM
CELL 1.54180   50.00000   50.00000   50.00000   90.00000   90.00000   90.00000
LATT -1
SFAC C  
C      1  0.4671290000000  0.5257880000000  0.5268260000000 1.0
C      1  0.5152090000000  0.5078310000000  0.5432580000000 1.0
C      1  0.5467830000000  0.5145290000000  0.5016540000000 1.0
C      1  0.5164830000000  0.5080380000000  0.4555890000000 1.0
C      1  0.4694450000000  0.5246900000000  0.4780750000000 1.0
C      1  0.5309200000000  0.5263020000000  0.5249800000000 1.0
C      1  0.4829770000000  0.5081720000000  0.5466080000000 1.0
C      1  0.4538140000000  0.5151840000000  0.5025110000000 1.0
C      1  0.4824920000000  0.5075150000000  0.4558250000000 1.0
C      1  0.5316360000000  0.5248930000000  0.4770850000000 1.0
C      1  0.5564460000000  0.4827900000000  0.5014850000000 1.0
C      1  0.5234610000000  0.4789530000000  0.4602320000000 1.0
C      1  0.4498020000000  0.4742550000000  0.4766270000000 1.0
C      1  0.4625400000000  0.4674400000000  0.5213190000000 1.0
C      1  0.5215770000000  0.4797360000000  0.5360500000000 1.0
C      1  0.4481580000000  0.4854070000000  0.5041320000000 1.0
C      1  0.4754390000000  0.4790720000000  0.4628550000000 1.0
C      1  0.5422380000000  0.4686810000000  0.4799140000000 1.0
C      1  0.5474180000000  0.4716080000000  0.5277920000000 1.0
C      1  0.4727250000000  0.4792750000000  0.5446670000000 1.0
C      1  0.4827750000000  0.4579200000000  0.4433640000000 1.0
C      1  0.4242270000000  0.4417720000000  0.5042860000000 1.0
C      1  0.4842230000000  0.4566360000000  0.5596470000000 1.0
C      1  0.5531770000000  0.4445080000000  0.5354780000000 1.0
C      1  0.5598910000000  0.4467890000000  0.4715740000000 1.0
C      1  0.5139350000000  0.4586260000000  0.4403340000000 1.0
C      1  0.5715990000000  0.4350830000000  0.4966030000000 1.0
C      1  0.5135330000000  0.4564330000000  0.5522460000000 1.0
C      1  0.4461580000000  0.4427040000000  0.5251930000000 1.0
C      1  0.4375580000000  0.4455340000000  0.4765050000000 1.0
C      1  0.5887510000000  0.4796370000000  0.5412230000000 1.0
C      1  0.5615410000000  0.4746550000000  0.4242110000000 1.0
C      1  0.4656740000000  0.4594580000000  0.4180950000000 1.0
C      1  0.4052870000000  0.4628660000000  0.5135390000000 1.0
C      1  0.4782080000000  0.4590850000000  0.5884150000000 1.0
C      1  0.4218540000000  0.4795120000000  0.5326760000000 1.0
C      1  0.4386740000000  0.4724180000000  0.4237310000000 1.0
C      1  0.5399930000000  0.4592890000000  0.4123710000000 1.0
C      1  0.5894140000000  0.4607820000000  0.5185340000000 1.0
C      1  0.5135650000000  0.4729910000000  0.5877210000000 1.0
C      1  0.4527440000000  0.4726660000000  0.5904330000000 1.0
C      1  0.5768290000000  0.4777040000000  0.5688550000000 1.0
C      1  0.5794250000000  0.4686290000000  0.4467620000000 1.0
C      1  0.4804460000000  0.4735670000000  0.3970120000000 1.0
C      1  0.3950730000000  0.4798200000000  0.4935610000000 1.0
C      1  0.5443510000000  0.4761190000000  0.5891200000000 1.0
C      1  0.4258710000000  0.4766470000000  0.5641150000000 1.0
C      1  0.4226650000000  0.4687470000000  0.4496470000000 1.0
C      1  0.5182400000000  0.4726300000000  0.3994010000000 1.0
C      1  0.5930450000000  0.4730210000000  0.4933460000000 1.0
C      1  0.5350710000000  0.5551370000000  0.4748390000000 1.0
C      1  0.4847330000000  0.5675170000000  0.4572850000000 1.0
C      1  0.4595000000000  0.5685170000000  0.5017520000000 1.0
C      1  0.4866530000000  0.5628770000000  0.5460090000000 1.0
C      1  0.5353110000000  0.5568330000000  0.5280320000000 1.0
C      1  0.4646430000000  0.5541940000000  0.4752240000000 1.0
C      1  0.5140160000000  0.5682240000000  0.4575960000000 1.0
C      1  0.5416910000000  0.5689030000000  0.5011910000000 1.0
C      1  0.5138780000000  0.5709290000000  0.5442160000000 1.0
C      1  0.4639160000000  0.5556500000000  0.5288580000000 1.0
C      1  0.5162240000000  0.5464510000000  0.5866700000000 1.0
C      1  0.5864970000000  0.5495570000000  0.5124510000000 1.0
C      1  0.5375410000000  0.5443360000000  0.4219880000000 1.0
C      1  0.4354040000000  0.5449030000000  0.4371090000000 1.0
C      1  0.4198290000000  0.5496450000000  0.5425690000000 1.0
C      1  0.4856670000000  0.5442150000000  0.5862990000000 1.0
C      1  0.4141670000000  0.5502210000000  0.5123440000000 1.0
C      1  0.4616040000000  0.5432950000000  0.4218350000000 1.0
C      1  0.5635470000000  0.5455060000000  0.4379150000000 1.0
C      1  0.5807620000000  0.5497560000000  0.5426310000000 1.0
C      1  0.5495440000000  0.4161670000000  0.5017220000000 1.0
C      1  0.5179720000000  0.4308270000000  0.4514580000000 1.0
C      1  0.4599060000000  0.4252660000000  0.4741950000000 1.0
C      1  0.4624760000000  0.4179400000000  0.5246370000000 1.0
C      1  0.5106490000000  0.4325900000000  0.5336910000000 1.0
C      1  0.4667080000000  0.4113000000000  0.4974830000000 1.0
C      1  0.4810180000000  0.4310330000000  0.4558410000000 1.0
C      1  0.5421670000000  0.4242240000000  0.4649840000000 1.0
C      1  0.5375290000000  0.4223680000000  0.5274580000000 1.0
C      1  0.4851850000000  0.4220630000000  0.5423530000000 1.0
C      1  0.4854190000000  0.5023690000000  0.4018950000000 1.0
C      1  0.4040790000000  0.5041790000000  0.4827200000000 1.0
C      1  0.4526030000000  0.5021330000000  0.5891930000000 1.0
C      1  0.5745940000000  0.5060850000000  0.5761270000000 1.0
C      1  0.5864920000000  0.4961120000000  0.4560360000000 1.0
C      1  0.5143100000000  0.5014240000000  0.4030680000000 1.0
C      1  0.5935080000000  0.4999050000000  0.4843440000000 1.0
C      1  0.5496840000000  0.5048490000000  0.5911310000000 1.0
C      1  0.4274590000000  0.5048550000000  0.5735650000000 1.0
C      1  0.4178510000000  0.4976390000000  0.4581250000000 1.0
C      1  0.5612090000000  0.5612590000000  0.4619490000000 1.0
C      1  0.4804050000000  0.5641920000000  0.4289300000000 1.0
C      1  0.4302060000000  0.5704890000000  0.4983590000000 1.0
C      1  0.4734800000000  0.5658440000000  0.5713970000000 1.0
C      1  0.5574370000000  0.5651210000000  0.5474410000000 1.0
C      1  0.4376940000000  0.5576240000000  0.4631600000000 1.0
C      1  0.5188690000000  0.5654100000000  0.4291040000000 1.0
C      1  0.5708660000000  0.5697800000000  0.4980470000000 1.0
C      1  0.5268790000000  0.5687330000000  0.5704210000000 1.0
C      1  0.4426090000000  0.5657040000000  0.5481760000000 1.0
C      1  0.4259640000000  0.5219670000000  0.5498350000000 1.0
C      1  0.5253210000000  0.5182150000000  0.5795760000000 1.0
C      1  0.5809530000000  0.5193960000000  0.5049250000000 1.0
C      1  0.5289280000000  0.5147120000000  0.4254730000000 1.0
C      1  0.4239510000000  0.5169200000000  0.4369900000000 1.0
C      1  0.5760000000000  0.5223560000000  0.5516630000000 1.0
C      1  0.4787270000000  0.5147400000000  0.5776700000000 1.0
C      1  0.4200030000000  0.5207420000000  0.5036460000000 1.0
C      1  0.4694760000000  0.5137440000000  0.4247900000000 1.0
C      1  0.5719800000000  0.5173210000000  0.4425110000000 1.0
C      1  0.5564460000000  0.5031710000000  0.4236720000000 1.0
C      1  0.5033290000000  0.5009590000000  0.5887560000000 1.0
C      1  0.4419430000000  0.5016690000000  0.4201230000000 1.0
C      1  0.4135620000000  0.5073660000000  0.5292710000000 1.0
C      1  0.5885380000000  0.5072060000000  0.5317930000000 1.0
END
