TITL C-3577079-311-195 -1.04295521622398e-06 125000 -386.658254160436 0 0 64 (C2) n - 1
REM
REM in /home/bkarasulu/work/CARBON/AIRSS/Generating-Clusters/EDIP-Nigel-Params/with-SteepDescent/Higher-Symm/SD-CG/HFTN-CG
REM
REM
REM
REM
REM
REM ./C.cell (12c818d87b63d06a65506943cc24bca4)
REM
REM compiler GCC version 9.2.1 20190827 (Red Hat 9.2.1-1)
REM options -cpp -mtune=generic -march=x86-64 -g -O0 -fpre-include=/usr/include/finclude/math-vector-fortran.h
REM seed 123577090 1419721827 987219349 -2069319880 -2108819302 650493798 1407858921 70354316 -404867141 1629203585 265594863 220557791 -1672292386 2019198674 71727248 484423025 1351513810 -1326939417 -2007750740 640687511 -393223226 1302785012 -923498065 -142766986 1927912112 -231883469 381307620 1115664887 -1609211809 623475215 1637040407 -1243246112 1462097848
REM
CELL 1.54180   50.00000   50.00000   50.00000   90.00000   90.00000   90.00000
LATT -1
SFAC C  
C      1  0.4647030000000  0.4925100000000  0.5579370000000 1.0
C      1  0.5353040000000  0.5074900000000  0.5579320000000 1.0
C      1  0.5196140000000  0.4775640000000  0.5069000000000 1.0
C      1  0.4803870000000  0.5224360000000  0.5069020000000 1.0
C      1  0.5742860000000  0.5076530000000  0.4824190000000 1.0
C      1  0.4257120000000  0.4923470000000  0.4824280000000 1.0
C      1  0.4895390000000  0.5719010000000  0.5088690000000 1.0
C      1  0.5104620000000  0.4280990000000  0.5088670000000 1.0
C      1  0.4869100000000  0.4824900000000  0.4777120000000 1.0
C      1  0.5130880000000  0.5175100000000  0.4777100000000 1.0
C      1  0.5192100000000  0.4462750000000  0.4651780000000 1.0
C      1  0.4807860000000  0.5537250000000  0.4651810000000 1.0
C      1  0.4981230000000  0.4372230000000  0.4843230000000 1.0
C      1  0.5018750000000  0.5627770000000  0.4843230000000 1.0
C      1  0.5371720000000  0.5102310000000  0.4393530000000 1.0
C      1  0.4628200000000  0.4897690000000  0.4393570000000 1.0
C      1  0.5027180000000  0.4634410000000  0.5532400000000 1.0
C      1  0.4972890000000  0.5365590000000  0.5532400000000 1.0
C      1  0.4685760000000  0.5401810000000  0.5452920000000 1.0
C      1  0.5314300000000  0.4598190000000  0.5452880000000 1.0
C      1  0.4388980000000  0.5287900000000  0.4787660000000 1.0
C      1  0.5610990000000  0.4712100000000  0.4787590000000 1.0
C      1  0.5745910000000  0.4725180000000  0.5040110000000 1.0
C      1  0.4254090000000  0.5274820000000  0.5040200000000 1.0
C      1  0.4488800000000  0.4522940000000  0.4603610000000 1.0
C      1  0.5511150000000  0.5477070000000  0.4603550000000 1.0
C      1  0.5434610000000  0.5512280000000  0.5380390000000 1.0
C      1  0.4565430000000  0.4487720000000  0.5380440000000 1.0
C      1  0.5681940000000  0.5225350000000  0.4584750000000 1.0
C      1  0.4318010000000  0.4774650000000  0.4584830000000 1.0
C      1  0.5169000000000  0.4653110000000  0.4433960000000 1.0
C      1  0.4830940000000  0.5346890000000  0.4433980000000 1.0
C      1  0.5430730000000  0.4486530000000  0.4827740000000 1.0
C      1  0.4569250000000  0.5513470000000  0.4827790000000 1.0
C      1  0.5168470000000  0.5573500000000  0.5456750000000 1.0
C      1  0.4831590000000  0.4426490000000  0.5456770000000 1.0
C      1  0.5462460000000  0.5399560000000  0.5112180000000 1.0
C      1  0.4537560000000  0.4600440000000  0.5112230000000 1.0
C      1  0.4486500000000  0.4398690000000  0.4892210000000 1.0
C      1  0.5513490000000  0.5601310000000  0.4892140000000 1.0
C      1  0.4355590000000  0.5086310000000  0.5225330000000 1.0
C      1  0.5644440000000  0.4913690000000  0.5225260000000 1.0
C      1  0.5277540000000  0.5732960000000  0.4784020000000 1.0
C      1  0.4722440000000  0.4267040000000  0.4784060000000 1.0
C      1  0.4336500000000  0.4825850000000  0.5091380000000 1.0
C      1  0.5663510000000  0.5174150000000  0.5091300000000 1.0
C      1  0.5241800000000  0.4879210000000  0.4784060000000 1.0
C      1  0.4758180000000  0.5120790000000  0.4784090000000 1.0
C      1  0.4517290000000  0.5156160000000  0.5467180000000 1.0
C      1  0.5482770000000  0.4843840000000  0.5467120000000 1.0
C      1  0.4917030000000  0.4876130000000  0.5667350000000 1.0
C      1  0.5083050000000  0.5123870000000  0.5667340000000 1.0
C      1  0.4844890000000  0.4966520000000  0.5246660000000 1.0
C      1  0.5155140000000  0.5033480000000  0.5246640000000 1.0
C      1  0.5257990000000  0.5321760000000  0.4541510000000 1.0
C      1  0.4741960000000  0.4678240000000  0.4541540000000 1.0
C      1  0.4864060000000  0.5068140000000  0.4362490000000 1.0
C      1  0.5135860000000  0.4931860000000  0.4362470000000 1.0
C      1  0.5053610000000  0.5777780000000  0.5308850000000 1.0
C      1  0.4946420000000  0.4222220000000  0.5308860000000 1.0
C      1  0.4670730000000  0.5527980000000  0.5128210000000 1.0
C      1  0.5329280000000  0.4472020000000  0.5128170000000 1.0
C      1  0.4812200000000  0.4719460000000  0.5061360000000 1.0
C      1  0.5187810000000  0.5280540000000  0.5061340000000 1.0
END
