TITL C-3577091-527-555 0.0236123779833967 125000 -94.8043675328423 0 0 17 (C1) n - 1
REM
REM in /home/bkarasulu/work/CARBON/AIRSS/Generating-Clusters/EDIP-Nigel-Params/with-SteepDescent/Higher-Symm/SD-CG/HFTN-CG
REM
REM
REM
REM
REM
REM ./C.cell (12c818d87b63d06a65506943cc24bca4)
REM
REM compiler GCC version 9.2.1 20190827 (Red Hat 9.2.1-1)
REM options -cpp -mtune=generic -march=x86-64 -g -O0 -fpre-include=/usr/include/finclude/math-vector-fortran.h
REM seed 220858508 979359480 43267734 769258251 1398207623 1362274576 -500139032 -338827417 1480638573 1035797314 1842909029 1475398671 -1386129601 -316369056 46088454 1952515082 -148717588 1285517230 932715281 -1274717930 1775270714 -510617719 -1745824193 -1239924567 1906682660 -40932283 489630413 -418378228 -8967141 1227691133 1158493148 1703422633 16836489
REM
CELL 1.54180   50.00000   50.00000   50.00000   90.00000   90.00000   90.00000
LATT -1
SFAC C  
C      1  0.4219450000000  0.5338560000000  0.4904960000000 1.0
C      1  0.4028310000000  0.5163990000000  0.4797200000000 1.0
C      1  0.4073970000000  0.4891080000000  0.4757000000000 1.0
C      1  0.4272970000000  0.4764310000000  0.4924460000000 1.0
C      1  0.4541980000000  0.4795340000000  0.4852150000000 1.0
C      1  0.4443630000000  0.5216530000000  0.5047900000000 1.0
C      1  0.6046100000000  0.4857150000000  0.5237090000000 1.0
C      1  0.5862240000000  0.5071480000000  0.5266930000000 1.0
C      1  0.5677940000000  0.5012040000000  0.5057230000000 1.0
C      1  0.5393680000000  0.5040490000000  0.5102620000000 1.0
C      1  0.5283560000000  0.5298850000000  0.5161660000000 1.0
C      1  0.6045310000000  0.4685370000000  0.5020790000000 1.0
C      1  0.5171240000000  0.5165550000000  0.4933990000000 1.0
C      1  0.4633910000000  0.5058610000000  0.4890710000000 1.0
C      1  0.4224840000000  0.5001870000000  0.5112170000000 1.0
C      1  0.5785140000000  0.4759770000000  0.4966640000000 1.0
C      1  0.4902320000000  0.5102330000000  0.4933470000000 1.0
END
