TITL C-3578199-7832-202 8.19040820213506e-08 125000 -151.129153223868 0 0 26 (C3) n - 1
REM
REM in /home/bkarasulu/work/CARBON/AIRSS/Generating-Clusters/EDIP-Nigel-Params/with-SteepDescent/Higher-Symm/SD-CG/HFTN-CG
REM
REM
REM
REM
REM
REM ./C.cell (12c818d87b63d06a65506943cc24bca4)
REM
REM compiler GCC version 9.2.1 20190827 (Red Hat 9.2.1-1)
REM options -cpp -mtune=generic -march=x86-64 -g -O0 -fpre-include=/usr/include/finclude/math-vector-fortran.h
REM seed -1025508977 -177000967 1955865790 -1089401661 1343291270 -1439473288 -1630211647 239591012 -657159550 1013931979 -2101634913 1776613427 225377651 -1266813667 -588505312 186113807 -670213556 -901393228 -586047851 2082347370 -94724202 -72677782 -343214273 786824561 997325395 1959367122 473995925 -1851540203 1587386640 -629895982 -1724961539 -315028982 1381210540
REM
CELL 1.54180   50.00000   50.00000   50.00000   90.00000   90.00000   90.00000
LATT -1
SFAC C  
C      1  0.5030750000000  0.5098080000000  0.4387580000000 1.0
C      1  0.5029600000000  0.5458340000000  0.5424970000000 1.0
C      1  0.5031170000000  0.4379810000000  0.5218270000000 1.0
C      1  0.5116490000000  0.5539380000000  0.4946010000000 1.0
C      1  0.5117160000000  0.4754300000000  0.5527920000000 1.0
C      1  0.5117940000000  0.4642890000000  0.4557070000000 1.0
C      1  0.4735610000000  0.5193160000000  0.4766610000000 1.0
C      1  0.4735400000000  0.5081800000000  0.5317840000000 1.0
C      1  0.4736200000000  0.4660090000000  0.4945790000000 1.0
C      1  0.4582410000000  0.4777120000000  0.5165450000000 1.0
C      1  0.4582460000000  0.4944020000000  0.4758150000000 1.0
C      1  0.4581870000000  0.5213300000000  0.5106340000000 1.0
C      1  0.5061560000000  0.5597730000000  0.5199880000000 1.0
C      1  0.5062860000000  0.4505120000000  0.5451520000000 1.0
C      1  0.5063120000000  0.4833500000000  0.4379470000000 1.0
C      1  0.5436540000000  0.4997840000000  0.5282110000000 1.0
C      1  0.5437150000000  0.4734820000000  0.4890820000000 1.0
C      1  0.5436540000000  0.5205200000000  0.4858690000000 1.0
C      1  0.5003610000000  0.4570760000000  0.5015070000000 1.0
C      1  0.5003040000000  0.5178510000000  0.4654560000000 1.0
C      1  0.5002560000000  0.5186850000000  0.5361140000000 1.0
C      1  0.5210520000000  0.5345370000000  0.4772430000000 1.0
C      1  0.5210530000000  0.5001870000000  0.5446670000000 1.0
C      1  0.5211500000000  0.4589710000000  0.4812070000000 1.0
C      1  0.5496910000000  0.4979360000000  0.5010580000000 1.0
C      1  0.4434340000000  0.4977950000000  0.5009880000000 1.0
END
