TITL C-3577081-279-123 -2.18412475311558e-06 125000 -521.79296580076 0 0 85 (C1) n - 1
REM
REM in /home/bkarasulu/work/CARBON/AIRSS/Generating-Clusters/EDIP-Nigel-Params/with-SteepDescent/Higher-Symm/SD-CG/HFTN-CG
REM
REM
REM
REM
REM
REM ./C.cell (12c818d87b63d06a65506943cc24bca4)
REM
REM compiler GCC version 9.2.1 20190827 (Red Hat 9.2.1-1)
REM options -cpp -mtune=generic -march=x86-64 -g -O0 -fpre-include=/usr/include/finclude/math-vector-fortran.h
REM seed -838929149 -1874277663 770359564 -1100065576 -699685618 -2095722290 894866680 -1509615011 -1925249400 -380190957 1247121383 2061415127 -99161291 -68789173 -1747538635 528991413 1108976658 2045025798 2074896151 1963977811 -206788658 1262515938 -1573056604 -577727596 1263586630 1098508927 -679766333 55909325 22215375 1258743676 1835420810 1068400290 1954431715
REM
CELL 1.54180   50.00000   50.00000   50.00000   90.00000   90.00000   90.00000
LATT -1
SFAC C  
C      1  0.4612980000000  0.5374700000000  0.4315410000000 1.0
C      1  0.4997570000000  0.5811570000000  0.4702830000000 1.0
C      1  0.4947730000000  0.5948570000000  0.5007800000000 1.0
C      1  0.5145560000000  0.5384540000000  0.5555800000000 1.0
C      1  0.4534120000000  0.5577580000000  0.4535310000000 1.0
C      1  0.5728300000000  0.5229150000000  0.5092380000000 1.0
C      1  0.4485510000000  0.5422720000000  0.5042040000000 1.0
C      1  0.5294730000000  0.5173650000000  0.5126830000000 1.0
C      1  0.4775340000000  0.5093610000000  0.4689760000000 1.0
C      1  0.5115400000000  0.5328440000000  0.4531820000000 1.0
C      1  0.5094910000000  0.4433320000000  0.4471100000000 1.0
C      1  0.5191950000000  0.4713200000000  0.5033690000000 1.0
C      1  0.5638310000000  0.4624710000000  0.4501320000000 1.0
C      1  0.4776810000000  0.5024880000000  0.5626800000000 1.0
C      1  0.4535960000000  0.4845950000000  0.5674200000000 1.0
C      1  0.5654690000000  0.5265660000000  0.5563990000000 1.0
C      1  0.4392800000000  0.5400570000000  0.4744340000000 1.0
C      1  0.4940170000000  0.4584080000000  0.4923050000000 1.0
C      1  0.5228170000000  0.5648120000000  0.5450600000000 1.0
C      1  0.4719360000000  0.3971040000000  0.4965670000000 1.0
C      1  0.5685670000000  0.4773520000000  0.4946150000000 1.0
C      1  0.4372790000000  0.4821460000000  0.4926170000000 1.0
C      1  0.5447560000000  0.5605080000000  0.5245630000000 1.0
C      1  0.4535560000000  0.4586300000000  0.5525820000000 1.0
C      1  0.5645940000000  0.4956040000000  0.5164050000000 1.0
C      1  0.5231560000000  0.4573700000000  0.4269520000000 1.0
C      1  0.4729720000000  0.5688450000000  0.4728620000000 1.0
C      1  0.5472550000000  0.5019620000000  0.4339810000000 1.0
C      1  0.4993310000000  0.5559260000000  0.5053050000000 1.0
C      1  0.5672800000000  0.5412440000000  0.5320530000000 1.0
C      1  0.5736450000000  0.4849310000000  0.4669370000000 1.0
C      1  0.4536610000000  0.4093500000000  0.4813290000000 1.0
C      1  0.5530210000000  0.4418670000000  0.4694420000000 1.0
C      1  0.5111260000000  0.4663330000000  0.5711880000000 1.0
C      1  0.5200650000000  0.4152530000000  0.4880970000000 1.0
C      1  0.4938260000000  0.4913340000000  0.4518250000000 1.0
C      1  0.4676100000000  0.5280100000000  0.5472900000000 1.0
C      1  0.4308510000000  0.4559440000000  0.5330110000000 1.0
C      1  0.5628590000000  0.4389680000000  0.5180800000000 1.0
C      1  0.4743910000000  0.4455420000000  0.5111770000000 1.0
C      1  0.4429630000000  0.4700530000000  0.4464810000000 1.0
C      1  0.5278430000000  0.5102100000000  0.5775890000000 1.0
C      1  0.4887310000000  0.4599870000000  0.4622280000000 1.0
C      1  0.5505840000000  0.4826150000000  0.5418210000000 1.0
C      1  0.4781050000000  0.4565930000000  0.5381380000000 1.0
C      1  0.4432670000000  0.4532300000000  0.5023350000000 1.0
C      1  0.5214530000000  0.4393990000000  0.5338390000000 1.0
C      1  0.5532460000000  0.5027520000000  0.5653100000000 1.0
C      1  0.5346660000000  0.5192120000000  0.4147050000000 1.0
C      1  0.4347410000000  0.4896630000000  0.4644290000000 1.0
C      1  0.4373820000000  0.5246670000000  0.5473290000000 1.0
C      1  0.5283850000000  0.4268220000000  0.4636230000000 1.0
C      1  0.4857630000000  0.5084250000000  0.4963390000000 1.0
C      1  0.5212710000000  0.5043350000000  0.4629350000000 1.0
C      1  0.5211940000000  0.5615160000000  0.4633580000000 1.0
C      1  0.4715410000000  0.5718410000000  0.5404980000000 1.0
C      1  0.4780720000000  0.5321940000000  0.5128180000000 1.0
C      1  0.4985890000000  0.5762940000000  0.5288670000000 1.0
C      1  0.4286940000000  0.4984110000000  0.5586100000000 1.0
C      1  0.4286460000000  0.5259700000000  0.5197520000000 1.0
C      1  0.4637840000000  0.5865690000000  0.4953360000000 1.0
C      1  0.5148410000000  0.5004270000000  0.4930600000000 1.0
C      1  0.5495550000000  0.5673670000000  0.4718600000000 1.0
C      1  0.4209670000000  0.4980690000000  0.5113850000000 1.0
C      1  0.4519080000000  0.5706300000000  0.5171520000000 1.0
C      1  0.5040480000000  0.4933990000000  0.5748050000000 1.0
C      1  0.4163380000000  0.4820600000000  0.5360860000000 1.0
C      1  0.5121940000000  0.4173380000000  0.5151520000000 1.0
C      1  0.5204250000000  0.4837820000000  0.5351240000000 1.0
C      1  0.5701390000000  0.5291090000000  0.4812400000000 1.0
C      1  0.4499740000000  0.5149820000000  0.4598430000000 1.0
C      1  0.5014640000000  0.4481750000000  0.5522960000000 1.0
C      1  0.5120850000000  0.5332000000000  0.4229540000000 1.0
C      1  0.5647540000000  0.5115330000000  0.4590460000000 1.0
C      1  0.5509110000000  0.4548450000000  0.4964340000000 1.0
C      1  0.5281620000000  0.5462420000000  0.5042530000000 1.0
C      1  0.4826130000000  0.4161150000000  0.5142680000000 1.0
C      1  0.5468040000000  0.4723430000000  0.4283440000000 1.0
C      1  0.4852450000000  0.5200440000000  0.4269260000000 1.0
C      1  0.4597430000000  0.4498880000000  0.4557910000000 1.0
C      1  0.5488980000000  0.4497090000000  0.5401380000000 1.0
C      1  0.4446660000000  0.4352530000000  0.4770320000000 1.0
C      1  0.4708540000000  0.5528710000000  0.5613660000000 1.0
C      1  0.5114070000000  0.5155340000000  0.5369710000000 1.0
C      1  0.5422470000000  0.5736030000000  0.4463450000000 1.0
END
