TITL C-3578204-4308-192 -4.73543927941352e-06 125000 -511.625884190823 0 0 83 (C1) n - 1
REM
REM in /home/bkarasulu/work/CARBON/AIRSS/Generating-Clusters/EDIP-Nigel-Params/with-SteepDescent/Higher-Symm/SD-CG/HFTN-CG
REM
REM
REM
REM
REM
REM ./C.cell (12c818d87b63d06a65506943cc24bca4)
REM
REM compiler GCC version 9.2.1 20190827 (Red Hat 9.2.1-1)
REM options -cpp -mtune=generic -march=x86-64 -g -O0 -fpre-include=/usr/include/finclude/math-vector-fortran.h
REM seed 967300321 486638822 327486199 -634335678 -1881062618 -729674493 -1223588640 534701472 -679669182 1239823357 1059179601 1445957936 991505729 -600266299 -584034355 -1630696861 -1499632759 -359920479 1517196053 1622157332 -483728528 -946238681 818888290 -991019485 -518019269 -1116827208 -1424388239 -1070865501 -1505357870 889651557 2008494283 1896247197 -565338959
REM
CELL 1.54180   50.00000   50.00000   50.00000   90.00000   90.00000   90.00000
LATT -1
SFAC C  
C      1  0.5404380000000  0.4712790000000  0.4442170000000 1.0
C      1  0.4936510000000  0.4612830000000  0.4282080000000 1.0
C      1  0.4631020000000  0.5003460000000  0.4245810000000 1.0
C      1  0.4854330000000  0.5448170000000  0.4264790000000 1.0
C      1  0.5376070000000  0.5314380000000  0.4326240000000 1.0
C      1  0.4335150000000  0.5299830000000  0.4731320000000 1.0
C      1  0.5063790000000  0.5796340000000  0.4705190000000 1.0
C      1  0.5721380000000  0.5148270000000  0.4731730000000 1.0
C      1  0.5381490000000  0.4314010000000  0.4701740000000 1.0
C      1  0.4451250000000  0.4437930000000  0.4747460000000 1.0
C      1  0.4143910000000  0.4986180000000  0.5176580000000 1.0
C      1  0.4704120000000  0.5771540000000  0.5186130000000 1.0
C      1  0.5639860000000  0.5505630000000  0.5150930000000 1.0
C      1  0.5704050000000  0.4524970000000  0.5155080000000 1.0
C      1  0.4751600000000  0.4220870000000  0.5170790000000 1.0
C      1  0.5680030000000  0.4986050000000  0.4970560000000 1.0
C      1  0.5192820000000  0.4362140000000  0.4924880000000 1.0
C      1  0.4410470000000  0.4615120000000  0.4974870000000 1.0
C      1  0.4487000000000  0.5345830000000  0.4975740000000 1.0
C      1  0.5206490000000  0.5653420000000  0.4920470000000 1.0
C      1  0.5706580000000  0.5116600000000  0.5452870000000 1.0
C      1  0.5299890000000  0.4474230000000  0.5383150000000 1.0
C      1  0.4482850000000  0.4544950000000  0.5477850000000 1.0
C      1  0.4392490000000  0.5294530000000  0.5451940000000 1.0
C      1  0.5065660000000  0.5589520000000  0.5372440000000 1.0
C      1  0.4354060000000  0.5012310000000  0.5396740000000 1.0
C      1  0.4774850000000  0.5635080000000  0.5449640000000 1.0
C      1  0.5530700000000  0.5521000000000  0.5432530000000 1.0
C      1  0.5682950000000  0.4663230000000  0.5406050000000 1.0
C      1  0.4854300000000  0.4310700000000  0.5431640000000 1.0
C      1  0.5364790000000  0.5199630000000  0.5295780000000 1.0
C      1  0.5240600000000  0.4778770000000  0.5168620000000 1.0
C      1  0.4779690000000  0.4648930000000  0.5256330000000 1.0
C      1  0.4867960000000  0.5127310000000  0.5256700000000 1.0
C      1  0.5084660000000  0.5324290000000  0.5218610000000 1.0
C      1  0.5268300000000  0.5515080000000  0.5583700000000 1.0
C      1  0.5560240000000  0.4888170000000  0.5535240000000 1.0
C      1  0.5066390000000  0.4475360000000  0.5545500000000 1.0
C      1  0.4523220000000  0.4822200000000  0.5548460000000 1.0
C      1  0.4677810000000  0.5359140000000  0.5503820000000 1.0
C      1  0.5678780000000  0.4686560000000  0.4909580000000 1.0
C      1  0.4894970000000  0.4284320000000  0.4912380000000 1.0
C      1  0.4227480000000  0.4845850000000  0.4918100000000 1.0
C      1  0.4686980000000  0.5577270000000  0.4960640000000 1.0
C      1  0.5498280000000  0.5566620000000  0.4887970000000 1.0
C      1  0.5252990000000  0.5159250000000  0.4818790000000 1.0
C      1  0.5070670000000  0.4833190000000  0.4704510000000 1.0
C      1  0.4832590000000  0.4663820000000  0.4557460000000 1.0
C      1  0.4604540000000  0.4928640000000  0.4542590000000 1.0
C      1  0.4868570000000  0.5406190000000  0.4549810000000 1.0
C      1  0.4773070000000  0.4907420000000  0.5705830000000 1.0
C      1  0.4850930000000  0.5194580000000  0.5692790000000 1.0
C      1  0.5154780000000  0.5229460000000  0.5678070000000 1.0
C      1  0.5279590000000  0.4952530000000  0.5638060000000 1.0
C      1  0.5045530000000  0.4749530000000  0.5696780000000 1.0
C      1  0.4818820000000  0.5645080000000  0.4703670000000 1.0
C      1  0.5490450000000  0.5319400000000  0.4696990000000 1.0
C      1  0.5501740000000  0.4575280000000  0.4685900000000 1.0
C      1  0.4727980000000  0.4415000000000  0.4699800000000 1.0
C      1  0.4342920000000  0.5019820000000  0.4693380000000 1.0
C      1  0.5145150000000  0.5801780000000  0.5176580000000 1.0
C      1  0.5840620000000  0.5113860000000  0.5196810000000 1.0
C      1  0.5336010000000  0.4278020000000  0.5177340000000 1.0
C      1  0.4371790000000  0.4443570000000  0.5225940000000 1.0
C      1  0.4284430000000  0.5403380000000  0.5198540000000 1.0
C      1  0.5211060000000  0.4564850000000  0.4301030000000 1.0
C      1  0.4893040000000  0.4881090000000  0.4169640000000 1.0
C      1  0.4646260000000  0.5276970000000  0.4181070000000 1.0
C      1  0.5126730000000  0.5384700000000  0.4164990000000 1.0
C      1  0.5355540000000  0.5004250000000  0.4419570000000 1.0
C      1  0.5896480000000  0.5381490000000  0.5125100000000 1.0
C      1  0.5614240000000  0.4254960000000  0.5138840000000 1.0
C      1  0.4468560000000  0.4183950000000  0.5165160000000 1.0
C      1  0.4047710000000  0.5254060000000  0.5132190000000 1.0
C      1  0.4912910000000  0.5964280000000  0.5141570000000 1.0
C      1  0.5080540000000  0.5375580000000  0.4934100000000 1.0
C      1  0.5390740000000  0.5023840000000  0.5056150000000 1.0
C      1  0.5140260000000  0.4654490000000  0.4935170000000 1.0
C      1  0.4653550000000  0.4769230000000  0.5020760000000 1.0
C      1  0.4691070000000  0.5078080000000  0.5005250000000 1.0
C      1  0.4990230000000  0.4854750000000  0.5327610000000 1.0
C      1  0.5057840000000  0.5070810000000  0.4345200000000 1.0
C      1  0.4832650000000  0.5076750000000  0.4720860000000 1.0
END
