TITL C-3578194-7807-557 5.35400310737877e-05 125000 -292.14399407926 0 0 49 (C1) n - 1
REM
REM in /home/bkarasulu/work/CARBON/AIRSS/Generating-Clusters/EDIP-Nigel-Params/with-SteepDescent/Higher-Symm/SD-CG/HFTN-CG
REM
REM
REM
REM
REM
REM ./C.cell (12c818d87b63d06a65506943cc24bca4)
REM
REM compiler GCC version 9.2.1 20190827 (Red Hat 9.2.1-1)
REM options -cpp -mtune=generic -march=x86-64 -g -O0 -fpre-include=/usr/include/finclude/math-vector-fortran.h
REM seed -2006922653 -312228041 -833137551 -457054932 1110423230 1183286988 -1374896028 -2033096923 1185207853 64602080 1587294629 -1428905699 -914403802 1317583761 966204914 -1840914840 2113353564 1697082142 -1108181456 1477508303 -1418807699 307896193 1676699516 -1893390829 -648547924 -1730648532 1811468827 1425706113 1591515670 -2057341881 -1757998180 -1267106875 1292743327
REM
CELL 1.54180   50.00000   50.00000   50.00000   90.00000   90.00000   90.00000
LATT -1
SFAC C  
C      1  0.5445350000000  0.5092130000000  0.4767590000000 1.0
C      1  0.5433690000000  0.5102870000000  0.5154650000000 1.0
C      1  0.5389910000000  0.4810940000000  0.5026980000000 1.0
C      1  0.5553740000000  0.4595430000000  0.4883130000000 1.0
C      1  0.5557530000000  0.5353630000000  0.4676140000000 1.0
C      1  0.5560180000000  0.5063430000000  0.5426330000000 1.0
C      1  0.5021950000000  0.5261590000000  0.4572850000000 1.0
C      1  0.5025010000000  0.5213660000000  0.5446270000000 1.0
C      1  0.5007880000000  0.4486480000000  0.4967580000000 1.0
C      1  0.4365440000000  0.4602120000000  0.5275650000000 1.0
C      1  0.4386830000000  0.4948720000000  0.4523240000000 1.0
C      1  0.4380400000000  0.5429570000000  0.5200870000000 1.0
C      1  0.5119070000000  0.5169640000000  0.5154520000000 1.0
C      1  0.5084260000000  0.4767380000000  0.5072680000000 1.0
C      1  0.5131830000000  0.5038460000000  0.4762350000000 1.0
C      1  0.5149330000000  0.5305370000000  0.4319000000000 1.0
C      1  0.5169580000000  0.5402610000000  0.5606930000000 1.0
C      1  0.5159830000000  0.4260550000000  0.5059920000000 1.0
C      1  0.4571690000000  0.4743950000000  0.4567980000000 1.0
C      1  0.4569680000000  0.5490620000000  0.5004790000000 1.0
C      1  0.4553790000000  0.4738820000000  0.5430620000000 1.0
C      1  0.5541460000000  0.4613680000000  0.4605470000000 1.0
C      1  0.5527950000000  0.5563910000000  0.4856200000000 1.0
C      1  0.5522120000000  0.4808900000000  0.5531540000000 1.0
C      1  0.4346500000000  0.5125750000000  0.4740010000000 1.0
C      1  0.4342680000000  0.5152320000000  0.5242940000000 1.0
C      1  0.4339840000000  0.4703160000000  0.5012810000000 1.0
C      1  0.5399480000000  0.5217150000000  0.4236010000000 1.0
C      1  0.5413610000000  0.5518700000000  0.5541710000000 1.0
C      1  0.5391100000000  0.4268770000000  0.5214590000000 1.0
C      1  0.5285120000000  0.4684710000000  0.5523430000000 1.0
C      1  0.5310860000000  0.4669570000000  0.4480150000000 1.0
C      1  0.5302730000000  0.5606890000000  0.4993440000000 1.0
C      1  0.5053310000000  0.4713480000000  0.5373590000000 1.0
C      1  0.5085790000000  0.4802470000000  0.4572750000000 1.0
C      1  0.5078720000000  0.5454790000000  0.5050080000000 1.0
C      1  0.4742810000000  0.4439630000000  0.4898860000000 1.0
C      1  0.4757780000000  0.5342170000000  0.4587190000000 1.0
C      1  0.4757600000000  0.5171300000000  0.5510500000000 1.0
C      1  0.5534580000000  0.5280230000000  0.5610230000000 1.0
C      1  0.5530640000000  0.4329650000000  0.4984310000000 1.0
C      1  0.5510790000000  0.5409690000000  0.4399950000000 1.0
C      1  0.4551080000000  0.5023230000000  0.5401110000000 1.0
C      1  0.4549720000000  0.4622870000000  0.4825680000000 1.0
C      1  0.4557030000000  0.5323630000000  0.4773830000000 1.0
C      1  0.4826670000000  0.5574590000000  0.5068290000000 1.0
C      1  0.4806090000000  0.4633650000000  0.5476870000000 1.0
C      1  0.4830970000000  0.4753510000000  0.4467560000000 1.0
C      1  0.4260100000000  0.4994440000000  0.4997640000000 1.0
END
