TITL C-3577086-586-147 -9.87291583130893e-05 125000 -854.717867131211 0 0 132 (C2) n - 1
REM
REM in /home/bkarasulu/work/CARBON/AIRSS/Generating-Clusters/EDIP-Nigel-Params/with-SteepDescent/Higher-Symm/SD-CG/HFTN-CG
REM
REM
REM
REM
REM
REM ./C.cell (12c818d87b63d06a65506943cc24bca4)
REM
REM compiler GCC version 9.2.1 20190827 (Red Hat 9.2.1-1)
REM options -cpp -mtune=generic -march=x86-64 -g -O0 -fpre-include=/usr/include/finclude/math-vector-fortran.h
REM seed 312062673 987065244 633077372 994736502 74435801 1513658263 -1583343264 85075327 1161999005 -1401752500 351607284 -1684099647 -628634602 -1924101568 -1411013811 -894496362 -464788799 864672951 362963147 -939097657 -1584009634 -332152665 623967199 -566114115 991714713 -1034544818 867688997 -1284834258 -147859107 -813472509 1316185397 -425055236 -1851036390
REM
CELL 1.54180   50.00000   50.00000   50.00000   90.00000   90.00000   90.00000
LATT -1
SFAC C  
C      1  0.5028780000000  0.4393300000000  0.4234570000000 1.0
C      1  0.4374280000000  0.4383850000000  0.4609090000000 1.0
C      1  0.4318640000000  0.4397680000000  0.5378200000000 1.0
C      1  0.4971040000000  0.4392640000000  0.5764900000000 1.0
C      1  0.5625530000000  0.4383320000000  0.5390370000000 1.0
C      1  0.5681180000000  0.4397810000000  0.4621270000000 1.0
C      1  0.4706800000000  0.4557700000000  0.4920290000000 1.0
C      1  0.4825200000000  0.4449490000000  0.5182980000000 1.0
C      1  0.5080890000000  0.4567910000000  0.5293650000000 1.0
C      1  0.5293060000000  0.4557540000000  0.5079320000000 1.0
C      1  0.5174640000000  0.4449600000000  0.4816530000000 1.0
C      1  0.4918980000000  0.4568190000000  0.4705970000000 1.0
C      1  0.5449390000000  0.5220340000000  0.4053300000000 1.0
C      1  0.4386400000000  0.5215520000000  0.4153090000000 1.0
C      1  0.3972780000000  0.5222390000000  0.5049310000000 1.0
C      1  0.4550670000000  0.5219650000000  0.5946890000000 1.0
C      1  0.5613670000000  0.5214590000000  0.5847100000000 1.0
C      1  0.6027290000000  0.5222120000000  0.4950880000000 1.0
C      1  0.4744840000000  0.5357760000000  0.4856870000000 1.0
C      1  0.4728660000000  0.5331780000000  0.5171990000000 1.0
C      1  0.5002650000000  0.5326810000000  0.5318320000000 1.0
C      1  0.5255270000000  0.5357550000000  0.5143440000000 1.0
C      1  0.5271440000000  0.5331850000000  0.4828300000000 1.0
C      1  0.4997450000000  0.5327090000000  0.4681970000000 1.0
C      1  0.4289760000000  0.5121900000000  0.5380760000000 1.0
C      1  0.4982860000000  0.5102610000000  0.5780630000000 1.0
C      1  0.5386020000000  0.5071510000000  0.5454360000000 1.0
C      1  0.5710280000000  0.5122020000000  0.4619340000000 1.0
C      1  0.5017180000000  0.5103290000000  0.4219460000000 1.0
C      1  0.4614000000000  0.5072030000000  0.4545700000000 1.0
C      1  0.4977990000000  0.5551130000000  0.5523290000000 1.0
C      1  0.5409590000000  0.5587160000000  0.5255970000000 1.0
C      1  0.5455380000000  0.5561990000000  0.4743330000000 1.0
C      1  0.5022170000000  0.5551580000000  0.4477190000000 1.0
C      1  0.4590590000000  0.5587510000000  0.4744540000000 1.0
C      1  0.4544790000000  0.5561900000000  0.5257160000000 1.0
C      1  0.5618600000000  0.5468700000000  0.5687850000000 1.0
C      1  0.5946020000000  0.5484450000000  0.4819350000000 1.0
C      1  0.5300430000000  0.5478200000000  0.4078290000000 1.0
C      1  0.4381540000000  0.5469490000000  0.4312570000000 1.0
C      1  0.4054120000000  0.5484580000000  0.5181080000000 1.0
C      1  0.4699720000000  0.5477490000000  0.5922130000000 1.0
C      1  0.4704150000000  0.4470010000000  0.5680940000000 1.0
C      1  0.5419730000000  0.4477860000000  0.5563330000000 1.0
C      1  0.5727100000000  0.4458030000000  0.4902760000000 1.0
C      1  0.5295690000000  0.4470520000000  0.4318590000000 1.0
C      1  0.4580110000000  0.4478480000000  0.4436210000000 1.0
C      1  0.4272740000000  0.4458160000000  0.5096770000000 1.0
C      1  0.5722360000000  0.5432850000000  0.4621910000000 1.0
C      1  0.5031150000000  0.5413930000000  0.4197470000000 1.0
C      1  0.4384850000000  0.5414460000000  0.4606960000000 1.0
C      1  0.4277770000000  0.5432730000000  0.5378470000000 1.0
C      1  0.4968970000000  0.5413230000000  0.5802890000000 1.0
C      1  0.5615280000000  0.5413930000000  0.5393400000000 1.0
C      1  0.5087230000000  0.4546590000000  0.5963140000000 1.0
C      1  0.5863080000000  0.4523640000000  0.5405150000000 1.0
C      1  0.5811960000000  0.4553550000000  0.4431090000000 1.0
C      1  0.4912630000000  0.4547460000000  0.4036460000000 1.0
C      1  0.4136780000000  0.4524260000000  0.4594430000000 1.0
C      1  0.4187910000000  0.4553300000000  0.5568520000000 1.0
C      1  0.4968340000000  0.4841890000000  0.5330130000000 1.0
C      1  0.5387570000000  0.4829320000000  0.5025080000000 1.0
C      1  0.5309160000000  0.4868140000000  0.4751950000000 1.0
C      1  0.5031610000000  0.4842170000000  0.4669740000000 1.0
C      1  0.4612380000000  0.4829460000000  0.4974770000000 1.0
C      1  0.4690800000000  0.4868020000000  0.5247930000000 1.0
C      1  0.5517410000000  0.5060990000000  0.5185000000000 1.0
C      1  0.5416940000000  0.5115230000000  0.4686090000000 1.0
C      1  0.4920920000000  0.5069810000000  0.4520030000000 1.0
C      1  0.4482600000000  0.5061300000000  0.4815050000000 1.0
C      1  0.4583090000000  0.5115080000000  0.5314020000000 1.0
C      1  0.5079100000000  0.5069370000000  0.5480030000000 1.0
C      1  0.4197830000000  0.5030190000000  0.5657620000000 1.0
C      1  0.5182040000000  0.5017620000000  0.5991730000000 1.0
C      1  0.5809730000000  0.5006470000000  0.5345700000000 1.0
C      1  0.5802170000000  0.5030520000000  0.4342410000000 1.0
C      1  0.4817970000000  0.5018550000000  0.4008290000000 1.0
C      1  0.4190270000000  0.5007020000000  0.4654310000000 1.0
C      1  0.4895450000000  0.4122280000000  0.4701060000000 1.0
C      1  0.4690520000000  0.4109880000000  0.4920710000000 1.0
C      1  0.4807080000000  0.4144030000000  0.5209920000000 1.0
C      1  0.5104280000000  0.4121990000000  0.5298170000000 1.0
C      1  0.5309210000000  0.4109720000000  0.5078510000000 1.0
C      1  0.5192660000000  0.4144150000000  0.4789330000000 1.0
C      1  0.4007190000000  0.5236730000000  0.4755420000000 1.0
C      1  0.4275020000000  0.5257540000000  0.5838210000000 1.0
C      1  0.5374210000000  0.5243970000000  0.6026790000000 1.0
C      1  0.5992880000000  0.5236210000000  0.5244780000000 1.0
C      1  0.5725060000000  0.5258050000000  0.4162020000000 1.0
C      1  0.4625870000000  0.5244990000000  0.3973430000000 1.0
C      1  0.5412240000000  0.4303440000000  0.4541600000000 1.0
C      1  0.4828720000000  0.4303080000000  0.4439450000000 1.0
C      1  0.4478030000000  0.4348150000000  0.4883340000000 1.0
C      1  0.4587550000000  0.4303160000000  0.5457790000000 1.0
C      1  0.5171070000000  0.4302540000000  0.5559940000000 1.0
C      1  0.5521770000000  0.4347890000000  0.5116090000000 1.0
C      1  0.5540070000000  0.5711380000000  0.5002440000000 1.0
C      1  0.5295310000000  0.5692380000000  0.4518960000000 1.0
C      1  0.4761710000000  0.5706750000000  0.4508600000000 1.0
C      1  0.4460140000000  0.5711540000000  0.4998180000000 1.0
C      1  0.4704900000000  0.5692050000000  0.5481650000000 1.0
C      1  0.5238500000000  0.5706250000000  0.5492020000000 1.0
C      1  0.5600320000000  0.4976620000000  0.5648840000000 1.0
C      1  0.5884240000000  0.4993830000000  0.4831570000000 1.0
C      1  0.5289140000000  0.4990470000000  0.4150760000000 1.0
C      1  0.4399680000000  0.4977370000000  0.4351140000000 1.0
C      1  0.4115760000000  0.4993950000000  0.5168420000000 1.0
C      1  0.4710860000000  0.4989820000000  0.5849230000000 1.0
C      1  0.4514370000000  0.4706620000000  0.4250380000000 1.0
C      1  0.4128590000000  0.4720370000000  0.5028990000000 1.0
C      1  0.4581990000000  0.4733540000000  0.5766700000000 1.0
C      1  0.5485540000000  0.4705820000000  0.5749360000000 1.0
C      1  0.5871330000000  0.4720130000000  0.4970760000000 1.0
C      1  0.5417930000000  0.4734090000000  0.4233060000000 1.0
C      1  0.5924370000000  0.4747680000000  0.5254970000000 1.0
C      1  0.5706880000000  0.4756420000000  0.4269440000000 1.0
C      1  0.4712500000000  0.4742200000000  0.4036380000000 1.0
C      1  0.4075560000000  0.4748190000000  0.4744810000000 1.0
C      1  0.4293050000000  0.4755990000000  0.5730340000000 1.0
C      1  0.5287420000000  0.4741270000000  0.5963400000000 1.0
C      1  0.5220910000000  0.5496650000000  0.5949000000000 1.0
C      1  0.5876190000000  0.5499890000000  0.5290930000000 1.0
C      1  0.5722350000000  0.5514780000000  0.4326180000000 1.0
C      1  0.4779240000000  0.5497550000000  0.4051430000000 1.0
C      1  0.4123970000000  0.5500410000000  0.4709510000000 1.0
C      1  0.4277810000000  0.5514400000000  0.5674270000000 1.0
C      1  0.4542880000000  0.5652780000000  0.5732980000000 1.0
C      1  0.5386970000000  0.5646660000000  0.5749350000000 1.0
C      1  0.5836360000000  0.5657580000000  0.5037500000000 1.0
C      1  0.5457320000000  0.5653280000000  0.4267600000000 1.0
C      1  0.4613220000000  0.5647430000000  0.4251220000000 1.0
C      1  0.4163840000000  0.5657870000000  0.4963080000000 1.0
END
