TITL C-3578202-4305-530 8.00512425879271e-07 125000 -544.61955392335 0 0 88 (C1) n - 1
REM
REM in /home/bkarasulu/work/CARBON/AIRSS/Generating-Clusters/EDIP-Nigel-Params/with-SteepDescent/Higher-Symm/SD-CG/HFTN-CG
REM
REM
REM
REM
REM
REM ./C.cell (12c818d87b63d06a65506943cc24bca4)
REM
REM compiler GCC version 9.2.1 20190827 (Red Hat 9.2.1-1)
REM options -cpp -mtune=generic -march=x86-64 -g -O0 -fpre-include=/usr/include/finclude/math-vector-fortran.h
REM seed 391905351 -1903638442 153558355 -1688845825 -566245436 -1885152700 40831507 -561668296 -146665505 15791461 128626922 -404260461 942932829 -2051311587 -1730547231 -834779479 1928359616 1567330349 -1370615515 1130110140 439586509 -490200598 -2141145714 1848387450 628143750 444682038 1102612917 -48761064 1543338764 -1650652452 1237968087 -660801827 1545667208
REM
CELL 1.54180   50.00000   50.00000   50.00000   90.00000   90.00000   90.00000
LATT -1
SFAC C  
C      1  0.4572230000000  0.5267860000000  0.5541600000000 1.0
C      1  0.5030660000000  0.4716100000000  0.5082730000000 1.0
C      1  0.5834140000000  0.4750100000000  0.4835510000000 1.0
C      1  0.5134410000000  0.5644920000000  0.4656080000000 1.0
C      1  0.4009860000000  0.5260070000000  0.4805280000000 1.0
C      1  0.5067180000000  0.4771900000000  0.4565380000000 1.0
C      1  0.5544430000000  0.4795310000000  0.4504960000000 1.0
C      1  0.5900370000000  0.5053550000000  0.5221010000000 1.0
C      1  0.4901020000000  0.5671310000000  0.4849730000000 1.0
C      1  0.5336390000000  0.4846290000000  0.4714800000000 1.0
C      1  0.5309480000000  0.4245840000000  0.5055410000000 1.0
C      1  0.4713360000000  0.5261620000000  0.4435810000000 1.0
C      1  0.4164840000000  0.5133850000000  0.5293080000000 1.0
C      1  0.5524980000000  0.5049590000000  0.4348840000000 1.0
C      1  0.4596010000000  0.4580840000000  0.4471420000000 1.0
C      1  0.4782410000000  0.5208710000000  0.4737460000000 1.0
C      1  0.4227020000000  0.4575460000000  0.5074160000000 1.0
C      1  0.4370880000000  0.5154480000000  0.5075490000000 1.0
C      1  0.5208770000000  0.5422050000000  0.4227010000000 1.0
C      1  0.4648820000000  0.4467810000000  0.5250500000000 1.0
C      1  0.5301520000000  0.5266610000000  0.5044050000000 1.0
C      1  0.4659340000000  0.4415390000000  0.4951700000000 1.0
C      1  0.4842650000000  0.4692730000000  0.4818900000000 1.0
C      1  0.4890250000000  0.4738880000000  0.5714920000000 1.0
C      1  0.5519070000000  0.4460630000000  0.5483560000000 1.0
C      1  0.5039970000000  0.4221100000000  0.5169780000000 1.0
C      1  0.4233260000000  0.5072700000000  0.4811630000000 1.0
C      1  0.3991870000000  0.5389690000000  0.5072920000000 1.0
C      1  0.5537150000000  0.4742200000000  0.5217190000000 1.0
C      1  0.5820620000000  0.5418770000000  0.4865960000000 1.0
C      1  0.4767900000000  0.5032500000000  0.4264040000000 1.0
C      1  0.4654790000000  0.4934680000000  0.4814140000000 1.0
C      1  0.4418260000000  0.4639770000000  0.5291380000000 1.0
C      1  0.5040730000000  0.4973170000000  0.4348210000000 1.0
C      1  0.4401220000000  0.4788650000000  0.5553090000000 1.0
C      1  0.5040530000000  0.5107170000000  0.5417150000000 1.0
C      1  0.4804710000000  0.5654570000000  0.5370650000000 1.0
C      1  0.5700350000000  0.5483890000000  0.5130720000000 1.0
C      1  0.5326230000000  0.4683420000000  0.4991770000000 1.0
C      1  0.4612510000000  0.4745740000000  0.5731890000000 1.0
C      1  0.4649380000000  0.5488730000000  0.4825680000000 1.0
C      1  0.5088240000000  0.4862780000000  0.5895270000000 1.0
C      1  0.4198720000000  0.5592550000000  0.5021000000000 1.0
C      1  0.5001950000000  0.4229630000000  0.4691380000000 1.0
C      1  0.5518670000000  0.4356460000000  0.5218530000000 1.0
C      1  0.4182610000000  0.4787750000000  0.4761320000000 1.0
C      1  0.5757330000000  0.5123540000000  0.4787090000000 1.0
C      1  0.5088770000000  0.4533940000000  0.4382600000000 1.0
C      1  0.5026830000000  0.5194460000000  0.4938700000000 1.0
C      1  0.4900050000000  0.5258420000000  0.5639400000000 1.0
C      1  0.4367710000000  0.4402820000000  0.4876330000000 1.0
C      1  0.5660860000000  0.5548980000000  0.4645610000000 1.0
C      1  0.4620900000000  0.4984660000000  0.5103990000000 1.0
C      1  0.4454120000000  0.5573600000000  0.4612970000000 1.0
C      1  0.5307080000000  0.4580580000000  0.5631360000000 1.0
C      1  0.5598410000000  0.5218990000000  0.5582920000000 1.0
C      1  0.5280590000000  0.4307110000000  0.4774180000000 1.0
C      1  0.5255270000000  0.5167910000000  0.4334580000000 1.0
C      1  0.4561850000000  0.5495730000000  0.5352390000000 1.0
C      1  0.5117430000000  0.5154480000000  0.5851520000000 1.0
C      1  0.4457050000000  0.5448140000000  0.5075810000000 1.0
C      1  0.5285210000000  0.5259840000000  0.5359380000000 1.0
C      1  0.4975850000000  0.5552290000000  0.5588530000000 1.0
C      1  0.4342550000000  0.4561280000000  0.4634660000000 1.0
C      1  0.4948110000000  0.4488270000000  0.5287280000000 1.0
C      1  0.5418950000000  0.5553750000000  0.5033240000000 1.0
C      1  0.4493150000000  0.5429650000000  0.4375970000000 1.0
C      1  0.5523450000000  0.4367060000000  0.4617090000000 1.0
C      1  0.4846520000000  0.4396270000000  0.4486960000000 1.0
C      1  0.5113740000000  0.5626090000000  0.4377570000000 1.0
C      1  0.4845830000000  0.4177540000000  0.4935110000000 1.0
C      1  0.5482160000000  0.5047300000000  0.4923040000000 1.0
C      1  0.5032380000000  0.4541020000000  0.5565580000000 1.0
C      1  0.4332870000000  0.5080730000000  0.5529360000000 1.0
C      1  0.5717500000000  0.5204850000000  0.4494390000000 1.0
C      1  0.5464390000000  0.4534150000000  0.4382950000000 1.0
C      1  0.5246790000000  0.5551190000000  0.5466360000000 1.0
C      1  0.4608090000000  0.4801920000000  0.4298730000000 1.0
C      1  0.4973030000000  0.5716870000000  0.5134590000000 1.0
C      1  0.5738140000000  0.4493850000000  0.4759560000000 1.0
C      1  0.4930710000000  0.5008110000000  0.5155590000000 1.0
C      1  0.5409640000000  0.5649660000000  0.4758440000000 1.0
C      1  0.5253720000000  0.5716520000000  0.5220260000000 1.0
C      1  0.5804010000000  0.4815140000000  0.5113530000000 1.0
C      1  0.4185280000000  0.5584100000000  0.4726460000000 1.0
C      1  0.5724140000000  0.5249990000000  0.5315170000000 1.0
C      1  0.5389460000000  0.5215010000000  0.5777480000000 1.0
C      1  0.5340330000000  0.4726360000000  0.5870160000000 1.0
END
