TITL C-3577082-504-60 4.61488349890821e-06 125000 -1127.87025920575 0 0 181 (C1) n - 1
REM
REM in /home/bkarasulu/work/CARBON/AIRSS/Generating-Clusters/EDIP-Nigel-Params/with-SteepDescent/Higher-Symm/SD-CG/HFTN-CG
REM
REM
REM
REM
REM
REM ./C.cell (12c818d87b63d06a65506943cc24bca4)
REM
REM compiler GCC version 9.2.1 20190827 (Red Hat 9.2.1-1)
REM options -cpp -mtune=generic -march=x86-64 -g -O0 -fpre-include=/usr/include/finclude/math-vector-fortran.h
REM seed -1098620602 1410150023 1762527016 -1232487154 -950997227 1549230944 1347108070 139267020 338742232 -1065890481 726366556 -955997421 -979482696 1936825016 -1526755643 1931631022 501346528 -1509740970 -1501932972 469416387 -1831628548 600138675 -45308984 804512310 -1893690463 -527317876 1631906802 1605638014 -870265726 1365844237 1714502796 1838028115 135594890
REM
CELL 1.54180   50.00000   50.00000   50.00000   90.00000   90.00000   90.00000
LATT -1
SFAC C  
C      1  0.5867200000000  0.5325440000000  0.5868810000000 1.0
C      1  0.4691360000000  0.5816220000000  0.5552350000000 1.0
C      1  0.5434000000000  0.5564970000000  0.6108360000000 1.0
C      1  0.5324540000000  0.4607960000000  0.4812290000000 1.0
C      1  0.4765280000000  0.4749250000000  0.3854660000000 1.0
C      1  0.5764120000000  0.5472050000000  0.5395110000000 1.0
C      1  0.4475030000000  0.4077430000000  0.5478950000000 1.0
C      1  0.4195540000000  0.4995770000000  0.5821550000000 1.0
C      1  0.5242970000000  0.4812120000000  0.4287400000000 1.0
C      1  0.4896380000000  0.4377060000000  0.4652730000000 1.0
C      1  0.5668720000000  0.5019560000000  0.4437480000000 1.0
C      1  0.4344980000000  0.4636870000000  0.5286040000000 1.0
C      1  0.4451060000000  0.5762930000000  0.5355140000000 1.0
C      1  0.5510450000000  0.5377060000000  0.4735750000000 1.0
C      1  0.4386810000000  0.5213930000000  0.4460460000000 1.0
C      1  0.5461930000000  0.4012230000000  0.5151150000000 1.0
C      1  0.5631680000000  0.5332700000000  0.6050730000000 1.0
C      1  0.5889210000000  0.5291470000000  0.4946100000000 1.0
C      1  0.5632900000000  0.5925480000000  0.5260330000000 1.0
C      1  0.5229180000000  0.5554430000000  0.5133400000000 1.0
C      1  0.5017580000000  0.3918610000000  0.5022990000000 1.0
C      1  0.4395930000000  0.4099200000000  0.4754130000000 1.0
C      1  0.5210780000000  0.4744670000000  0.4574960000000 1.0
C      1  0.4141990000000  0.4707850000000  0.5739620000000 1.0
C      1  0.4775680000000  0.5654290000000  0.5785970000000 1.0
C      1  0.4156520000000  0.4857360000000  0.4235620000000 1.0
C      1  0.4769850000000  0.6026100000000  0.4658450000000 1.0
C      1  0.5087310000000  0.5088270000000  0.4250690000000 1.0
C      1  0.5039050000000  0.5679860000000  0.5908430000000 1.0
C      1  0.5092070000000  0.4747260000000  0.5887270000000 1.0
C      1  0.4573880000000  0.5785000000000  0.5050690000000 1.0
C      1  0.4830260000000  0.5813220000000  0.4174110000000 1.0
C      1  0.5455110000000  0.5045060000000  0.3982520000000 1.0
C      1  0.4647700000000  0.4579780000000  0.5689680000000 1.0
C      1  0.4446810000000  0.5062190000000  0.4771660000000 1.0
C      1  0.5082700000000  0.4302750000000  0.5887130000000 1.0
C      1  0.6058120000000  0.5111110000000  0.4794730000000 1.0
C      1  0.4463970000000  0.3970910000000  0.4992600000000 1.0
C      1  0.4899640000000  0.5932120000000  0.5384610000000 1.0
C      1  0.4126020000000  0.5448260000000  0.5654860000000 1.0
C      1  0.5162740000000  0.5586780000000  0.5442090000000 1.0
C      1  0.5409300000000  0.5160010000000  0.5206170000000 1.0
C      1  0.4450940000000  0.4558390000000  0.4863370000000 1.0
C      1  0.4705150000000  0.5325530000000  0.5248290000000 1.0
C      1  0.4354170000000  0.4484110000000  0.5759270000000 1.0
C      1  0.4627170000000  0.5036650000000  0.5172290000000 1.0
C      1  0.5921220000000  0.4430080000000  0.5499170000000 1.0
C      1  0.5281040000000  0.4120610000000  0.4392370000000 1.0
C      1  0.4800210000000  0.4924480000000  0.4317990000000 1.0
C      1  0.5699340000000  0.4098150000000  0.5022870000000 1.0
C      1  0.4850270000000  0.4773380000000  0.4898720000000 1.0
C      1  0.5572090000000  0.5904470000000  0.4773130000000 1.0
C      1  0.4957150000000  0.4381520000000  0.5087310000000 1.0
C      1  0.5599840000000  0.4633630000000  0.5154740000000 1.0
C      1  0.4151110000000  0.4475910000000  0.4517220000000 1.0
C      1  0.5104450000000  0.5639930000000  0.4869560000000 1.0
C      1  0.6047950000000  0.4797930000000  0.5188830000000 1.0
C      1  0.5952690000000  0.4690720000000  0.4378100000000 1.0
C      1  0.5753980000000  0.5515950000000  0.4588320000000 1.0
C      1  0.4580360000000  0.5501670000000  0.5931690000000 1.0
C      1  0.5127400000000  0.4793450000000  0.5008410000000 1.0
C      1  0.4518970000000  0.5886540000000  0.4740730000000 1.0
C      1  0.4360970000000  0.4454580000000  0.4303710000000 1.0
C      1  0.4666730000000  0.5292990000000  0.6091260000000 1.0
C      1  0.4597600000000  0.4294420000000  0.4339200000000 1.0
C      1  0.5587440000000  0.5343710000000  0.5613630000000 1.0
C      1  0.5714100000000  0.5115690000000  0.5140840000000 1.0
C      1  0.3932170000000  0.5232440000000  0.5108420000000 1.0
C      1  0.5505840000000  0.5490660000000  0.5038700000000 1.0
C      1  0.5545620000000  0.4705690000000  0.5663710000000 1.0
C      1  0.3934060000000  0.4757140000000  0.4957430000000 1.0
C      1  0.4002580000000  0.4922090000000  0.4745320000000 1.0
C      1  0.5658320000000  0.4876580000000  0.4955980000000 1.0
C      1  0.5338810000000  0.4199520000000  0.5363290000000 1.0
C      1  0.4864150000000  0.4288790000000  0.4204850000000 1.0
C      1  0.5023110000000  0.4985660000000  0.6036690000000 1.0
C      1  0.4878010000000  0.5054820000000  0.5553060000000 1.0
C      1  0.4556320000000  0.5410870000000  0.5499350000000 1.0
C      1  0.5025920000000  0.5633670000000  0.4027540000000 1.0
C      1  0.5265850000000  0.5496540000000  0.4610200000000 1.0
C      1  0.4998010000000  0.4072180000000  0.4355960000000 1.0
C      1  0.5165240000000  0.4348700000000  0.4845890000000 1.0
C      1  0.4605650000000  0.4867290000000  0.4064430000000 1.0
C      1  0.5585500000000  0.4427700000000  0.4157610000000 1.0
C      1  0.5500740000000  0.4205520000000  0.5616780000000 1.0
C      1  0.4465800000000  0.5140210000000  0.3996830000000 1.0
C      1  0.5388390000000  0.4074150000000  0.4683180000000 1.0
C      1  0.3962690000000  0.5209270000000  0.4818940000000 1.0
C      1  0.5102130000000  0.4521410000000  0.6051490000000 1.0
C      1  0.5331100000000  0.4341710000000  0.4206820000000 1.0
C      1  0.4681690000000  0.4936670000000  0.5752190000000 1.0
C      1  0.5264050000000  0.4793240000000  0.5627800000000 1.0
C      1  0.4905380000000  0.4327240000000  0.5660280000000 1.0
C      1  0.4849500000000  0.3999760000000  0.4588550000000 1.0
C      1  0.6022810000000  0.5171180000000  0.4511420000000 1.0
C      1  0.5304210000000  0.5586510000000  0.4125340000000 1.0
C      1  0.5807040000000  0.4581210000000  0.4153520000000 1.0
C      1  0.4001230000000  0.5175900000000  0.5675440000000 1.0
C      1  0.5132030000000  0.4665080000000  0.5375660000000 1.0
C      1  0.4634540000000  0.5381030000000  0.4088410000000 1.0
C      1  0.5106830000000  0.5253290000000  0.4507480000000 1.0
C      1  0.4683310000000  0.5262250000000  0.4374300000000 1.0
C      1  0.4744610000000  0.4995170000000  0.4750960000000 1.0
C      1  0.5690600000000  0.5749810000000  0.5476350000000 1.0
C      1  0.5685240000000  0.5748810000000  0.5019000000000 1.0
C      1  0.4247590000000  0.4355760000000  0.4786620000000 1.0
C      1  0.5331650000000  0.4479040000000  0.5223060000000 1.0
C      1  0.4082910000000  0.4766860000000  0.4506570000000 1.0
C      1  0.4212410000000  0.5542400000000  0.5382190000000 1.0
C      1  0.5635970000000  0.5769670000000  0.4514770000000 1.0
C      1  0.4213910000000  0.5302870000000  0.5189030000000 1.0
C      1  0.6034560000000  0.4956840000000  0.4319900000000 1.0
C      1  0.3885180000000  0.4524470000000  0.5104090000000 1.0
C      1  0.5372130000000  0.5303840000000  0.4096380000000 1.0
C      1  0.4286470000000  0.4343170000000  0.5263480000000 1.0
C      1  0.4437800000000  0.5108200000000  0.5657140000000 1.0
C      1  0.4888990000000  0.5394840000000  0.3932400000000 1.0
C      1  0.4250680000000  0.5129170000000  0.4203540000000 1.0
C      1  0.5084570000000  0.4458240000000  0.4093190000000 1.0
C      1  0.4367770000000  0.4687330000000  0.4130090000000 1.0
C      1  0.5681020000000  0.4439560000000  0.5645810000000 1.0
C      1  0.4354330000000  0.4814020000000  0.4985890000000 1.0
C      1  0.4602340000000  0.4052660000000  0.5221520000000 1.0
C      1  0.5359390000000  0.5706500000000  0.4401900000000 1.0
C      1  0.5033970000000  0.4699880000000  0.3920400000000 1.0
C      1  0.5906680000000  0.4624510000000  0.4666390000000 1.0
C      1  0.4497270000000  0.5675120000000  0.4502270000000 1.0
C      1  0.4071360000000  0.4740440000000  0.5448390000000 1.0
C      1  0.5106600000000  0.5259970000000  0.5607510000000 1.0
C      1  0.5964180000000  0.4838830000000  0.4886820000000 1.0
C      1  0.4827100000000  0.4857420000000  0.5328560000000 1.0
C      1  0.5912680000000  0.5069380000000  0.5719430000000 1.0
C      1  0.4920820000000  0.5899740000000  0.4439220000000 1.0
C      1  0.5668870000000  0.4468700000000  0.4716080000000 1.0
C      1  0.4264650000000  0.4256760000000  0.5574330000000 1.0
C      1  0.5257540000000  0.5977600000000  0.4759140000000 1.0
C      1  0.5035100000000  0.5175100000000  0.3832550000000 1.0
C      1  0.5868040000000  0.4584990000000  0.5270140000000 1.0
C      1  0.4853210000000  0.5464770000000  0.4813500000000 1.0
C      1  0.4587120000000  0.4089130000000  0.4538020000000 1.0
C      1  0.5281480000000  0.3932460000000  0.4935780000000 1.0
C      1  0.4356560000000  0.5071970000000  0.5340710000000 1.0
C      1  0.5978170000000  0.5441020000000  0.4431670000000 1.0
C      1  0.4892710000000  0.4110560000000  0.5196000000000 1.0
C      1  0.4074580000000  0.5464210000000  0.4722480000000 1.0
C      1  0.5961080000000  0.5573290000000  0.5024310000000 1.0
C      1  0.5324810000000  0.4177580000000  0.5832670000000 1.0
C      1  0.5199350000000  0.5945180000000  0.4467790000000 1.0
C      1  0.5653680000000  0.4943260000000  0.5791210000000 1.0
C      1  0.4743290000000  0.4506730000000  0.4892050000000 1.0
C      1  0.4739050000000  0.5029990000000  0.6034230000000 1.0
C      1  0.5506420000000  0.5046600000000  0.4705710000000 1.0
C      1  0.4630180000000  0.5483500000000  0.5011580000000 1.0
C      1  0.5182430000000  0.5208930000000  0.5923600000000 1.0
C      1  0.5430160000000  0.5647840000000  0.5624370000000 1.0
C      1  0.4744420000000  0.5507120000000  0.4542900000000 1.0
C      1  0.5470970000000  0.5108440000000  0.5965180000000 1.0
C      1  0.5542410000000  0.4857360000000  0.4209800000000 1.0
C      1  0.3853310000000  0.4559660000000  0.5380480000000 1.0
C      1  0.5150150000000  0.5465360000000  0.6075390000000 1.0
C      1  0.4377400000000  0.5336640000000  0.4924200000000 1.0
C      1  0.4620090000000  0.4659650000000  0.5411130000000 1.0
C      1  0.4560100000000  0.5687280000000  0.4183750000000 1.0
C      1  0.4840670000000  0.5904580000000  0.5105000000000 1.0
C      1  0.4940690000000  0.4636180000000  0.4461970000000 1.0
C      1  0.5214200000000  0.5071430000000  0.4967870000000 1.0
C      1  0.5360840000000  0.5125550000000  0.5513040000000 1.0
C      1  0.5380420000000  0.6037230000000  0.5312380000000 1.0
C      1  0.5037610000000  0.4144580000000  0.5451440000000 1.0
C      1  0.3957370000000  0.5026380000000  0.5421260000000 1.0
C      1  0.4971190000000  0.5186970000000  0.4773080000000 1.0
C      1  0.6036640000000  0.5384110000000  0.5346770000000 1.0
C      1  0.5165760000000  0.5969830000000  0.5474730000000 1.0
C      1  0.4317350000000  0.5491770000000  0.5850540000000 1.0
C      1  0.5406960000000  0.5770000000000  0.5893890000000 1.0
C      1  0.4075890000000  0.4312890000000  0.5042640000000 1.0
C      1  0.5200230000000  0.4944910000000  0.3851130000000 1.0
C      1  0.4271540000000  0.5478190000000  0.4521180000000 1.0
C      1  0.5989020000000  0.5087110000000  0.5416210000000 1.0
C      1  0.5653890000000  0.4185410000000  0.4757810000000 1.0
C      1  0.4964300000000  0.6050660000000  0.4883800000000 1.0
END
