TITL C-3578196-9646-401 -1.31163357156537e-06 125000 -1006.50601075929 0 0 162 (C1) n - 1
REM
REM in /home/bkarasulu/work/CARBON/AIRSS/Generating-Clusters/EDIP-Nigel-Params/with-SteepDescent/Higher-Symm/SD-CG/HFTN-CG
REM
REM
REM
REM
REM
REM ./C.cell (12c818d87b63d06a65506943cc24bca4)
REM
REM compiler GCC version 9.2.1 20190827 (Red Hat 9.2.1-1)
REM options -cpp -mtune=generic -march=x86-64 -g -O0 -fpre-include=/usr/include/finclude/math-vector-fortran.h
REM seed -1759859626 -572989528 1712281134 1227468484 -1390561218 -1775497095 1840614666 -1459983209 718782825 1147621 842137574 806796882 1613324500 -566919699 892578268 236401651 207370283 -1120499381 1158529810 1129417319 613734604 -1196420349 -2087825360 571450990 2112363162 1137759972 -738057940 -1533745512 1506984353 2019896308 331059103 -1074712062 -639563305
REM
CELL 1.54180   50.00000   50.00000   50.00000   90.00000   90.00000   90.00000
LATT -1
SFAC C  
C      1  0.4912390000000  0.4896300000000  0.3846120000000 1.0
C      1  0.5038500000000  0.3806670000000  0.5130520000000 1.0
C      1  0.4919970000000  0.5111460000000  0.6162030000000 1.0
C      1  0.5039900000000  0.6197600000000  0.4873320000000 1.0
C      1  0.5843720000000  0.5441420000000  0.5251350000000 1.0
C      1  0.4152310000000  0.5219560000000  0.4591290000000 1.0
C      1  0.5843330000000  0.4553480000000  0.4752030000000 1.0
C      1  0.4163780000000  0.4776740000000  0.5417020000000 1.0
C      1  0.5354650000000  0.5534870000000  0.4762940000000 1.0
C      1  0.4655390000000  0.4759130000000  0.4471980000000 1.0
C      1  0.5351870000000  0.4464110000000  0.5239190000000 1.0
C      1  0.4652940000000  0.5235540000000  0.5526490000000 1.0
C      1  0.5059310000000  0.5071330000000  0.4643980000000 1.0
C      1  0.4925460000000  0.4686310000000  0.4932790000000 1.0
C      1  0.5061450000000  0.4926480000000  0.5353430000000 1.0
C      1  0.4921390000000  0.5307960000000  0.5063160000000 1.0
C      1  0.4225270000000  0.4283500000000  0.4708590000000 1.0
C      1  0.5763640000000  0.4669050000000  0.5733830000000 1.0
C      1  0.4223240000000  0.5712820000000  0.5292800000000 1.0
C      1  0.5770020000000  0.5325810000000  0.4270420000000 1.0
C      1  0.4480030000000  0.4104030000000  0.4689960000000 1.0
C      1  0.5498240000000  0.4656720000000  0.5919870000000 1.0
C      1  0.4479660000000  0.5890180000000  0.5308600000000 1.0
C      1  0.5505030000000  0.5339190000000  0.4084360000000 1.0
C      1  0.5344460000000  0.5087370000000  0.3987620000000 1.0
C      1  0.4625320000000  0.4014560000000  0.4939060000000 1.0
C      1  0.5343880000000  0.4911870000000  0.6013760000000 1.0
C      1  0.4623630000000  0.5981900000000  0.5060010000000 1.0
C      1  0.5894440000000  0.4378170000000  0.5001920000000 1.0
C      1  0.4140840000000  0.5001770000000  0.5624790000000 1.0
C      1  0.5897180000000  0.5616560000000  0.5001730000000 1.0
C      1  0.4144470000000  0.4995310000000  0.4382210000000 1.0
C      1  0.4913660000000  0.6079530000000  0.5103350000000 1.0
C      1  0.5044330000000  0.5139050000000  0.3924220000000 1.0
C      1  0.4913540000000  0.3913560000000  0.4894410000000 1.0
C      1  0.5046170000000  0.4865450000000  0.6084880000000 1.0
C      1  0.5981550000000  0.5160290000000  0.4808570000000 1.0
C      1  0.3984340000000  0.4816290000000  0.4797320000000 1.0
C      1  0.5979630000000  0.4834080000000  0.5196260000000 1.0
C      1  0.3984020000000  0.5174150000000  0.5203560000000 1.0
C      1  0.5075920000000  0.5882380000000  0.5264600000000 1.0
C      1  0.4901330000000  0.5330560000000  0.4117500000000 1.0
C      1  0.5075410000000  0.4110000000000  0.4731300000000 1.0
C      1  0.4898290000000  0.4682530000000  0.5889580000000 1.0
C      1  0.6026670000000  0.4993960000000  0.4578370000000 1.0
C      1  0.3945790000000  0.4606250000000  0.4988630000000 1.0
C      1  0.6024030000000  0.5000060000000  0.5426820000000 1.0
C      1  0.3930200000000  0.5399320000000  0.5025470000000 1.0
C      1  0.5819270000000  0.4571870000000  0.5232170000000 1.0
C      1  0.4191100000000  0.5232310000000  0.5421150000000 1.0
C      1  0.5822320000000  0.5423140000000  0.4771420000000 1.0
C      1  0.4194500000000  0.4762340000000  0.4580560000000 1.0
C      1  0.5527170000000  0.4740050000000  0.4354570000000 1.0
C      1  0.4522130000000  0.4370390000000  0.5298020000000 1.0
C      1  0.5525120000000  0.5256330000000  0.5646550000000 1.0
C      1  0.4518800000000  0.5635890000000  0.4694510000000 1.0
C      1  0.4644430000000  0.4515260000000  0.5866730000000 1.0
C      1  0.5332960000000  0.5891440000000  0.5421640000000 1.0
C      1  0.4649530000000  0.5490930000000  0.4173370000000 1.0
C      1  0.5333680000000  0.4103680000000  0.4576270000000 1.0
C      1  0.4655160000000  0.5658120000000  0.5389580000000 1.0
C      1  0.5335080000000  0.5400500000000  0.4329420000000 1.0
C      1  0.4656370000000  0.4335460000000  0.4606070000000 1.0
C      1  0.5328400000000  0.4594490000000  0.5675270000000 1.0
C      1  0.5543300000000  0.5342960000000  0.4869890000000 1.0
C      1  0.4477530000000  0.4829850000000  0.4702190000000 1.0
C      1  0.5541830000000  0.4653980000000  0.5131960000000 1.0
C      1  0.4472620000000  0.5161560000000  0.5297540000000 1.0
C      1  0.5594100000000  0.4163660000000  0.4712090000000 1.0
C      1  0.4377240000000  0.4640650000000  0.5794310000000 1.0
C      1  0.5594560000000  0.5831200000000  0.5288300000000 1.0
C      1  0.4381540000000  0.5361690000000  0.4224960000000 1.0
C      1  0.5266860000000  0.4864530000000  0.5548900000000 1.0
C      1  0.4674380000000  0.5459810000000  0.5142040000000 1.0
C      1  0.5266470000000  0.5130890000000  0.4451020000000 1.0
C      1  0.4682630000000  0.4527690000000  0.4855620000000 1.0
C      1  0.5061730000000  0.4475730000000  0.5340840000000 1.0
C      1  0.4944910000000  0.5342810000000  0.5513120000000 1.0
C      1  0.5064340000000  0.5526910000000  0.4657440000000 1.0
C      1  0.4946700000000  0.4651110000000  0.4484860000000 1.0
C      1  0.5727710000000  0.4357670000000  0.4546900000000 1.0
C      1  0.4211290000000  0.4527050000000  0.5574650000000 1.0
C      1  0.5727230000000  0.5637990000000  0.5455250000000 1.0
C      1  0.4199250000000  0.5469590000000  0.4434590000000 1.0
C      1  0.4421810000000  0.4856630000000  0.5267000000000 1.0
C      1  0.5631480000000  0.5242750000000  0.5143620000000 1.0
C      1  0.4418030000000  0.5140440000000  0.4751640000000 1.0
C      1  0.5631160000000  0.4752940000000  0.4858190000000 1.0
C      1  0.5769910000000  0.4838470000000  0.4220570000000 1.0
C      1  0.4238640000000  0.4354560000000  0.5235040000000 1.0
C      1  0.5766700000000  0.5157480000000  0.5782700000000 1.0
C      1  0.4234650000000  0.5639280000000  0.4770550000000 1.0
C      1  0.4912450000000  0.4705670000000  0.5230510000000 1.0
C      1  0.5098890000000  0.5209940000000  0.5289720000000 1.0
C      1  0.4912550000000  0.5295260000000  0.4764300000000 1.0
C      1  0.5099670000000  0.4787090000000  0.4707030000000 1.0
C      1  0.5733200000000  0.5848710000000  0.5037790000000 1.0
C      1  0.4326210000000  0.5084340000000  0.4181510000000 1.0
C      1  0.5730140000000  0.4146510000000  0.4964060000000 1.0
C      1  0.4318250000000  0.4918210000000  0.5832060000000 1.0
C      1  0.5767860000000  0.5537960000000  0.4488810000000 1.0
C      1  0.4229180000000  0.4478450000000  0.4470650000000 1.0
C      1  0.5762080000000  0.4457380000000  0.5514800000000 1.0
C      1  0.4228440000000  0.5517350000000  0.5529780000000 1.0
C      1  0.5056670000000  0.4006790000000  0.5339230000000 1.0
C      1  0.4942210000000  0.5354840000000  0.6001400000000 1.0
C      1  0.5061040000000  0.5991110000000  0.4670870000000 1.0
C      1  0.4940000000000  0.4646150000000  0.3995650000000 1.0
C      1  0.5334480000000  0.5925500000000  0.4488050000000 1.0
C      1  0.4671510000000  0.4471750000000  0.4073930000000 1.0
C      1  0.5339180000000  0.4070060000000  0.5504370000000 1.0
C      1  0.4671740000000  0.5526300000000  0.5922940000000 1.0
C      1  0.5833780000000  0.4937460000000  0.5634410000000 1.0
C      1  0.4168790000000  0.5563080000000  0.5037480000000 1.0
C      1  0.5837310000000  0.5057270000000  0.4370330000000 1.0
C      1  0.4172280000000  0.4430560000000  0.4967170000000 1.0
C      1  0.4962860000000  0.4247220000000  0.5206240000000 1.0
C      1  0.5058110000000  0.5247820000000  0.5760570000000 1.0
C      1  0.4966170000000  0.5750850000000  0.4803610000000 1.0
C      1  0.5061420000000  0.4745450000000  0.4237760000000 1.0
C      1  0.5466460000000  0.4368500000000  0.5495660000000 1.0
C      1  0.4529510000000  0.5494640000000  0.5627550000000 1.0
C      1  0.5472080000000  0.5629650000000  0.4507370000000 1.0
C      1  0.4530110000000  0.4501260000000  0.4370340000000 1.0
C      1  0.5136560000000  0.4309810000000  0.4054120000000 1.0
C      1  0.4893430000000  0.3995710000000  0.5692500000000 1.0
C      1  0.5135530000000  0.5692510000000  0.5945120000000 1.0
C      1  0.4889740000000  0.5985850000000  0.4326290000000 1.0
C      1  0.5316640000000  0.4267990000000  0.4311000000000 1.0
C      1  0.4696350000000  0.4233880000000  0.5745790000000 1.0
C      1  0.5314730000000  0.5728600000000  0.5687370000000 1.0
C      1  0.4699560000000  0.5760360000000  0.4305870000000 1.0
C      1  0.5552900000000  0.5557070000000  0.5681820000000 1.0
C      1  0.4499370000000  0.5832870000000  0.4475200000000 1.0
C      1  0.5554900000000  0.4439390000000  0.4319440000000 1.0
C      1  0.4535600000000  0.4200660000000  0.5527610000000 1.0
C      1  0.6055030000000  0.5273940000000  0.5359030000000 1.0
C      1  0.3912150000000  0.5253550000000  0.4769880000000 1.0
C      1  0.6056250000000  0.4720020000000  0.4646330000000 1.0
C      1  0.3932100000000  0.4733920000000  0.5243280000000 1.0
C      1  0.4927380000000  0.5727910000000  0.5476580000000 1.0
C      1  0.5076470000000  0.5531020000000  0.4267550000000 1.0
C      1  0.4927930000000  0.4265580000000  0.4518960000000 1.0
C      1  0.5062280000000  0.4479800000000  0.5730050000000 1.0
C      1  0.4904750000000  0.4096160000000  0.4284830000000 1.0
C      1  0.5113200000000  0.4245500000000  0.5896700000000 1.0
C      1  0.4903590000000  0.5900030000000  0.5709000000000 1.0
C      1  0.5162900000000  0.5737620000000  0.4077430000000 1.0
C      1  0.5415290000000  0.4766010000000  0.4655500000000 1.0
C      1  0.4626420000000  0.4662160000000  0.5327550000000 1.0
C      1  0.5414530000000  0.5230210000000  0.5344860000000 1.0
C      1  0.4625400000000  0.5338080000000  0.4667500000000 1.0
C      1  0.5300390000000  0.4918240000000  0.4243290000000 1.0
C      1  0.4696480000000  0.4279140000000  0.5070830000000 1.0
C      1  0.5298590000000  0.5077500000000  0.5756530000000 1.0
C      1  0.4694150000000  0.5718690000000  0.4927130000000 1.0
C      1  0.4835690000000  0.4222810000000  0.4037770000000 1.0
C      1  0.5196370000000  0.4008590000000  0.5757550000000 1.0
C      1  0.4833410000000  0.5776970000000  0.5957460000000 1.0
C      1  0.5164610000000  0.5961160000000  0.4243680000000 1.0
C      1  0.5813580000000  0.4997630000000  0.5001900000000 1.0
C      1  0.4125910000000  0.5009040000000  0.4982890000000 1.0
END
