TITL C-3578208-4450-436 -1.4208772295999e-06 125000 -635.770153536012 0 0 104 (C1) n - 1
REM
REM in /home/bkarasulu/work/CARBON/AIRSS/Generating-Clusters/EDIP-Nigel-Params/with-SteepDescent/Higher-Symm/SD-CG/HFTN-CG
REM
REM
REM
REM
REM
REM ./C.cell (12c818d87b63d06a65506943cc24bca4)
REM
REM compiler GCC version 9.2.1 20190827 (Red Hat 9.2.1-1)
REM options -cpp -mtune=generic -march=x86-64 -g -O0 -fpre-include=/usr/include/finclude/math-vector-fortran.h
REM seed 1910636370 -1944581399 -20732648 -35833514 1194038617 -610526535 -1284271768 -272670631 359606372 -1325116724 -424350573 -1988005271 25989067 -1605454690 -1098235924 -1188462601 1638552502 1918783937 -871131703 -953027969 695937274 -392729243 -149179458 1113446682 582885106 847932617 -734983613 122160080 -1176661489 -1516836794 1913819028 -640733994 -1012468062
REM
CELL 1.54180   50.00000   50.00000   50.00000   90.00000   90.00000   90.00000
LATT -1
SFAC C  
C      1  0.5219670000000  0.5191130000000  0.5923710000000 1.0
C      1  0.5267390000000  0.5310780000000  0.4284030000000 1.0
C      1  0.4454030000000  0.5570290000000  0.5287910000000 1.0
C      1  0.4284500000000  0.5318590000000  0.4461620000000 1.0
C      1  0.4596660000000  0.5790390000000  0.4600240000000 1.0
C      1  0.4693370000000  0.5773060000000  0.5242390000000 1.0
C      1  0.4818310000000  0.4370370000000  0.4516270000000 1.0
C      1  0.5646570000000  0.4770030000000  0.5498990000000 1.0
C      1  0.4510980000000  0.5089150000000  0.5327880000000 1.0
C      1  0.5303120000000  0.4705930000000  0.4633800000000 1.0
C      1  0.5649580000000  0.4815050000000  0.5205350000000 1.0
C      1  0.5634750000000  0.5422840000000  0.4637870000000 1.0
C      1  0.5073690000000  0.5707770000000  0.4556770000000 1.0
C      1  0.5474590000000  0.4778710000000  0.4308050000000 1.0
C      1  0.4837530000000  0.4980010000000  0.4591460000000 1.0
C      1  0.5540920000000  0.4996710000000  0.5650290000000 1.0
C      1  0.4391540000000  0.4877660000000  0.4252540000000 1.0
C      1  0.5142330000000  0.5611800000000  0.5691520000000 1.0
C      1  0.4837230000000  0.4229760000000  0.4766620000000 1.0
C      1  0.5294590000000  0.5758760000000  0.4763470000000 1.0
C      1  0.5174580000000  0.5805070000000  0.5492290000000 1.0
C      1  0.5170200000000  0.5859190000000  0.5019350000000 1.0
C      1  0.5029420000000  0.4274710000000  0.5324440000000 1.0
C      1  0.4486170000000  0.4384650000000  0.5112370000000 1.0
C      1  0.4849440000000  0.5831330000000  0.4713940000000 1.0
C      1  0.4700870000000  0.4666840000000  0.5458480000000 1.0
C      1  0.5096580000000  0.5201640000000  0.5129280000000 1.0
C      1  0.5843410000000  0.4880020000000  0.4524850000000 1.0
C      1  0.4559890000000  0.4405680000000  0.5403420000000 1.0
C      1  0.4727940000000  0.4905630000000  0.5274280000000 1.0
C      1  0.5536880000000  0.5594380000000  0.5145260000000 1.0
C      1  0.5652290000000  0.5008070000000  0.4345020000000 1.0
C      1  0.5537120000000  0.4514310000000  0.5566300000000 1.0
C      1  0.6012170000000  0.4923720000000  0.4863920000000 1.0
C      1  0.5217840000000  0.4989880000000  0.4962500000000 1.0
C      1  0.5033640000000  0.5451440000000  0.4393590000000 1.0
C      1  0.5498630000000  0.5567120000000  0.4847910000000 1.0
C      1  0.5620000000000  0.4780700000000  0.4722560000000 1.0
C      1  0.4948820000000  0.5209930000000  0.5858730000000 1.0
C      1  0.4798620000000  0.4751930000000  0.4074900000000 1.0
C      1  0.5268140000000  0.4827410000000  0.4118030000000 1.0
C      1  0.5046680000000  0.4642940000000  0.4155670000000 1.0
C      1  0.5361280000000  0.4734930000000  0.5067090000000 1.0
C      1  0.5560840000000  0.4379510000000  0.4901540000000 1.0
C      1  0.4498750000000  0.5561280000000  0.4759520000000 1.0
C      1  0.5606940000000  0.5102380000000  0.5149540000000 1.0
C      1  0.4945800000000  0.5410000000000  0.4962150000000 1.0
C      1  0.5318910000000  0.5762440000000  0.5245410000000 1.0
C      1  0.4430000000000  0.4650040000000  0.4976490000000 1.0
C      1  0.4561750000000  0.5328110000000  0.5170280000000 1.0
C      1  0.4372750000000  0.4597460000000  0.4662060000000 1.0
C      1  0.4998130000000  0.4382350000000  0.5688870000000 1.0
C      1  0.4668890000000  0.5331240000000  0.4907380000000 1.0
C      1  0.4781950000000  0.4228760000000  0.5516170000000 1.0
C      1  0.5024150000000  0.4600560000000  0.4908900000000 1.0
C      1  0.4629620000000  0.4207520000000  0.4951410000000 1.0
C      1  0.4083320000000  0.5155830000000  0.4820750000000 1.0
C      1  0.5145880000000  0.4855960000000  0.5518940000000 1.0
C      1  0.5308200000000  0.4335140000000  0.4438560000000 1.0
C      1  0.5983090000000  0.5197550000000  0.4947170000000 1.0
C      1  0.5628360000000  0.5097290000000  0.4840700000000 1.0
C      1  0.4518230000000  0.5489450000000  0.4376350000000 1.0
C      1  0.4326510000000  0.5062740000000  0.4651780000000 1.0
C      1  0.5103120000000  0.4227990000000  0.4855430000000 1.0
C      1  0.4711170000000  0.4748970000000  0.5752280000000 1.0
C      1  0.4729710000000  0.5043380000000  0.4315800000000 1.0
C      1  0.5125860000000  0.4958060000000  0.4680020000000 1.0
C      1  0.5471270000000  0.4222730000000  0.5131010000000 1.0
C      1  0.4087170000000  0.5433260000000  0.4685470000000 1.0
C      1  0.5324410000000  0.4928030000000  0.5843390000000 1.0
C      1  0.5479340000000  0.4306440000000  0.4646550000000 1.0
C      1  0.4232240000000  0.4855930000000  0.5449880000000 1.0
C      1  0.5510640000000  0.5273910000000  0.5548600000000 1.0
C      1  0.4898820000000  0.5723550000000  0.5003990000000 1.0
C      1  0.5335290000000  0.5400980000000  0.5747400000000 1.0
C      1  0.4187280000000  0.5130720000000  0.5568810000000 1.0
C      1  0.4709580000000  0.4802650000000  0.4981340000000 1.0
C      1  0.4807770000000  0.5696220000000  0.5514840000000 1.0
C      1  0.4766520000000  0.5348080000000  0.4290970000000 1.0
C      1  0.4210950000000  0.4827380000000  0.5156950000000 1.0
C      1  0.4994300000000  0.4552610000000  0.5229920000000 1.0
C      1  0.5193270000000  0.4134080000000  0.5108880000000 1.0
C      1  0.4428040000000  0.5208300000000  0.5740520000000 1.0
C      1  0.4583150000000  0.4523680000000  0.4463100000000 1.0
C      1  0.4154920000000  0.5319840000000  0.5331310000000 1.0
C      1  0.5060500000000  0.4446450000000  0.4372690000000 1.0
C      1  0.4586420000000  0.4990080000000  0.5836110000000 1.0
C      1  0.4227180000000  0.5614520000000  0.4851590000000 1.0
C      1  0.4560530000000  0.4657900000000  0.4203040000000 1.0
C      1  0.4612710000000  0.5410390000000  0.5599680000000 1.0
C      1  0.4966160000000  0.5069840000000  0.5374760000000 1.0
C      1  0.5508060000000  0.5247800000000  0.4442950000000 1.0
C      1  0.5537000000000  0.4310830000000  0.5385260000000 1.0
C      1  0.4635080000000  0.5047520000000  0.4791620000000 1.0
C      1  0.5899840000000  0.4723580000000  0.5054780000000 1.0
C      1  0.5208150000000  0.5102800000000  0.4102590000000 1.0
C      1  0.5817180000000  0.4497580000000  0.4904460000000 1.0
C      1  0.5252930000000  0.4645670000000  0.5338650000000 1.0
C      1  0.4131960000000  0.5114760000000  0.5105320000000 1.0
C      1  0.5008670000000  0.4684690000000  0.5758270000000 1.0
C      1  0.4256910000000  0.4822040000000  0.4505110000000 1.0
C      1  0.5885540000000  0.5231500000000  0.5218180000000 1.0
C      1  0.5686420000000  0.5427230000000  0.5348760000000 1.0
C      1  0.4879900000000  0.5272120000000  0.5590780000000 1.0
END
