TITL C-3578209-2550-602 -2.0878515007751e-06 125000 -258.930931620829 0 0 44 (C1) n - 1
REM
REM in /home/bkarasulu/work/CARBON/AIRSS/Generating-Clusters/EDIP-Nigel-Params/with-SteepDescent/Higher-Symm/SD-CG/HFTN-CG
REM
REM
REM
REM
REM
REM ./C.cell (12c818d87b63d06a65506943cc24bca4)
REM
REM compiler GCC version 9.2.1 20190827 (Red Hat 9.2.1-1)
REM options -cpp -mtune=generic -march=x86-64 -g -O0 -fpre-include=/usr/include/finclude/math-vector-fortran.h
REM seed 216870776 -19240106 -1437100582 971888916 -1523942399 1930794046 656517836 1282858687 784173896 1057889184 1441947777 2061969026 473456630 -280928891 -171239243 -648033576 -522005043 218127691 1700710609 -27582542 -22327062 724387263 1132204436 1360605959 1433167288 1145669811 363057016 1271970712 1855003124 894385277 132755671 -209197929 1355241895
REM
CELL 1.54180   50.00000   50.00000   50.00000   90.00000   90.00000   90.00000
LATT -1
SFAC C  
C      1  0.4851290000000  0.4673720000000  0.5468610000000 1.0
C      1  0.5082130000000  0.5341210000000  0.5447750000000 1.0
C      1  0.5147390000000  0.4797750000000  0.4666100000000 1.0
C      1  0.4916210000000  0.5276630000000  0.4678590000000 1.0
C      1  0.4715930000000  0.4919410000000  0.5398650000000 1.0
C      1  0.5259110000000  0.5102800000000  0.5371170000000 1.0
C      1  0.4701580000000  0.5121710000000  0.4533070000000 1.0
C      1  0.5338880000000  0.5004500000000  0.4549190000000 1.0
C      1  0.4945700000000  0.5451890000000  0.5198780000000 1.0
C      1  0.5138900000000  0.4367720000000  0.5256260000000 1.0
C      1  0.5094780000000  0.5689550000000  0.4757770000000 1.0
C      1  0.4882940000000  0.4447020000000  0.4717750000000 1.0
C      1  0.5645920000000  0.4870690000000  0.5236430000000 1.0
C      1  0.4394130000000  0.5128070000000  0.5171940000000 1.0
C      1  0.5570320000000  0.5066670000000  0.4740190000000 1.0
C      1  0.4390960000000  0.4843560000000  0.4726960000000 1.0
C      1  0.4732060000000  0.4549890000000  0.4973440000000 1.0
C      1  0.5334190000000  0.5538390000000  0.4908470000000 1.0
C      1  0.5311730000000  0.4435620000000  0.5044380000000 1.0
C      1  0.4649310000000  0.5529950000000  0.4960390000000 1.0
C      1  0.4446350000000  0.4680010000000  0.4950230000000 1.0
C      1  0.5482930000000  0.5253030000000  0.4967240000000 1.0
C      1  0.4479470000000  0.5286420000000  0.4943620000000 1.0
C      1  0.5471240000000  0.4698700000000  0.5063030000000 1.0
C      1  0.5553960000000  0.5149220000000  0.5266440000000 1.0
C      1  0.4349590000000  0.4846950000000  0.5162980000000 1.0
C      1  0.4470720000000  0.5114530000000  0.4700790000000 1.0
C      1  0.5650200000000  0.4813120000000  0.4857820000000 1.0
C      1  0.5163090000000  0.5636680000000  0.5128310000000 1.0
C      1  0.4883200000000  0.4490910000000  0.5244570000000 1.0
C      1  0.5149480000000  0.4380180000000  0.4813390000000 1.0
C      1  0.4830090000000  0.5558280000000  0.4730090000000 1.0
C      1  0.4749520000000  0.4860210000000  0.4438840000000 1.0
C      1  0.5251290000000  0.5141430000000  0.4298990000000 1.0
C      1  0.5234230000000  0.4880520000000  0.5553770000000 1.0
C      1  0.4726870000000  0.5122740000000  0.5590910000000 1.0
C      1  0.4940520000000  0.4664940000000  0.4505680000000 1.0
C      1  0.5177310000000  0.5285830000000  0.4530580000000 1.0
C      1  0.4908390000000  0.5307380000000  0.5664180000000 1.0
C      1  0.5063230000000  0.4695540000000  0.5654080000000 1.0
C      1  0.4741850000000  0.4969290000000  0.5096490000000 1.0
C      1  0.5177930000000  0.5034920000000  0.5071500000000 1.0
C      1  0.5053620000000  0.4772290000000  0.4956360000000 1.0
C      1  0.4941460000000  0.5200130000000  0.5004240000000 1.0
END
