TITL C-3578205-846-614 -2.0238459865347e-06 125000 -1207.77195213406 0 0 192 (C1) n - 1
REM
REM in /home/bkarasulu/work/CARBON/AIRSS/Generating-Clusters/EDIP-Nigel-Params/with-SteepDescent/Higher-Symm/SD-CG/HFTN-CG
REM
REM
REM
REM
REM
REM ./C.cell (12c818d87b63d06a65506943cc24bca4)
REM
REM compiler GCC version 9.2.1 20190827 (Red Hat 9.2.1-1)
REM options -cpp -mtune=generic -march=x86-64 -g -O0 -fpre-include=/usr/include/finclude/math-vector-fortran.h
REM seed 1426277262 902065473 -840976110 624362065 -2136297796 -1938690833 1699466997 1609157469 1385686013 -495645647 -1475957498 -1028915122 973960097 35733443 -1728161827 397292501 780806249 -1274554403 1800257965 239187238 -393224212 2055741183 2076813309 225533593 748255790 1869704120 1191469378 23718135 -200462430 1179949823 1311826242 -1118697356 -1916817596
REM
CELL 1.54180   50.00000   50.00000   50.00000   90.00000   90.00000   90.00000
LATT -1
SFAC C  
C      1  0.5327700000000  0.5536870000000  0.5360040000000 1.0
C      1  0.5313420000000  0.4489170000000  0.4668910000000 1.0
C      1  0.4692510000000  0.4485710000000  0.5399480000000 1.0
C      1  0.4849720000000  0.5517970000000  0.4352660000000 1.0
C      1  0.5505730000000  0.5492690000000  0.4864890000000 1.0
C      1  0.5566930000000  0.4471280000000  0.5129110000000 1.0
C      1  0.4491400000000  0.4550650000000  0.4868610000000 1.0
C      1  0.4478880000000  0.5593000000000  0.5120540000000 1.0
C      1  0.5660450000000  0.5176180000000  0.5671700000000 1.0
C      1  0.5640890000000  0.4816120000000  0.4328540000000 1.0
C      1  0.4335750000000  0.4835550000000  0.5673320000000 1.0
C      1  0.4338330000000  0.5188840000000  0.4395430000000 1.0
C      1  0.4448720000000  0.4617800000000  0.4360000000000 1.0
C      1  0.4476000000000  0.5375390000000  0.5618330000000 1.0
C      1  0.5500440000000  0.5375110000000  0.4378020000000 1.0
C      1  0.5525130000000  0.4621390000000  0.5632410000000 1.0
C      1  0.4879260000000  0.3876330000000  0.5071130000000 1.0
C      1  0.4868580000000  0.6121780000000  0.4884120000000 1.0
C      1  0.5103280000000  0.6134830000000  0.5075190000000 1.0
C      1  0.5113570000000  0.3891150000000  0.4886070000000 1.0
C      1  0.5268430000000  0.4819580000000  0.5662720000000 1.0
C      1  0.5289910000000  0.5175250000000  0.4303060000000 1.0
C      1  0.4736490000000  0.5187250000000  0.5669440000000 1.0
C      1  0.4665880000000  0.4815140000000  0.4285000000000 1.0
C      1  0.4836820000000  0.4413630000000  0.4989100000000 1.0
C      1  0.4767610000000  0.5630870000000  0.5001550000000 1.0
C      1  0.5269090000000  0.5570640000000  0.5058990000000 1.0
C      1  0.5308390000000  0.4443980000000  0.4986210000000 1.0
C      1  0.5102360000000  0.4751700000000  0.5918850000000 1.0
C      1  0.5114820000000  0.5253350000000  0.4073980000000 1.0
C      1  0.4896930000000  0.5253180000000  0.5929520000000 1.0
C      1  0.4863660000000  0.4766770000000  0.4066300000000 1.0
C      1  0.5163910000000  0.4738410000000  0.4133360000000 1.0
C      1  0.5196310000000  0.5263970000000  0.5881550000000 1.0
C      1  0.4818120000000  0.5270240000000  0.4184210000000 1.0
C      1  0.4806610000000  0.4742350000000  0.5865680000000 1.0
C      1  0.5060400000000  0.5508660000000  0.4568810000000 1.0
C      1  0.5145230000000  0.4419550000000  0.5445290000000 1.0
C      1  0.4849400000000  0.4477440000000  0.4511850000000 1.0
C      1  0.4859170000000  0.5592190000000  0.5463450000000 1.0
C      1  0.4969990000000  0.4315050000000  0.4732120000000 1.0
C      1  0.4963750000000  0.5742540000000  0.5225620000000 1.0
C      1  0.4924810000000  0.5703650000000  0.4746610000000 1.0
C      1  0.5027400000000  0.4273620000000  0.5203260000000 1.0
C      1  0.6055700000000  0.4613720000000  0.5132630000000 1.0
C      1  0.6032080000000  0.5362200000000  0.4882980000000 1.0
C      1  0.4013160000000  0.5367030000000  0.5098460000000 1.0
C      1  0.3938600000000  0.4626850000000  0.4881870000000 1.0
C      1  0.5826160000000  0.5617450000000  0.5257850000000 1.0
C      1  0.5848350000000  0.4380050000000  0.4741310000000 1.0
C      1  0.4142670000000  0.4333080000000  0.5236310000000 1.0
C      1  0.4238880000000  0.5563560000000  0.4705510000000 1.0
C      1  0.5561020000000  0.4757770000000  0.3893160000000 1.0
C      1  0.5591370000000  0.5243960000000  0.6106590000000 1.0
C      1  0.4405310000000  0.5226990000000  0.3928160000000 1.0
C      1  0.4408390000000  0.4742510000000  0.6101590000000 1.0
C      1  0.4378930000000  0.4423320000000  0.4138530000000 1.0
C      1  0.4407070000000  0.5583120000000  0.5836540000000 1.0
C      1  0.5597730000000  0.5560230000000  0.4156810000000 1.0
C      1  0.5585040000000  0.4408230000000  0.5844010000000 1.0
C      1  0.4596320000000  0.6096400000000  0.4994850000000 1.0
C      1  0.4604240000000  0.3913290000000  0.4973530000000 1.0
C      1  0.5387480000000  0.3924560000000  0.4991090000000 1.0
C      1  0.5375750000000  0.6074380000000  0.4982740000000 1.0
C      1  0.5560910000000  0.4208680000000  0.4366090000000 1.0
C      1  0.5551750000000  0.5815050000000  0.5622930000000 1.0
C      1  0.4471990000000  0.5813980000000  0.4347580000000 1.0
C      1  0.4442620000000  0.4181280000000  0.5605860000000 1.0
C      1  0.4249440000000  0.5246020000000  0.5456050000000 1.0
C      1  0.4229230000000  0.4743680000000  0.4538190000000 1.0
C      1  0.5751720000000  0.4742150000000  0.5471230000000 1.0
C      1  0.5716780000000  0.5245840000000  0.4550880000000 1.0
C      1  0.5127330000000  0.5052240000000  0.3824610000000 1.0
C      1  0.5145170000000  0.4949420000000  0.6185170000000 1.0
C      1  0.4833610000000  0.4984560000000  0.3832950000000 1.0
C      1  0.4852140000000  0.5043430000000  0.6184750000000 1.0
C      1  0.4695110000000  0.5109460000000  0.4939430000000 1.0
C      1  0.4744510000000  0.4869890000000  0.5114810000000 1.0
C      1  0.5395960000000  0.4938870000000  0.5056640000000 1.0
C      1  0.5228830000000  0.5140640000000  0.5166530000000 1.0
C      1  0.4416040000000  0.6004290000000  0.4803980000000 1.0
C      1  0.4415870000000  0.3959760000000  0.5171330000000 1.0
C      1  0.5581320000000  0.3993460000000  0.4803870000000 1.0
C      1  0.5566630000000  0.6007800000000  0.5175830000000 1.0
C      1  0.5244520000000  0.4045580000000  0.5710660000000 1.0
C      1  0.5264200000000  0.5951570000000  0.4251080000000 1.0
C      1  0.4739810000000  0.5963200000000  0.5718310000000 1.0
C      1  0.4742020000000  0.4083810000000  0.4268140000000 1.0
C      1  0.5091710000000  0.4715040000000  0.5413070000000 1.0
C      1  0.5072150000000  0.5239590000000  0.4685200000000 1.0
C      1  0.4919580000000  0.5298640000000  0.5448790000000 1.0
C      1  0.4951310000000  0.4777760000000  0.4662370000000 1.0
C      1  0.4836420000000  0.5338680000000  0.5070400000000 1.0
C      1  0.4925850000000  0.4705480000000  0.4958510000000 1.0
C      1  0.5190760000000  0.4704850000000  0.5095950000000 1.0
C      1  0.5111460000000  0.5316800000000  0.4977030000000 1.0
C      1  0.5790220000000  0.5407130000000  0.5061060000000 1.0
C      1  0.5810360000000  0.4573270000000  0.4954960000000 1.0
C      1  0.4171310000000  0.4567140000000  0.5073860000000 1.0
C      1  0.4278090000000  0.5420250000000  0.4954520000000 1.0
C      1  0.5065080000000  0.4286360000000  0.5726680000000 1.0
C      1  0.5067680000000  0.5796640000000  0.4098420000000 1.0
C      1  0.4929220000000  0.5727190000000  0.5739840000000 1.0
C      1  0.4929540000000  0.4319970000000  0.4242960000000 1.0
C      1  0.6157250000000  0.4906440000000  0.5145710000000 1.0
C      1  0.6122660000000  0.5068700000000  0.4867630000000 1.0
C      1  0.3927220000000  0.5069980000000  0.5125910000000 1.0
C      1  0.3867490000000  0.4919740000000  0.4868930000000 1.0
C      1  0.5790950000000  0.4866920000000  0.4828730000000 1.0
C      1  0.5828240000000  0.5112390000000  0.5188000000000 1.0
C      1  0.4395160000000  0.5111440000000  0.4937110000000 1.0
C      1  0.4179770000000  0.4808720000000  0.5266650000000 1.0
C      1  0.5049580000000  0.6020590000000  0.5347170000000 1.0
C      1  0.5052500000000  0.4030070000000  0.4628400000000 1.0
C      1  0.4933760000000  0.4007470000000  0.5332850000000 1.0
C      1  0.4911210000000  0.5970110000000  0.4611380000000 1.0
C      1  0.4780150000000  0.5816400000000  0.4329990000000 1.0
C      1  0.4733770000000  0.4237380000000  0.5533680000000 1.0
C      1  0.5267530000000  0.4261890000000  0.4420960000000 1.0
C      1  0.5260920000000  0.5769290000000  0.5545940000000 1.0
C      1  0.5446700000000  0.4409690000000  0.5427250000000 1.0
C      1  0.5375510000000  0.5572160000000  0.4569590000000 1.0
C      1  0.4563770000000  0.5597380000000  0.5428670000000 1.0
C      1  0.4562650000000  0.4429750000000  0.4574510000000 1.0
C      1  0.5859740000000  0.4248210000000  0.5370170000000 1.0
C      1  0.5823600000000  0.5718390000000  0.4667570000000 1.0
C      1  0.4140250000000  0.5746970000000  0.5355790000000 1.0
C      1  0.4124400000000  0.4263740000000  0.4636410000000 1.0
C      1  0.5415470000000  0.4420040000000  0.6063810000000 1.0
C      1  0.5461470000000  0.5555220000000  0.3914100000000 1.0
C      1  0.4569590000000  0.5573720000000  0.6061510000000 1.0
C      1  0.4559060000000  0.4435170000000  0.3925800000000 1.0
C      1  0.5707300000000  0.4166160000000  0.4623720000000 1.0
C      1  0.5702770000000  0.5848600000000  0.5363630000000 1.0
C      1  0.4354320000000  0.5805490000000  0.4617690000000 1.0
C      1  0.4287640000000  0.4125210000000  0.5354490000000 1.0
C      1  0.5314490000000  0.5199420000000  0.6136930000000 1.0
C      1  0.5283000000000  0.4793360000000  0.3871570000000 1.0
C      1  0.4685030000000  0.4795330000000  0.6123120000000 1.0
C      1  0.4682820000000  0.5231160000000  0.3915170000000 1.0
C      1  0.4354340000000  0.5047370000000  0.5228280000000 1.0
C      1  0.4380890000000  0.4823150000000  0.4782920000000 1.0
C      1  0.5627270000000  0.4898000000000  0.5238510000000 1.0
C      1  0.5570220000000  0.5111030000000  0.4812990000000 1.0
C      1  0.5659970000000  0.5626830000000  0.5806460000000 1.0
C      1  0.5678890000000  0.4379880000000  0.4175540000000 1.0
C      1  0.4330870000000  0.4373430000000  0.5782990000000 1.0
C      1  0.4355350000000  0.5620220000000  0.4185830000000 1.0
C      1  0.6062160000000  0.5084660000000  0.5400780000000 1.0
C      1  0.6021930000000  0.4899520000000  0.4619090000000 1.0
C      1  0.3919900000000  0.4920610000000  0.5423660000000 1.0
C      1  0.3906260000000  0.5051220000000  0.4620220000000 1.0
C      1  0.4783400000000  0.4754660000000  0.5397590000000 1.0
C      1  0.4831340000000  0.5062790000000  0.4658170000000 1.0
C      1  0.5219620000000  0.5267010000000  0.5426980000000 1.0
C      1  0.5240570000000  0.4774150000000  0.4604390000000 1.0
C      1  0.4315440000000  0.5953650000000  0.5436790000000 1.0
C      1  0.4315510000000  0.4074860000000  0.4555060000000 1.0
C      1  0.5675210000000  0.4043160000000  0.5439200000000 1.0
C      1  0.5650160000000  0.5910800000000  0.4568810000000 1.0
C      1  0.4453960000000  0.5859870000000  0.5696030000000 1.0
C      1  0.4452770000000  0.4173420000000  0.4298650000000 1.0
C      1  0.5533300000000  0.4138390000000  0.5696000000000 1.0
C      1  0.5527150000000  0.5817740000000  0.4307790000000 1.0
C      1  0.4785280000000  0.6099370000000  0.5461070000000 1.0
C      1  0.4789860000000  0.3948980000000  0.4520670000000 1.0
C      1  0.5195050000000  0.3916410000000  0.5452470000000 1.0
C      1  0.5187090000000  0.6043480000000  0.4520630000000 1.0
C      1  0.4829620000000  0.5541180000000  0.5969100000000 1.0
C      1  0.4825350000000  0.4481890000000  0.3998840000000 1.0
C      1  0.5160990000000  0.4464530000000  0.5959990000000 1.0
C      1  0.5189760000000  0.5541420000000  0.3982920000000 1.0
C      1  0.5712920000000  0.4648120000000  0.4102550000000 1.0
C      1  0.5722770000000  0.5363690000000  0.5886490000000 1.0
C      1  0.4291770000000  0.5351280000000  0.4152990000000 1.0
C      1  0.4275590000000  0.4634090000000  0.5877130000000 1.0
C      1  0.4111540000000  0.5040750000000  0.5631500000000 1.0
C      1  0.4115580000000  0.4996230000000  0.4440130000000 1.0
C      1  0.5877860000000  0.4976010000000  0.5610940000000 1.0
C      1  0.5846080000000  0.5014400000000  0.4412220000000 1.0
C      1  0.4661340000000  0.4889320000000  0.5648890000000 1.0
C      1  0.4656250000000  0.5086430000000  0.4388940000000 1.0
C      1  0.5347180000000  0.5121140000000  0.5663270000000 1.0
C      1  0.5334950000000  0.4881130000000  0.4341390000000 1.0
C      1  0.4059820000000  0.5475430000000  0.5361330000000 1.0
C      1  0.4026660000000  0.4527520000000  0.4619780000000 1.0
C      1  0.5950190000000  0.4518230000000  0.5386340000000 1.0
C      1  0.5916900000000  0.5457390000000  0.4637320000000 1.0
C      1  0.4562470000000  0.6031930000000  0.5281540000000 1.0
C      1  0.4567090000000  0.4006890000000  0.4700920000000 1.0
C      1  0.5427370000000  0.3968970000000  0.5279300000000 1.0
C      1  0.5403670000000  0.5989700000000  0.4708030000000 1.0
END
