TITL C-3578202-4305-568 -3.06346202021835e-06 125000 -741.888831587801 0 0 119 (C1) n - 1
REM
REM in /home/bkarasulu/work/CARBON/AIRSS/Generating-Clusters/EDIP-Nigel-Params/with-SteepDescent/Higher-Symm/SD-CG/HFTN-CG
REM
REM
REM
REM
REM
REM ./C.cell (12c818d87b63d06a65506943cc24bca4)
REM
REM compiler GCC version 9.2.1 20190827 (Red Hat 9.2.1-1)
REM options -cpp -mtune=generic -march=x86-64 -g -O0 -fpre-include=/usr/include/finclude/math-vector-fortran.h
REM seed -240761694 1973147224 1700819514 1967343431 -1807195435 -1286793585 796093219 472507671 1818580601 1887990317 1172206922 -307993371 -422309879 725465159 -969228961 1822694057 -1341304512 -303640112 592159572 -1398794023 -597074773 703764269 -768793188 -1376143129 -1098256958 -287150871 215060785 -2077347241 762490496 500366339 751344169 722216736 161305545
REM
CELL 1.54180   50.00000   50.00000   50.00000   90.00000   90.00000   90.00000
LATT -1
SFAC C  
C      1  0.5724460000000  0.4974530000000  0.4307930000000 1.0
C      1  0.4329920000000  0.4981580000000  0.5650240000000 1.0
C      1  0.5703120000000  0.5038660000000  0.5654890000000 1.0
C      1  0.4282470000000  0.5008980000000  0.4328100000000 1.0
C      1  0.5284510000000  0.5325270000000  0.4301020000000 1.0
C      1  0.4720060000000  0.5340440000000  0.5709880000000 1.0
C      1  0.5279710000000  0.5350900000000  0.5698010000000 1.0
C      1  0.4746360000000  0.5341620000000  0.4296350000000 1.0
C      1  0.4612580000000  0.5828710000000  0.4362020000000 1.0
C      1  0.5394490000000  0.5836840000000  0.5637640000000 1.0
C      1  0.4568850000000  0.5818950000000  0.5617990000000 1.0
C      1  0.5423000000000  0.5811510000000  0.4374960000000 1.0
C      1  0.5241280000000  0.6049510000000  0.5192790000000 1.0
C      1  0.4762290000000  0.6045090000000  0.4802350000000 1.0
C      1  0.5252480000000  0.6038680000000  0.4812730000000 1.0
C      1  0.4749230000000  0.6042120000000  0.5182080000000 1.0
C      1  0.5526860000000  0.4495240000000  0.4368340000000 1.0
C      1  0.4507000000000  0.4490820000000  0.5650990000000 1.0
C      1  0.5570060000000  0.4544030000000  0.5684220000000 1.0
C      1  0.4466940000000  0.4542770000000  0.4325090000000 1.0
C      1  0.5647430000000  0.4320420000000  0.5530640000000 1.0
C      1  0.4514650000000  0.4301060000000  0.4491680000000 1.0
C      1  0.5583840000000  0.4262290000000  0.4521420000000 1.0
C      1  0.4583800000000  0.4272720000000  0.5446840000000 1.0
C      1  0.5296360000000  0.5564840000000  0.4752670000000 1.0
C      1  0.4712790000000  0.5566420000000  0.5248950000000 1.0
C      1  0.5285480000000  0.5578500000000  0.5259210000000 1.0
C      1  0.4726140000000  0.5570970000000  0.4740570000000 1.0
C      1  0.5580630000000  0.4364890000000  0.4785400000000 1.0
C      1  0.4429620000000  0.4310160000000  0.5205640000000 1.0
C      1  0.5604870000000  0.4414840000000  0.5265240000000 1.0
C      1  0.4386370000000  0.4322140000000  0.4746140000000 1.0
C      1  0.4250750000000  0.4732700000000  0.4423580000000 1.0
C      1  0.5757810000000  0.4761320000000  0.5620530000000 1.0
C      1  0.4281080000000  0.4695300000000  0.5578410000000 1.0
C      1  0.5761440000000  0.4691990000000  0.4405690000000 1.0
C      1  0.4522120000000  0.4985270000000  0.4839730000000 1.0
C      1  0.5456130000000  0.4882940000000  0.5170450000000 1.0
C      1  0.4514230000000  0.4971540000000  0.5168400000000 1.0
C      1  0.5465880000000  0.4881360000000  0.4858080000000 1.0
C      1  0.5707330000000  0.5493450000000  0.5491850000000 1.0
C      1  0.4319420000000  0.5464690000000  0.4509930000000 1.0
C      1  0.5686070000000  0.5429720000000  0.4527730000000 1.0
C      1  0.4303870000000  0.5440390000000  0.5460910000000 1.0
C      1  0.4759290000000  0.4647540000000  0.5613910000000 1.0
C      1  0.5246110000000  0.4619800000000  0.4411030000000 1.0
C      1  0.4733250000000  0.4672010000000  0.4379060000000 1.0
C      1  0.5283070000000  0.4622220000000  0.5598290000000 1.0
C      1  0.4183810000000  0.4496170000000  0.4848790000000 1.0
C      1  0.5826020000000  0.4577950000000  0.5155880000000 1.0
C      1  0.4206080000000  0.4477410000000  0.5136550000000 1.0
C      1  0.5838600000000  0.4497090000000  0.4867090000000 1.0
C      1  0.5281040000000  0.5823060000000  0.4616180000000 1.0
C      1  0.4714130000000  0.5828360000000  0.5378600000000 1.0
C      1  0.5257870000000  0.5837860000000  0.5392970000000 1.0
C      1  0.4750030000000  0.5830370000000  0.4605450000000 1.0
C      1  0.4583150000000  0.4666800000000  0.5257160000000 1.0
C      1  0.5368040000000  0.4580790000000  0.4775080000000 1.0
C      1  0.4571410000000  0.4665890000000  0.4734840000000 1.0
C      1  0.5368580000000  0.4608350000000  0.5268390000000 1.0
C      1  0.5164120000000  0.5342620000000  0.5414120000000 1.0
C      1  0.4853720000000  0.5334880000000  0.4586800000000 1.0
C      1  0.5176260000000  0.5323800000000  0.4593730000000 1.0
C      1  0.4839370000000  0.5342470000000  0.5418820000000 1.0
C      1  0.5577500000000  0.5526990000000  0.5234050000000 1.0
C      1  0.4432580000000  0.5520420000000  0.4766950000000 1.0
C      1  0.5586610000000  0.5501490000000  0.4790310000000 1.0
C      1  0.4427910000000  0.5487200000000  0.5205990000000 1.0
C      1  0.5238750000000  0.5077580000000  0.5273600000000 1.0
C      1  0.4781010000000  0.5085760000000  0.4728900000000 1.0
C      1  0.5248880000000  0.5061650000000  0.4740220000000 1.0
C      1  0.4767640000000  0.5093000000000  0.5277500000000 1.0
C      1  0.5749790000000  0.4870880000000  0.5252470000000 1.0
C      1  0.4169450000000  0.4758920000000  0.4712120000000 1.0
C      1  0.5885970000000  0.4727830000000  0.4687400000000 1.0
C      1  0.4176760000000  0.4721750000000  0.5295540000000 1.0
C      1  0.4243620000000  0.5178840000000  0.4558630000000 1.0
C      1  0.5834680000000  0.5227610000000  0.5483800000000 1.0
C      1  0.4223220000000  0.5156300000000  0.5446020000000 1.0
C      1  0.5760580000000  0.5145970000000  0.4541720000000 1.0
C      1  0.4521530000000  0.5072940000000  0.4173800000000 1.0
C      1  0.5430860000000  0.5095640000000  0.5724600000000 1.0
C      1  0.4577680000000  0.5075110000000  0.5777000000000 1.0
C      1  0.5472830000000  0.5031360000000  0.4178620000000 1.0
C      1  0.4490200000000  0.5551910000000  0.5679500000000 1.0
C      1  0.5503610000000  0.5545830000000  0.4310900000000 1.0
C      1  0.4526680000000  0.5563700000000  0.4303780000000 1.0
C      1  0.5492660000000  0.5576540000000  0.5698060000000 1.0
C      1  0.4767380000000  0.4866960000000  0.5816090000000 1.0
C      1  0.5239850000000  0.4884380000000  0.4253500000000 1.0
C      1  0.4751670000000  0.4907890000000  0.4206100000000 1.0
C      1  0.5252030000000  0.4880790000000  0.5756920000000 1.0
C      1  0.4099850000000  0.5051960000000  0.4808790000000 1.0
C      1  0.5878730000000  0.5134470000000  0.5112380000000 1.0
C      1  0.4127960000000  0.5012560000000  0.5196690000000 1.0
C      1  0.5762280000000  0.4981040000000  0.4795250000000 1.0
C      1  0.5013200000000  0.5008550000000  0.5854040000000 1.0
C      1  0.5007050000000  0.5018660000000  0.4143390000000 1.0
C      1  0.5002540000000  0.4323050000000  0.5868910000000 1.0
C      1  0.4970540000000  0.4393200000000  0.4074380000000 1.0
C      1  0.5006060000000  0.4917090000000  0.4770230000000 1.0
C      1  0.4994770000000  0.4930740000000  0.5241420000000 1.0
C      1  0.4896700000000  0.4273910000000  0.5408480000000 1.0
C      1  0.4808220000000  0.4242170000000  0.4490230000000 1.0
C      1  0.5002730000000  0.4456220000000  0.5630970000000 1.0
C      1  0.4960680000000  0.4463470000000  0.4337680000000 1.0
C      1  0.5031010000000  0.4271310000000  0.5137140000000 1.0
C      1  0.4910170000000  0.4080390000000  0.4689520000000 1.0
C      1  0.5674550000000  0.5352120000000  0.5027770000000 1.0
C      1  0.4350170000000  0.5312220000000  0.4966270000000 1.0
C      1  0.5016900000000  0.5322960000000  0.4132030000000 1.0
C      1  0.5006820000000  0.5313010000000  0.5860520000000 1.0
C      1  0.5001930000000  0.6008590000000  0.4998350000000 1.0
C      1  0.4862830000000  0.5587160000000  0.4998370000000 1.0
C      1  0.4960060000000  0.4080790000000  0.4950010000000 1.0
C      1  0.5147600000000  0.5589120000000  0.5003090000000 1.0
C      1  0.4721810000000  0.4616980000000  0.4995190000000 1.0
C      1  0.4978890000000  0.4747530000000  0.5010770000000 1.0
C      1  0.5181320000000  0.4525290000000  0.5040660000000 1.0
END
