TITL C-3577078-809-327 5.96905663771076e-07 125000 -720.528382239088 0 0 117 (C1) n - 1
REM
REM in /home/bkarasulu/work/CARBON/AIRSS/Generating-Clusters/EDIP-Nigel-Params/with-SteepDescent/Higher-Symm/SD-CG/HFTN-CG
REM
REM
REM
REM
REM
REM ./C.cell (12c818d87b63d06a65506943cc24bca4)
REM
REM compiler GCC version 9.2.1 20190827 (Red Hat 9.2.1-1)
REM options -cpp -mtune=generic -march=x86-64 -g -O0 -fpre-include=/usr/include/finclude/math-vector-fortran.h
REM seed 296187483 1366252392 -1028793062 -437972564 813920854 -1705578119 1757297795 -576779566 -51683455 -1156126064 479342793 1313179309 598443894 289770414 184482423 1129118065 -897568574 -1085115091 -1917834385 -1172153743 1909488119 -1610826124 237227147 201045126 -361309504 1949264299 1558255883 1876556466 -1871035495 -223845465 1770093428 -713314122 161649778
REM
CELL 1.54180   50.00000   50.00000   50.00000   90.00000   90.00000   90.00000
LATT -1
SFAC C  
C      1  0.5025030000000  0.5053180000000  0.4264800000000 1.0
C      1  0.5006510000000  0.5106330000000  0.5707800000000 1.0
C      1  0.4409250000000  0.4995520000000  0.4223770000000 1.0
C      1  0.4401130000000  0.5071510000000  0.5762170000000 1.0
C      1  0.4592720000000  0.4770880000000  0.4263680000000 1.0
C      1  0.4573520000000  0.4836870000000  0.5758960000000 1.0
C      1  0.5323870000000  0.5370240000000  0.5831250000000 1.0
C      1  0.5234020000000  0.5560870000000  0.4207670000000 1.0
C      1  0.4952640000000  0.4833020000000  0.5358210000000 1.0
C      1  0.4972580000000  0.4807480000000  0.4630050000000 1.0
C      1  0.5788800000000  0.5051410000000  0.4418420000000 1.0
C      1  0.5763630000000  0.4866030000000  0.5506220000000 1.0
C      1  0.4492670000000  0.5316880000000  0.5605820000000 1.0
C      1  0.4492830000000  0.5252200000000  0.4356430000000 1.0
C      1  0.5415880000000  0.5569820000000  0.4422530000000 1.0
C      1  0.5467790000000  0.5507610000000  0.5607310000000 1.0
C      1  0.4237320000000  0.5442950000000  0.5514380000000 1.0
C      1  0.4253640000000  0.5380270000000  0.4475730000000 1.0
C      1  0.5724750000000  0.4609350000000  0.5352310000000 1.0
C      1  0.5926370000000  0.4822700000000  0.4578350000000 1.0
C      1  0.5856330000000  0.5319100000000  0.5317830000000 1.0
C      1  0.5756870000000  0.5318890000000  0.4791520000000 1.0
C      1  0.5415420000000  0.5339680000000  0.4623770000000 1.0
C      1  0.5559460000000  0.5309230000000  0.5388070000000 1.0
C      1  0.5230860000000  0.4671150000000  0.5438780000000 1.0
C      1  0.5318410000000  0.4635080000000  0.4605260000000 1.0
C      1  0.4633380000000  0.5174510000000  0.4615820000000 1.0
C      1  0.4622180000000  0.5219470000000  0.5336690000000 1.0
C      1  0.5302550000000  0.5728280000000  0.5501180000000 1.0
C      1  0.5351020000000  0.5810630000000  0.4580870000000 1.0
C      1  0.5383330000000  0.4881350000000  0.5280310000000 1.0
C      1  0.5471740000000  0.4867380000000  0.4736180000000 1.0
C      1  0.5956200000000  0.5259720000000  0.4563780000000 1.0
C      1  0.5978600000000  0.5024820000000  0.5380190000000 1.0
C      1  0.5045130000000  0.4576820000000  0.4258580000000 1.0
C      1  0.5008770000000  0.4626850000000  0.5820400000000 1.0
C      1  0.4690280000000  0.4673010000000  0.4697040000000 1.0
C      1  0.4684810000000  0.4707260000000  0.5325310000000 1.0
C      1  0.5497910000000  0.5067310000000  0.4499110000000 1.0
C      1  0.5514270000000  0.5031880000000  0.5494990000000 1.0
C      1  0.4486830000000  0.4900710000000  0.4699560000000 1.0
C      1  0.4476140000000  0.4934720000000  0.5291100000000 1.0
C      1  0.4525110000000  0.4245630000000  0.4680990000000 1.0
C      1  0.4488310000000  0.4284550000000  0.5383430000000 1.0
C      1  0.4025570000000  0.5216390000000  0.4427300000000 1.0
C      1  0.4011620000000  0.5276340000000  0.5565450000000 1.0
C      1  0.5390600000000  0.5862680000000  0.5277960000000 1.0
C      1  0.5489720000000  0.5839610000000  0.4823180000000 1.0
C      1  0.4193390000000  0.4876640000000  0.5390900000000 1.0
C      1  0.4204300000000  0.4830770000000  0.4612030000000 1.0
C      1  0.4999340000000  0.4315360000000  0.4756690000000 1.0
C      1  0.4976830000000  0.4281270000000  0.5338180000000 1.0
C      1  0.4870200000000  0.4805350000000  0.4183950000000 1.0
C      1  0.4845890000000  0.4878460000000  0.5841270000000 1.0
C      1  0.3965630000000  0.4897940000000  0.5195610000000 1.0
C      1  0.3977850000000  0.4878720000000  0.4807190000000 1.0
C      1  0.5445300000000  0.4378590000000  0.4678570000000 1.0
C      1  0.5446190000000  0.4455270000000  0.5368760000000 1.0
C      1  0.4284960000000  0.4310360000000  0.4809950000000 1.0
C      1  0.4235720000000  0.4328410000000  0.5279060000000 1.0
C      1  0.5277930000000  0.4717710000000  0.5739030000000 1.0
C      1  0.5317950000000  0.4674390000000  0.4312390000000 1.0
C      1  0.5255920000000  0.4280820000000  0.5229350000000 1.0
C      1  0.5262590000000  0.4162310000000  0.4754650000000 1.0
C      1  0.4691150000000  0.5697910000000  0.5490680000000 1.0
C      1  0.4622280000000  0.5745670000000  0.4491880000000 1.0
C      1  0.5318650000000  0.4969750000000  0.4268160000000 1.0
C      1  0.5323680000000  0.5023750000000  0.5749300000000 1.0
C      1  0.4883440000000  0.5523650000000  0.5631750000000 1.0
C      1  0.4887060000000  0.5745570000000  0.4415690000000 1.0
C      1  0.4634410000000  0.4459420000000  0.4490030000000 1.0
C      1  0.4611370000000  0.4512470000000  0.5553360000000 1.0
C      1  0.4940120000000  0.5104370000000  0.4551960000000 1.0
C      1  0.4928920000000  0.5131240000000  0.5403530000000 1.0
C      1  0.6137810000000  0.4837460000000  0.5169190000000 1.0
C      1  0.6149050000000  0.5023420000000  0.4669640000000 1.0
C      1  0.4328980000000  0.5466160000000  0.4750310000000 1.0
C      1  0.4306250000000  0.5515580000000  0.5237330000000 1.0
C      1  0.4529050000000  0.5674400000000  0.4745180000000 1.0
C      1  0.4571830000000  0.5642330000000  0.5232570000000 1.0
C      1  0.4713890000000  0.4254900000000  0.5169930000000 1.0
C      1  0.4751120000000  0.4156640000000  0.4860170000000 1.0
C      1  0.4894770000000  0.4428440000000  0.5603770000000 1.0
C      1  0.4920970000000  0.4385530000000  0.4455080000000 1.0
C      1  0.5126790000000  0.5283420000000  0.4719900000000 1.0
C      1  0.5102020000000  0.5360490000000  0.5218170000000 1.0
C      1  0.5055660000000  0.5607470000000  0.5394820000000 1.0
C      1  0.5062270000000  0.5817210000000  0.4630220000000 1.0
C      1  0.5044640000000  0.5457730000000  0.5864490000000 1.0
C      1  0.4991740000000  0.5676390000000  0.4165420000000 1.0
C      1  0.4135410000000  0.5028720000000  0.5634920000000 1.0
C      1  0.4145230000000  0.4966070000000  0.4360150000000 1.0
C      1  0.5377470000000  0.4089880000000  0.5031860000000 1.0
C      1  0.5564220000000  0.4420470000000  0.4946130000000 1.0
C      1  0.3971320000000  0.4641780000000  0.5011160000000 1.0
C      1  0.4712840000000  0.4548150000000  0.5062440000000 1.0
C      1  0.4795000000000  0.5023930000000  0.4995060000000 1.0
C      1  0.5870190000000  0.4317440000000  0.4976370000000 1.0
C      1  0.5690920000000  0.4085310000000  0.5054990000000 1.0
C      1  0.4007390000000  0.5147400000000  0.4996160000000 1.0
C      1  0.5291370000000  0.5852660000000  0.5019260000000 1.0
C      1  0.4186750000000  0.4444890000000  0.5032520000000 1.0
C      1  0.5003750000000  0.4549990000000  0.4983300000000 1.0
C      1  0.5316860000000  0.4994180000000  0.4999890000000 1.0
C      1  0.5007070000000  0.5758700000000  0.4919660000000 1.0
C      1  0.4689280000000  0.5326740000000  0.4962430000000 1.0
C      1  0.5753700000000  0.4791090000000  0.4822880000000 1.0
C      1  0.5918430000000  0.4600340000000  0.5118950000000 1.0
C      1  0.4985840000000  0.5433380000000  0.4946140000000 1.0
C      1  0.5892260000000  0.5432040000000  0.5045420000000 1.0
C      1  0.6129740000000  0.5065620000000  0.4966780000000 1.0
C      1  0.5037730000000  0.4850260000000  0.4922600000000 1.0
C      1  0.4682030000000  0.5755460000000  0.4981430000000 1.0
C      1  0.5813810000000  0.5055880000000  0.4972210000000 1.0
C      1  0.4493610000000  0.4933320000000  0.4993980000000 1.0
C      1  0.5381120000000  0.5299170000000  0.5142820000000 1.0
C      1  0.4206500000000  0.5370850000000  0.4998300000000 1.0
END
