TITL C-3577083-591-254 -4.53468220344739e-06 125000 -279.037338529181 0 0 47 (C1) n - 1
REM
REM in /home/bkarasulu/work/CARBON/AIRSS/Generating-Clusters/EDIP-Nigel-Params/with-SteepDescent/Higher-Symm/SD-CG/HFTN-CG
REM
REM
REM
REM
REM
REM ./C.cell (12c818d87b63d06a65506943cc24bca4)
REM
REM compiler GCC version 9.2.1 20190827 (Red Hat 9.2.1-1)
REM options -cpp -mtune=generic -march=x86-64 -g -O0 -fpre-include=/usr/include/finclude/math-vector-fortran.h
REM seed -2012628461 849294740 -141450965 -913255705 1281063560 1617114354 -1658862105 1021711317 -2007508554 -47091996 729435319 1695940939 1031763966 593925381 -966324459 1979903535 1414522345 -652309610 -768521631 1536621449 -657243696 165940617 -322710860 292924391 -218637165 1810952136 -1620265602 967436395 -149958239 1309416715 -340335852 1981064809 1526544882
REM
CELL 1.54180   50.00000   50.00000   50.00000   90.00000   90.00000   90.00000
LATT -1
SFAC C  
C      1  0.5434200000000  0.4834170000000  0.5225080000000 1.0
C      1  0.4599590000000  0.5159760000000  0.5216800000000 1.0
C      1  0.5197100000000  0.4819370000000  0.5609570000000 1.0
C      1  0.4818320000000  0.5186840000000  0.5612640000000 1.0
C      1  0.5085680000000  0.4513490000000  0.4449420000000 1.0
C      1  0.4907890000000  0.5502350000000  0.4448390000000 1.0
C      1  0.5055370000000  0.4629920000000  0.5005890000000 1.0
C      1  0.4983990000000  0.5392420000000  0.5039190000000 1.0
C      1  0.5296480000000  0.5225060000000  0.4500500000000 1.0
C      1  0.4668490000000  0.4791270000000  0.4503970000000 1.0
C      1  0.4547140000000  0.5101170000000  0.5513370000000 1.0
C      1  0.5468720000000  0.4902590000000  0.5517070000000 1.0
C      1  0.4499330000000  0.5029090000000  0.4900350000000 1.0
C      1  0.5538180000000  0.4985420000000  0.4880270000000 1.0
C      1  0.4902050000000  0.5151640000000  0.4866040000000 1.0
C      1  0.5119100000000  0.4910710000000  0.4867760000000 1.0
C      1  0.4849470000000  0.5002960000000  0.4358410000000 1.0
C      1  0.5147750000000  0.4985400000000  0.4432900000000 1.0
C      1  0.4735800000000  0.5263310000000  0.4476520000000 1.0
C      1  0.5273670000000  0.4735860000000  0.4497480000000 1.0
C      1  0.4557560000000  0.5245260000000  0.4708760000000 1.0
C      1  0.5468630000000  0.4764490000000  0.4705120000000 1.0
C      1  0.4412200000000  0.4663350000000  0.5341690000000 1.0
C      1  0.5601560000000  0.5339640000000  0.5331050000000 1.0
C      1  0.5402950000000  0.5239580000000  0.4776950000000 1.0
C      1  0.4652470000000  0.4789780000000  0.4800230000000 1.0
C      1  0.5059330000000  0.4303730000000  0.4631640000000 1.0
C      1  0.4900290000000  0.5687680000000  0.4654410000000 1.0
C      1  0.4913920000000  0.5433870000000  0.5472850000000 1.0
C      1  0.5100730000000  0.4574880000000  0.5473430000000 1.0
C      1  0.4954330000000  0.4366010000000  0.4881280000000 1.0
C      1  0.5049400000000  0.5647020000000  0.4886720000000 1.0
C      1  0.5406310000000  0.5514240000000  0.5214910000000 1.0
C      1  0.4616350000000  0.4498230000000  0.5228540000000 1.0
C      1  0.4754610000000  0.5424240000000  0.5223140000000 1.0
C      1  0.5254430000000  0.4587310000000  0.5220890000000 1.0
C      1  0.4834720000000  0.4611890000000  0.4349970000000 1.0
C      1  0.5172580000000  0.5446260000000  0.4379870000000 1.0
C      1  0.5234100000000  0.5057100000000  0.5141240000000 1.0
C      1  0.4827030000000  0.4946010000000  0.5173380000000 1.0
C      1  0.4684370000000  0.4515380000000  0.4936370000000 1.0
C      1  0.5339060000000  0.5507410000000  0.4922730000000 1.0
C      1  0.4800330000000  0.4615420000000  0.5441520000000 1.0
C      1  0.5212460000000  0.5392670000000  0.5415780000000 1.0
C      1  0.4492390000000  0.4824530000000  0.5558480000000 1.0
C      1  0.5512240000000  0.5184290000000  0.5549610000000 1.0
C      1  0.5008910000000  0.5005830000000  0.5435960000000 1.0
END
