TITL C-3578201-9217-537 -7.53946171013043e-07 125000 -206.569667422405 0 0 35 (C5) n - 1
REM
REM in /home/bkarasulu/work/CARBON/AIRSS/Generating-Clusters/EDIP-Nigel-Params/with-SteepDescent/Higher-Symm/SD-CG/HFTN-CG
REM
REM
REM
REM
REM
REM ./C.cell (12c818d87b63d06a65506943cc24bca4)
REM
REM compiler GCC version 9.2.1 20190827 (Red Hat 9.2.1-1)
REM options -cpp -mtune=generic -march=x86-64 -g -O0 -fpre-include=/usr/include/finclude/math-vector-fortran.h
REM seed 866026879 -1414768022 1525951977 -201222191 279786710 -1330092647 951220246 -1011439974 -555373163 -572294516 232869054 1245633967 519966346 -565793983 -1040190189 1861364476 -2025539097 711676784 -423001761 -1209063497 -2033266320 1280876390 -1966629911 466712799 -516386381 133577474 1857907074 -1598050376 -1616293840 1582305987 -1997663517 1384322057 -1674031809
REM
CELL 1.54180   50.00000   50.00000   50.00000   90.00000   90.00000   90.00000
LATT -1
SFAC C  
C      1  0.4701320000000  0.4629220000000  0.4751560000000 1.0
C      1  0.4700690000000  0.4649990000000  0.5276260000000 1.0
C      1  0.4701680000000  0.5155420000000  0.5418640000000 1.0
C      1  0.4702930000000  0.5447030000000  0.4981950000000 1.0
C      1  0.4702700000000  0.5121810000000  0.4569670000000 1.0
C      1  0.4687630000000  0.5055590000000  0.5665770000000 1.0
C      1  0.4689680000000  0.5651250000000  0.5153280000000 1.0
C      1  0.4689910000000  0.5347900000000  0.4428400000000 1.0
C      1  0.4688010000000  0.4564770000000  0.4492900000000 1.0
C      1  0.4686600000000  0.4384110000000  0.5257640000000 1.0
C      1  0.5207320000000  0.5413540000000  0.4984990000000 1.0
C      1  0.5207120000000  0.5112930000000  0.4601780000000 1.0
C      1  0.5205830000000  0.4655590000000  0.4769270000000 1.0
C      1  0.5205250000000  0.4673550000000  0.5255980000000 1.0
C      1  0.5206170000000  0.5141990000000  0.5389310000000 1.0
C      1  0.5364310000000  0.4885570000000  0.5399590000000 1.0
C      1  0.5365600000000  0.5343630000000  0.5231820000000 1.0
C      1  0.5366180000000  0.5325630000000  0.4744340000000 1.0
C      1  0.5365260000000  0.4856440000000  0.4610820000000 1.0
C      1  0.5364110000000  0.4584470000000  0.5015780000000 1.0
C      1  0.4942690000000  0.4780890000000  0.4852390000000 1.0
C      1  0.4942320000000  0.4792070000000  0.5162850000000 1.0
C      1  0.4942900000000  0.5090790000000  0.5248150000000 1.0
C      1  0.4943640000000  0.5264220000000  0.4990420000000 1.0
C      1  0.4943510000000  0.5072700000000  0.4745820000000 1.0
C      1  0.4468230000000  0.5093370000000  0.5242390000000 1.0
C      1  0.4468950000000  0.5260890000000  0.4986800000000 1.0
C      1  0.4468810000000  0.5069580000000  0.4748510000000 1.0
C      1  0.4468010000000  0.4783820000000  0.4856810000000 1.0
C      1  0.4467650000000  0.4798530000000  0.5162050000000 1.0
C      1  0.5626510000000  0.4927440000000  0.5250650000000 1.0
C      1  0.5627310000000  0.5214180000000  0.5145630000000 1.0
C      1  0.5627680000000  0.5202910000000  0.4840480000000 1.0
C      1  0.5627110000000  0.4909210000000  0.4756900000000 1.0
C      1  0.5626380000000  0.4738960000000  0.5010400000000 1.0
END
