TITL C-3578209-2550-383 -1.01405935368474e-05 125000 -1215.09654337596 0 0 197 (C1) n - 1
REM
REM in /home/bkarasulu/work/CARBON/AIRSS/Generating-Clusters/EDIP-Nigel-Params/with-SteepDescent/Higher-Symm/SD-CG/HFTN-CG
REM
REM
REM
REM
REM
REM ./C.cell (12c818d87b63d06a65506943cc24bca4)
REM
REM compiler GCC version 9.2.1 20190827 (Red Hat 9.2.1-1)
REM options -cpp -mtune=generic -march=x86-64 -g -O0 -fpre-include=/usr/include/finclude/math-vector-fortran.h
REM seed 1951680892 18242899 972875898 1373506420 -2058627535 -824608261 -1366216761 -1692849556 1980121348 -115582076 -414876430 967038390 1421686475 -319726229 -1280454988 -338477987 -845896175 1359270767 -354586820 1899670216 -20078577 -634494543 1997719388 -1418615020 -1140884156 1695623017 729186762 1610164647 -1343696392 1805557059 732867695 -1047180903 -1509343937
REM
CELL 1.54180   50.00000   50.00000   50.00000   90.00000   90.00000   90.00000
LATT -1
SFAC C  
C      1  0.5201560000000  0.5480890000000  0.5861530000000 1.0
C      1  0.5433350000000  0.5297610000000  0.5883710000000 1.0
C      1  0.5349990000000  0.5075120000000  0.6094790000000 1.0
C      1  0.5455680000000  0.4819450000000  0.6141850000000 1.0
C      1  0.5248270000000  0.4646860000000  0.6175800000000 1.0
C      1  0.4980960000000  0.4642900000000  0.6258270000000 1.0
C      1  0.4718830000000  0.4649170000000  0.6069610000000 1.0
C      1  0.4604630000000  0.4938880000000  0.6172570000000 1.0
C      1  0.4554510000000  0.5176140000000  0.6029250000000 1.0
C      1  0.4703820000000  0.5398350000000  0.5937230000000 1.0
C      1  0.4982020000000  0.5352670000000  0.6008080000000 1.0
C      1  0.4890450000000  0.4538670000000  0.3917330000000 1.0
C      1  0.4636890000000  0.4694280000000  0.3981980000000 1.0
C      1  0.4473400000000  0.4944110000000  0.3974630000000 1.0
C      1  0.4493730000000  0.5238660000000  0.4001890000000 1.0
C      1  0.4679050000000  0.5471220000000  0.3984920000000 1.0
C      1  0.4966500000000  0.5556020000000  0.3986190000000 1.0
C      1  0.5257160000000  0.5468140000000  0.3993230000000 1.0
C      1  0.5476360000000  0.5257670000000  0.3979980000000 1.0
C      1  0.5534660000000  0.4968500000000  0.4021110000000 1.0
C      1  0.5442930000000  0.4691160000000  0.3960950000000 1.0
C      1  0.5192790000000  0.4522140000000  0.3955730000000 1.0
C      1  0.6181150000000  0.4984820000000  0.4963030000000 1.0
C      1  0.5916510000000  0.4275660000000  0.4868910000000 1.0
C      1  0.5460820000000  0.4010690000000  0.4914380000000 1.0
C      1  0.4844690000000  0.3869600000000  0.4905790000000 1.0
C      1  0.4135550000000  0.4196960000000  0.4739140000000 1.0
C      1  0.3943970000000  0.4642890000000  0.4963090000000 1.0
C      1  0.3893360000000  0.5373400000000  0.4913850000000 1.0
C      1  0.4163810000000  0.5883080000000  0.4959080000000 1.0
C      1  0.4871370000000  0.6134250000000  0.4890940000000 1.0
C      1  0.5396450000000  0.6028620000000  0.4990820000000 1.0
C      1  0.5949290000000  0.5531180000000  0.4927630000000 1.0
C      1  0.4983480000000  0.5751340000000  0.4901070000000 1.0
C      1  0.5597770000000  0.5824990000000  0.5019980000000 1.0
C      1  0.5829070000000  0.5250330000000  0.4906750000000 1.0
C      1  0.6008200000000  0.4737700000000  0.4977950000000 1.0
C      1  0.5500760000000  0.4451360000000  0.4857820000000 1.0
C      1  0.5168750000000  0.4086760000000  0.4887870000000 1.0
C      1  0.4625360000000  0.4093510000000  0.4878650000000 1.0
C      1  0.4368490000000  0.4527290000000  0.4921400000000 1.0
C      1  0.4029550000000  0.4928240000000  0.4985830000000 1.0
C      1  0.4199920000000  0.5441460000000  0.4933250000000 1.0
C      1  0.4461610000000  0.5890290000000  0.5006850000000 1.0
C      1  0.4218700000000  0.5635160000000  0.4476620000000 1.0
C      1  0.4679450000000  0.5869450000000  0.4513420000000 1.0
C      1  0.5203470000000  0.5915020000000  0.4515840000000 1.0
C      1  0.5681810000000  0.5654720000000  0.4506930000000 1.0
C      1  0.5945800000000  0.5165380000000  0.4490880000000 1.0
C      1  0.5858090000000  0.4625870000000  0.4516790000000 1.0
C      1  0.5549840000000  0.4248100000000  0.4465880000000 1.0
C      1  0.5053640000000  0.4039380000000  0.4418000000000 1.0
C      1  0.4483260000000  0.4191400000000  0.4392610000000 1.0
C      1  0.4209280000000  0.4612100000000  0.4467950000000 1.0
C      1  0.4046840000000  0.5121340000000  0.4492750000000 1.0
C      1  0.4648840000000  0.5517260000000  0.5663100000000 1.0
C      1  0.4881690000000  0.5516130000000  0.5459920000000 1.0
C      1  0.5162840000000  0.5533140000000  0.5552640000000 1.0
C      1  0.5400340000000  0.5169840000000  0.5615900000000 1.0
C      1  0.5534140000000  0.4917640000000  0.5623470000000 1.0
C      1  0.5374850000000  0.4699690000000  0.5677040000000 1.0
C      1  0.5281460000000  0.4443220000000  0.5652990000000 1.0
C      1  0.4982040000000  0.4403410000000  0.5675770000000 1.0
C      1  0.4809660000000  0.4667770000000  0.5774080000000 1.0
C      1  0.4609770000000  0.5037220000000  0.5557060000000 1.0
C      1  0.4444030000000  0.5289520000000  0.5547820000000 1.0
C      1  0.5337860000000  0.5856110000000  0.5677360000000 1.0
C      1  0.5704210000000  0.5452700000000  0.5746330000000 1.0
C      1  0.5971040000000  0.4944870000000  0.5684670000000 1.0
C      1  0.5834630000000  0.4428480000000  0.5688590000000 1.0
C      1  0.5475830000000  0.4063000000000  0.5735600000000 1.0
C      1  0.4943680000000  0.4115980000000  0.5773980000000 1.0
C      1  0.4467580000000  0.4281420000000  0.5681630000000 1.0
C      1  0.4200850000000  0.4750750000000  0.5670140000000 1.0
C      1  0.4180020000000  0.5271600000000  0.5701800000000 1.0
C      1  0.4304430000000  0.5772020000000  0.5628900000000 1.0
C      1  0.4789240000000  0.5878480000000  0.5693480000000 1.0
C      1  0.4588270000000  0.4650690000000  0.5281070000000 1.0
C      1  0.4444180000000  0.4896160000000  0.5021480000000 1.0
C      1  0.4536540000000  0.5150610000000  0.5135320000000 1.0
C      1  0.4661510000000  0.5371760000000  0.4976270000000 1.0
C      1  0.4965450000000  0.5348870000000  0.5064450000000 1.0
C      1  0.5261250000000  0.5426370000000  0.5026460000000 1.0
C      1  0.5456870000000  0.5204840000000  0.5129850000000 1.0
C      1  0.5552260000000  0.4921640000000  0.5144670000000 1.0
C      1  0.5324030000000  0.4723680000000  0.5160290000000 1.0
C      1  0.5054740000000  0.4657580000000  0.5030010000000 1.0
C      1  0.4870440000000  0.4580920000000  0.5243360000000 1.0
C      1  0.5061660000000  0.5957930000000  0.5601180000000 1.0
C      1  0.5607980000000  0.5722620000000  0.5599540000000 1.0
C      1  0.5902620000000  0.5234510000000  0.5608610000000 1.0
C      1  0.5972510000000  0.4647470000000  0.5550960000000 1.0
C      1  0.5700420000000  0.4190170000000  0.5609290000000 1.0
C      1  0.5210870000000  0.3975350000000  0.5654150000000 1.0
C      1  0.4673350000000  0.4082930000000  0.5630980000000 1.0
C      1  0.4237460000000  0.4447730000000  0.5613490000000 1.0
C      1  0.4056110000000  0.5010140000000  0.5578580000000 1.0
C      1  0.4102670000000  0.5567030000000  0.5605370000000 1.0
C      1  0.4535740000000  0.5924960000000  0.5550240000000 1.0
C      1  0.5335850000000  0.4581310000000  0.4360670000000 1.0
C      1  0.5088440000000  0.4467410000000  0.4510580000000 1.0
C      1  0.4834990000000  0.4552760000000  0.4354990000000 1.0
C      1  0.4591160000000  0.4669880000000  0.4507550000000 1.0
C      1  0.4608410000000  0.4957850000000  0.4564180000000 1.0
C      1  0.4650960000000  0.5208940000000  0.4414310000000 1.0
C      1  0.4910420000000  0.5229860000000  0.4278400000000 1.0
C      1  0.5092470000000  0.5511700000000  0.4400940000000 1.0
C      1  0.5381170000000  0.5353530000000  0.4397710000000 1.0
C      1  0.5555920000000  0.5067450000000  0.4449070000000 1.0
C      1  0.5434480000000  0.4808470000000  0.4545340000000 1.0
C      1  0.4775740000000  0.4245030000000  0.4291550000000 1.0
C      1  0.4320650000000  0.4407500000000  0.4277380000000 1.0
C      1  0.4098280000000  0.4863160000000  0.4336660000000 1.0
C      1  0.4119680000000  0.5385880000000  0.4339790000000 1.0
C      1  0.4452980000000  0.5772180000000  0.4352940000000 1.0
C      1  0.4940870000000  0.5917710000000  0.4372000000000 1.0
C      1  0.5440150000000  0.5786880000000  0.4379340000000 1.0
C      1  0.5812570000000  0.5420440000000  0.4362060000000 1.0
C      1  0.5939700000000  0.4889870000000  0.4362730000000 1.0
C      1  0.5737750000000  0.4423130000000  0.4323260000000 1.0
C      1  0.5308880000000  0.4143280000000  0.4307950000000 1.0
C      1  0.4314940000000  0.5291940000000  0.5258060000000 1.0
C      1  0.4562800000000  0.5624220000000  0.5104780000000 1.0
C      1  0.4837060000000  0.5696850000000  0.5208070000000 1.0
C      1  0.5337180000000  0.5595860000000  0.5287750000000 1.0
C      1  0.5527410000000  0.5346710000000  0.5401060000000 1.0
C      1  0.5722430000000  0.4903710000000  0.5396160000000 1.0
C      1  0.5438920000000  0.4468410000000  0.5147060000000 1.0
C      1  0.5288880000000  0.4301650000000  0.5360330000000 1.0
C      1  0.4953920000000  0.4344860000000  0.5370680000000 1.0
C      1  0.4408290000000  0.4405320000000  0.5193520000000 1.0
C      1  0.4559160000000  0.4745430000000  0.5576390000000 1.0
C      1  0.6038820000000  0.4526650000000  0.4748690000000 1.0
C      1  0.5626990000000  0.4212710000000  0.4769290000000 1.0
C      1  0.5062670000000  0.3898970000000  0.4675180000000 1.0
C      1  0.4392390000000  0.4093580000000  0.4665980000000 1.0
C      1  0.4121450000000  0.4487480000000  0.4753020000000 1.0
C      1  0.3912900000000  0.5108880000000  0.4774080000000 1.0
C      1  0.4086280000000  0.5677090000000  0.4757920000000 1.0
C      1  0.4635260000000  0.5994770000000  0.4774700000000 1.0
C      1  0.5163620000000  0.5989610000000  0.4804980000000 1.0
C      1  0.5734870000000  0.5693150000000  0.4797620000000 1.0
C      1  0.6092010000000  0.5204340000000  0.4762140000000 1.0
C      1  0.5388580000000  0.5689880000000  0.4117530000000 1.0
C      1  0.5701840000000  0.5379210000000  0.4103930000000 1.0
C      1  0.5797930000000  0.4935320000000  0.4121380000000 1.0
C      1  0.5643070000000  0.4517210000000  0.4071360000000 1.0
C      1  0.5269960000000  0.4274100000000  0.4062800000000 1.0
C      1  0.4795810000000  0.4280720000000  0.4002860000000 1.0
C      1  0.4435190000000  0.4503280000000  0.4037340000000 1.0
C      1  0.4213500000000  0.4900830000000  0.4080170000000 1.0
C      1  0.4242030000000  0.5333960000000  0.4090290000000 1.0
C      1  0.4524650000000  0.5681110000000  0.4094600000000 1.0
C      1  0.4961240000000  0.5807550000000  0.4113930000000 1.0
C      1  0.4950870000000  0.3896910000000  0.5205930000000 1.0
C      1  0.4541600000000  0.4146630000000  0.5159370000000 1.0
C      1  0.3946170000000  0.4527770000000  0.5217550000000 1.0
C      1  0.3875650000000  0.5339440000000  0.5214690000000 1.0
C      1  0.4016650000000  0.5818970000000  0.5189290000000 1.0
C      1  0.4830970000000  0.6135080000000  0.5189280000000 1.0
C      1  0.5310930000000  0.6135910000000  0.5230630000000 1.0
C      1  0.5927450000000  0.5544030000000  0.5222600000000 1.0
C      1  0.6148810000000  0.5113470000000  0.5209570000000 1.0
C      1  0.5915510000000  0.4308180000000  0.5168100000000 1.0
C      1  0.5508100000000  0.3966650000000  0.5200960000000 1.0
C      1  0.5987600000000  0.4586930000000  0.5247960000000 1.0
C      1  0.5704230000000  0.4159450000000  0.5321460000000 1.0
C      1  0.5226860000000  0.3919930000000  0.5347510000000 1.0
C      1  0.4770090000000  0.4099660000000  0.5341360000000 1.0
C      1  0.4153260000000  0.4387210000000  0.5340360000000 1.0
C      1  0.4055690000000  0.5101730000000  0.5271340000000 1.0
C      1  0.3986790000000  0.5581320000000  0.5337970000000 1.0
C      1  0.4562390000000  0.6035350000000  0.5268360000000 1.0
C      1  0.5066370000000  0.6055950000000  0.5333730000000 1.0
C      1  0.5710170000000  0.5736340000000  0.5295330000000 1.0
C      1  0.5955220000000  0.5275420000000  0.5330330000000 1.0
C      1  0.4599750000000  0.5445240000000  0.4596700000000 1.0
C      1  0.4919420000000  0.5538100000000  0.4668680000000 1.0
C      1  0.5323850000000  0.5544340000000  0.4728470000000 1.0
C      1  0.5582470000000  0.5284420000000  0.4715080000000 1.0
C      1  0.5741190000000  0.4870430000000  0.4918490000000 1.0
C      1  0.5623320000000  0.4686840000000  0.4716200000000 1.0
C      1  0.5065060000000  0.4391440000000  0.4807790000000 1.0
C      1  0.4774890000000  0.4333960000000  0.4792360000000 1.0
C      1  0.4616730000000  0.4566880000000  0.4776840000000 1.0
C      1  0.4390080000000  0.4996780000000  0.4744610000000 1.0
C      1  0.4329100000000  0.5283910000000  0.4710560000000 1.0
C      1  0.4930950000000  0.5020180000000  0.4041200000000 1.0
C      1  0.4896470000000  0.4936990000000  0.6268300000000 1.0
C      1  0.4972180000000  0.5090720000000  0.5191820000000 1.0
C      1  0.4999210000000  0.4910610000000  0.5766190000000 1.0
C      1  0.5077050000000  0.5046480000000  0.4453010000000 1.0
C      1  0.5017680000000  0.5020000000000  0.4720870000000 1.0
C      1  0.4893130000000  0.5085280000000  0.5554860000000 1.0
C      1  0.4949640000000  0.4916610000000  0.4964170000000 1.0
C      1  0.5053370000000  0.4815350000000  0.4246700000000 1.0
C      1  0.5055780000000  0.5064250000000  0.6038920000000 1.0
END
