TITL C-3577077-324-51 -1.50924022788881e-06 125000 -554.788729991466 0 0 90 (C1) n - 1
REM
REM in /home/bkarasulu/work/CARBON/AIRSS/Generating-Clusters/EDIP-Nigel-Params/with-SteepDescent/Higher-Symm/SD-CG/HFTN-CG
REM
REM
REM
REM
REM
REM ./C.cell (12c818d87b63d06a65506943cc24bca4)
REM
REM compiler GCC version 9.2.1 20190827 (Red Hat 9.2.1-1)
REM options -cpp -mtune=generic -march=x86-64 -g -O0 -fpre-include=/usr/include/finclude/math-vector-fortran.h
REM seed 1394919038 -1016897176 -150287658 1644633900 -1465912943 -1431821498 1759634510 1699480097 1192661841 -406580431 1553073533 771998767 -975511647 -679085469 -1815167877 338055055 -430341393 -504691711 -1740506141 -653215577 631865309 323553304 -1312948452 329604356 471416140 -621183555 -1479526520 -1737206684 1805797912 -1862514467 1945629753 -57954224 -7246402
REM
CELL 1.54180   50.00000   50.00000   50.00000   90.00000   90.00000   90.00000
LATT -1
SFAC C  
C      1  0.5071260000000  0.5772920000000  0.4574490000000 1.0
C      1  0.4380100000000  0.4696210000000  0.4549000000000 1.0
C      1  0.5546180000000  0.4454400000000  0.4579630000000 1.0
C      1  0.5002810000000  0.4319700000000  0.4705380000000 1.0
C      1  0.4362430000000  0.5266610000000  0.4544710000000 1.0
C      1  0.5603310000000  0.5554870000000  0.4552810000000 1.0
C      1  0.4311890000000  0.5133440000000  0.4804590000000 1.0
C      1  0.5240360000000  0.4210370000000  0.4868510000000 1.0
C      1  0.5493280000000  0.5595690000000  0.4824540000000 1.0
C      1  0.4315020000000  0.4837730000000  0.4806230000000 1.0
C      1  0.5226910000000  0.5737680000000  0.4833500000000 1.0
C      1  0.5476830000000  0.4392330000000  0.4862790000000 1.0
C      1  0.5259980000000  0.4914250000000  0.4842440000000 1.0
C      1  0.4968030000000  0.5320780000000  0.4910560000000 1.0
C      1  0.4746850000000  0.4876910000000  0.4798330000000 1.0
C      1  0.5250900000000  0.5232520000000  0.4831670000000 1.0
C      1  0.5000800000000  0.4796130000000  0.4939650000000 1.0
C      1  0.4740180000000  0.5199220000000  0.4763460000000 1.0
C      1  0.4825800000000  0.5892120000000  0.5191170000000 1.0
C      1  0.4334280000000  0.4401200000000  0.5145250000000 1.0
C      1  0.5834480000000  0.4677170000000  0.5139680000000 1.0
C      1  0.4840490000000  0.4165890000000  0.5137410000000 1.0
C      1  0.4284700000000  0.5628630000000  0.5221400000000 1.0
C      1  0.5850610000000  0.5283180000000  0.5143020000000 1.0
C      1  0.4455810000000  0.5122010000000  0.4309690000000 1.0
C      1  0.5084910000000  0.4447380000000  0.4442600000000 1.0
C      1  0.5443210000000  0.5649400000000  0.4344000000000 1.0
C      1  0.4441870000000  0.4838170000000  0.4307940000000 1.0
C      1  0.5164560000000  0.5614230000000  0.4342910000000 1.0
C      1  0.5350920000000  0.4370000000000  0.4394360000000 1.0
C      1  0.5504040000000  0.5270550000000  0.5482060000000 1.0
C      1  0.4502450000000  0.5276940000000  0.5474810000000 1.0
C      1  0.4991180000000  0.4396890000000  0.5523890000000 1.0
C      1  0.5500080000000  0.4698700000000  0.5483930000000 1.0
C      1  0.4495270000000  0.4698170000000  0.5490040000000 1.0
C      1  0.4999940000000  0.5562980000000  0.5497040000000 1.0
C      1  0.5214760000000  0.5716640000000  0.5355170000000 1.0
C      1  0.4266780000000  0.4813750000000  0.5329160000000 1.0
C      1  0.5529250000000  0.4421450000000  0.5369570000000 1.0
C      1  0.5219590000000  0.4241820000000  0.5391590000000 1.0
C      1  0.4266030000000  0.5169550000000  0.5326600000000 1.0
C      1  0.5523200000000  0.5535800000000  0.5342780000000 1.0
C      1  0.4345460000000  0.5839040000000  0.5034740000000 1.0
C      1  0.4652020000000  0.4069420000000  0.4925810000000 1.0
C      1  0.5974770000000  0.5114470000000  0.4930390000000 1.0
C      1  0.4389880000000  0.4169240000000  0.4972220000000 1.0
C      1  0.4610830000000  0.5931210000000  0.5010020000000 1.0
C      1  0.5992830000000  0.4822430000000  0.4940620000000 1.0
C      1  0.4903270000000  0.4505830000000  0.4927360000000 1.0
C      1  0.5631310000000  0.5176980000000  0.4784960000000 1.0
C      1  0.4497650000000  0.5531930000000  0.4869250000000 1.0
C      1  0.4807450000000  0.5591890000000  0.4876910000000 1.0
C      1  0.5642950000000  0.4868260000000  0.4795090000000 1.0
C      1  0.4597860000000  0.4506110000000  0.4877540000000 1.0
C      1  0.4759510000000  0.5695200000000  0.5401410000000 1.0
C      1  0.4500600000000  0.4423780000000  0.5394080000000 1.0
C      1  0.5693270000000  0.4843600000000  0.5331730000000 1.0
C      1  0.4753050000000  0.4274610000000  0.5398990000000 1.0
C      1  0.4513540000000  0.5544470000000  0.5378660000000 1.0
C      1  0.5729280000000  0.5126890000000  0.5365990000000 1.0
C      1  0.4012300000000  0.5133790000000  0.5489270000000 1.0
C      1  0.5380270000000  0.4063640000000  0.5576000000000 1.0
C      1  0.5620830000000  0.5764790000000  0.5515440000000 1.0
C      1  0.4008900000000  0.4850630000000  0.5485070000000 1.0
C      1  0.5376450000000  0.5906530000000  0.5526930000000 1.0
C      1  0.5622890000000  0.4207550000000  0.5561970000000 1.0
C      1  0.4793010000000  0.5214940000000  0.4448140000000 1.0
C      1  0.5045700000000  0.4738450000000  0.4408130000000 1.0
C      1  0.5302310000000  0.5189510000000  0.4498870000000 1.0
C      1  0.4781320000000  0.4875510000000  0.4482880000000 1.0
C      1  0.5075490000000  0.5322060000000  0.4356080000000 1.0
C      1  0.5290970000000  0.4875070000000  0.4521110000000 1.0
C      1  0.4995880000000  0.4690390000000  0.5540740000000 1.0
C      1  0.5250540000000  0.5126260000000  0.5520220000000 1.0
C      1  0.4749110000000  0.5128690000000  0.5519730000000 1.0
C      1  0.5000440000000  0.5272300000000  0.5527370000000 1.0
C      1  0.5247710000000  0.4835720000000  0.5532460000000 1.0
C      1  0.4747350000000  0.4839440000000  0.5527320000000 1.0
C      1  0.4756440000000  0.4150280000000  0.4667320000000 1.0
C      1  0.5664610000000  0.5280470000000  0.4508810000000 1.0
C      1  0.4447450000000  0.5540890000000  0.4576020000000 1.0
C      1  0.4793730000000  0.5711040000000  0.4598260000000 1.0
C      1  0.5574570000000  0.4741030000000  0.4533450000000 1.0
C      1  0.4520920000000  0.4441200000000  0.4592320000000 1.0
C      1  0.5108410000000  0.5830960000000  0.5095460000000 1.0
C      1  0.4238800000000  0.4685740000000  0.5053980000000 1.0
C      1  0.5666350000000  0.4424400000000  0.5094460000000 1.0
C      1  0.5132970000000  0.4117060000000  0.5128760000000 1.0
C      1  0.4224320000000  0.5290090000000  0.5048830000000 1.0
C      1  0.5653090000000  0.5511860000000  0.5070410000000 1.0
END
