TITL C-3578205-846-724 -3.90586438174678e-06 125000 -910.528875391863 0 0 147 (C1) n - 1
REM
REM in /home/bkarasulu/work/CARBON/AIRSS/Generating-Clusters/EDIP-Nigel-Params/with-SteepDescent/Higher-Symm/SD-CG/HFTN-CG
REM
REM
REM
REM
REM
REM ./C.cell (12c818d87b63d06a65506943cc24bca4)
REM
REM compiler GCC version 9.2.1 20190827 (Red Hat 9.2.1-1)
REM options -cpp -mtune=generic -march=x86-64 -g -O0 -fpre-include=/usr/include/finclude/math-vector-fortran.h
REM seed 468410813 1044390318 -599949694 -1410214049 70441317 -1151569483 -1743481952 -481649442 498211277 2010461644 671319802 -1827020622 -1044452975 -1779678570 144990495 -206989865 397067642 -967643781 1814735364 1346879652 -1497479974 1366914883 484588205 -441602807 -1969651754 1217532651 1641881414 -1664081556 1847676362 1538152811 1647603625 -101662862 776812898
REM
CELL 1.54180   50.00000   50.00000   50.00000   90.00000   90.00000   90.00000
LATT -1
SFAC C  
C      1  0.4683440000000  0.4655930000000  0.4061120000000 1.0
C      1  0.5228990000000  0.4585070000000  0.4048040000000 1.0
C      1  0.5460190000000  0.5087990000000  0.4045970000000 1.0
C      1  0.5053110000000  0.5467640000000  0.4066510000000 1.0
C      1  0.4574640000000  0.5197140000000  0.4063190000000 1.0
C      1  0.5935790000000  0.5474120000000  0.5435720000000 1.0
C      1  0.5040510000000  0.5968480000000  0.5305160000000 1.0
C      1  0.4030360000000  0.5352310000000  0.5201570000000 1.0
C      1  0.4384130000000  0.4238670000000  0.5288080000000 1.0
C      1  0.5558540000000  0.4157750000000  0.5276170000000 1.0
C      1  0.4755280000000  0.4971730000000  0.5500740000000 1.0
C      1  0.4928090000000  0.4717630000000  0.5492520000000 1.0
C      1  0.5171040000000  0.4839130000000  0.5386950000000 1.0
C      1  0.5199730000000  0.5109190000000  0.5468420000000 1.0
C      1  0.4930640000000  0.5204400000000  0.5473640000000 1.0
C      1  0.4598160000000  0.4821420000000  0.4649310000000 1.0
C      1  0.5037380000000  0.4546480000000  0.4626610000000 1.0
C      1  0.5434010000000  0.4882470000000  0.4634540000000 1.0
C      1  0.5226140000000  0.5381930000000  0.4662140000000 1.0
C      1  0.4695070000000  0.5325840000000  0.4646370000000 1.0
C      1  0.4331480000000  0.5185660000000  0.5768940000000 1.0
C      1  0.4626840000000  0.4472490000000  0.5699130000000 1.0
C      1  0.5422370000000  0.4477520000000  0.5768010000000 1.0
C      1  0.5620400000000  0.5241640000000  0.5759510000000 1.0
C      1  0.4983100000000  0.5649450000000  0.5751030000000 1.0
C      1  0.4428010000000  0.5503340000000  0.5142260000000 1.0
C      1  0.4216640000000  0.4439360000000  0.5138740000000 1.0
C      1  0.5309750000000  0.4057960000000  0.5138490000000 1.0
C      1  0.5764410000000  0.4953760000000  0.5113840000000 1.0
C      1  0.5276360000000  0.5907340000000  0.5125330000000 1.0
C      1  0.5681840000000  0.4334670000000  0.4602440000000 1.0
C      1  0.5824190000000  0.5449910000000  0.4597850000000 1.0
C      1  0.4817060000000  0.5914230000000  0.4640120000000 1.0
C      1  0.4055950000000  0.5108700000000  0.4579220000000 1.0
C      1  0.4585710000000  0.4145930000000  0.4610420000000 1.0
C      1  0.4775150000000  0.4589120000000  0.4786720000000 1.0
C      1  0.5303880000000  0.4641880000000  0.4780480000000 1.0
C      1  0.5433740000000  0.5220970000000  0.4808000000000 1.0
C      1  0.4906730000000  0.5459380000000  0.4836580000000 1.0
C      1  0.4542850000000  0.5086080000000  0.4800090000000 1.0
C      1  0.5274430000000  0.5299290000000  0.4016170000000 1.0
C      1  0.4799670000000  0.5357480000000  0.4020400000000 1.0
C      1  0.4605830000000  0.4921720000000  0.4016930000000 1.0
C      1  0.4951610000000  0.4591340000000  0.4005440000000 1.0
C      1  0.5367990000000  0.4826030000000  0.3998300000000 1.0
C      1  0.4780240000000  0.4863690000000  0.5995190000000 1.0
C      1  0.5056770000000  0.4756290000000  0.5997610000000 1.0
C      1  0.5247240000000  0.4985850000000  0.6000700000000 1.0
C      1  0.5086270000000  0.5233970000000  0.6009180000000 1.0
C      1  0.4794820000000  0.5159260000000  0.6014660000000 1.0
C      1  0.5021250000000  0.4740540000000  0.4399150000000 1.0
C      1  0.5253830000000  0.4936770000000  0.4399950000000 1.0
C      1  0.5135320000000  0.5219720000000  0.4418600000000 1.0
C      1  0.4833490000000  0.5194220000000  0.4416200000000 1.0
C      1  0.4767290000000  0.4901090000000  0.4414470000000 1.0
C      1  0.4593570000000  0.5318700000000  0.5866240000000 1.0
C      1  0.4572890000000  0.4733490000000  0.5825740000000 1.0
C      1  0.5112780000000  0.4547730000000  0.5792680000000 1.0
C      1  0.5493420000000  0.4980510000000  0.5835160000000 1.0
C      1  0.5183990000000  0.5471720000000  0.5859980000000 1.0
C      1  0.5914210000000  0.4772180000000  0.4668510000000 1.0
C      1  0.5476230000000  0.5828190000000  0.4656140000000 1.0
C      1  0.4367480000000  0.5674960000000  0.4740090000000 1.0
C      1  0.4123690000000  0.4629090000000  0.4673620000000 1.0
C      1  0.5073170000000  0.4043390000000  0.4681000000000 1.0
C      1  0.5915160000000  0.5545130000000  0.5158820000000 1.0
C      1  0.4832130000000  0.5822040000000  0.5159510000000 1.0
C      1  0.4138000000000  0.5098180000000  0.5112520000000 1.0
C      1  0.4649240000000  0.4250290000000  0.5143910000000 1.0
C      1  0.5624690000000  0.4426230000000  0.5131830000000 1.0
C      1  0.4451470000000  0.5897680000000  0.4885520000000 1.0
C      1  0.3964750000000  0.4776020000000  0.4852270000000 1.0
C      1  0.4884480000000  0.3949190000000  0.4865570000000 1.0
C      1  0.5964000000000  0.4563480000000  0.4851570000000 1.0
C      1  0.5699480000000  0.5808430000000  0.4823090000000 1.0
C      1  0.5502690000000  0.4221170000000  0.5585390000000 1.0
C      1  0.5828030000000  0.5227110000000  0.5548560000000 1.0
C      1  0.5096240000000  0.5823020000000  0.5549070000000 1.0
C      1  0.4116800000000  0.5330900000000  0.5487020000000 1.0
C      1  0.4409260000000  0.4354540000000  0.5552730000000 1.0
C      1  0.4723760000000  0.4281050000000  0.4385270000000 1.0
C      1  0.5589440000000  0.4503730000000  0.4375480000000 1.0
C      1  0.5619700000000  0.5401460000000  0.4389740000000 1.0
C      1  0.4784850000000  0.5724680000000  0.4415430000000 1.0
C      1  0.4245790000000  0.5022870000000  0.4373170000000 1.0
C      1  0.5630000000000  0.5114180000000  0.4282950000000 1.0
C      1  0.5063860000000  0.5638580000000  0.4305210000000 1.0
C      1  0.4414460000000  0.5260060000000  0.4296290000000 1.0
C      1  0.4566800000000  0.4526170000000  0.4294530000000 1.0
C      1  0.5310250000000  0.4430860000000  0.4282600000000 1.0
C      1  0.5317900000000  0.4041200000000  0.4833850000000 1.0
C      1  0.5915710000000  0.5004980000000  0.4835990000000 1.0
C      1  0.5287570000000  0.5983090000000  0.4811310000000 1.0
C      1  0.4142930000000  0.5533580000000  0.4872800000000 1.0
C      1  0.4187090000000  0.4393750000000  0.4824880000000 1.0
C      1  0.4531130000000  0.5540140000000  0.4508780000000 1.0
C      1  0.4346200000000  0.4740180000000  0.4483970000000 1.0
C      1  0.5033500000000  0.4276750000000  0.4473560000000 1.0
C      1  0.5677010000000  0.4796630000000  0.4468800000000 1.0
C      1  0.5368440000000  0.5593930000000  0.4483330000000 1.0
C      1  0.4701310000000  0.5566380000000  0.5743310000000 1.0
C      1  0.4329680000000  0.4883400000000  0.5750340000000 1.0
C      1  0.4896060000000  0.4350610000000  0.5722760000000 1.0
C      1  0.5599490000000  0.4721780000000  0.5742350000000 1.0
C      1  0.5449910000000  0.5482760000000  0.5728060000000 1.0
C      1  0.5542840000000  0.4084820000000  0.4655880000000 1.0
C      1  0.5991570000000  0.5227250000000  0.4668470000000 1.0
C      1  0.5063770000000  0.6056520000000  0.4644490000000 1.0
C      1  0.4039150000000  0.5391020000000  0.4638830000000 1.0
C      1  0.4305030000000  0.4198000000000  0.4647280000000 1.0
C      1  0.5415910000000  0.4687810000000  0.5344660000000 1.0
C      1  0.5356170000000  0.5272210000000  0.5282940000000 1.0
C      1  0.4883740000000  0.5486600000000  0.5352490000000 1.0
C      1  0.4521930000000  0.4997730000000  0.5312770000000 1.0
C      1  0.4783300000000  0.4545210000000  0.5273420000000 1.0
C      1  0.4733400000000  0.5393130000000  0.5097100000000 1.0
C      1  0.4686830000000  0.5094330000000  0.5068360000000 1.0
C      1  0.4889840000000  0.4672130000000  0.5035040000000 1.0
C      1  0.5482970000000  0.4838180000000  0.5072720000000 1.0
C      1  0.5305650000000  0.5086560000000  0.5039460000000 1.0
C      1  0.5797350000000  0.4716930000000  0.5544320000000 1.0
C      1  0.5515880000000  0.5683390000000  0.5530310000000 1.0
C      1  0.4556290000000  0.5691770000000  0.5547350000000 1.0
C      1  0.4157590000000  0.4757190000000  0.5559040000000 1.0
C      1  0.4979600000000  0.4145450000000  0.5549070000000 1.0
C      1  0.5906770000000  0.4749740000000  0.5286530000000 1.0
C      1  0.5528440000000  0.5820960000000  0.5275370000000 1.0
C      1  0.4423560000000  0.5745880000000  0.5311870000000 1.0
C      1  0.4063430000000  0.4657840000000  0.5302610000000 1.0
C      1  0.5052280000000  0.4056660000000  0.5289930000000 1.0
C      1  0.3967860000000  0.4865670000000  0.5117680000000 1.0
C      1  0.4820910000000  0.4010230000000  0.5130200000000 1.0
C      1  0.5907620000000  0.4507440000000  0.5121450000000 1.0
C      1  0.5747560000000  0.5765800000000  0.5095250000000 1.0
C      1  0.4556700000000  0.5933200000000  0.5141680000000 1.0
C      1  0.5188120000000  0.5555330000000  0.5280210000000 1.0
C      1  0.4406510000000  0.5298290000000  0.5402790000000 1.0
C      1  0.4494720000000  0.4658740000000  0.5322810000000 1.0
C      1  0.5294270000000  0.4404580000000  0.5412100000000 1.0
C      1  0.5681250000000  0.5210380000000  0.5277040000000 1.0
C      1  0.4930740000000  0.5759100000000  0.4879550000000 1.0
C      1  0.4238850000000  0.5117720000000  0.4835710000000 1.0
C      1  0.4613620000000  0.4339450000000  0.4851480000000 1.0
C      1  0.5508930000000  0.4425100000000  0.4847940000000 1.0
C      1  0.5702870000000  0.5386800000000  0.4879310000000 1.0
C      1  0.5016080000000  0.4994100000000  0.4720880000000 1.0
C      1  0.4950310000000  0.4953480000000  0.5022000000000 1.0
END
