TITL C-3577080-309-145 -2.39247460017968e-06 125000 -1131.97210182988 0 0 184 (C1) n - 1
REM
REM in /home/bkarasulu/work/CARBON/AIRSS/Generating-Clusters/EDIP-Nigel-Params/with-SteepDescent/Higher-Symm/SD-CG/HFTN-CG
REM
REM
REM
REM
REM
REM ./C.cell (12c818d87b63d06a65506943cc24bca4)
REM
REM compiler GCC version 9.2.1 20190827 (Red Hat 9.2.1-1)
REM options -cpp -mtune=generic -march=x86-64 -g -O0 -fpre-include=/usr/include/finclude/math-vector-fortran.h
REM seed 280797027 1913042969 -218432254 -874163816 -832876730 -1732972406 2027236921 -2082747351 364742416 2117061306 1479676207 760969792 -94079689 691717710 -747776230 702125599 -1365799138 -1382628371 -1085995348 1572610974 1570902570 -2105506719 -344200249 2116759855 -2128354177 -379866156 1398191468 -2116486874 -1667311950 610361253 -995441151 -979781634 -1085199016
REM
CELL 1.54180   50.00000   50.00000   50.00000   90.00000   90.00000   90.00000
LATT -1
SFAC C  
C      1  0.5748150000000  0.5750160000000  0.5145850000000 1.0
C      1  0.4875880000000  0.6048450000000  0.5137370000000 1.0
C      1  0.4109450000000  0.5550070000000  0.5133260000000 1.0
C      1  0.3974160000000  0.4636460000000  0.5150480000000 1.0
C      1  0.4661320000000  0.4019020000000  0.5132450000000 1.0
C      1  0.5568840000000  0.4099830000000  0.5143590000000 1.0
C      1  0.6072180000000  0.4876860000000  0.5155410000000 1.0
C      1  0.5410800000000  0.5487480000000  0.4810140000000 1.0
C      1  0.4893590000000  0.5592020000000  0.4811770000000 1.0
C      1  0.4496880000000  0.5277590000000  0.4798790000000 1.0
C      1  0.4478390000000  0.4777310000000  0.4832850000000 1.0
C      1  0.4862010000000  0.4458080000000  0.4802530000000 1.0
C      1  0.5365510000000  0.4542170000000  0.4828240000000 1.0
C      1  0.5630180000000  0.4992300000000  0.4831870000000 1.0
C      1  0.5887330000000  0.5639610000000  0.4681810000000 1.0
C      1  0.5045770000000  0.6085210000000  0.4669720000000 1.0
C      1  0.4183310000000  0.5703490000000  0.4666910000000 1.0
C      1  0.3941120000000  0.4800030000000  0.4676550000000 1.0
C      1  0.4490280000000  0.4056610000000  0.4670810000000 1.0
C      1  0.5423850000000  0.4013670000000  0.4672880000000 1.0
C      1  0.6057860000000  0.4704160000000  0.4686840000000 1.0
C      1  0.5196040000000  0.5391280000000  0.5815820000000 1.0
C      1  0.4806800000000  0.5381740000000  0.5798180000000 1.0
C      1  0.4581860000000  0.5090630000000  0.5749480000000 1.0
C      1  0.4645460000000  0.4722900000000  0.5817190000000 1.0
C      1  0.4988440000000  0.4540120000000  0.5796520000000 1.0
C      1  0.5330500000000  0.4726670000000  0.5795880000000 1.0
C      1  0.5411430000000  0.5088510000000  0.5767350000000 1.0
C      1  0.6089730000000  0.5101500000000  0.4968560000000 1.0
C      1  0.5579440000000  0.5896110000000  0.4957070000000 1.0
C      1  0.4654340000000  0.6009390000000  0.4950790000000 1.0
C      1  0.4001180000000  0.5350130000000  0.4954930000000 1.0
C      1  0.4091350000000  0.4443690000000  0.4969900000000 1.0
C      1  0.4877450000000  0.3955800000000  0.4951830000000 1.0
C      1  0.5758800000000  0.4226660000000  0.4963850000000 1.0
C      1  0.4625790000000  0.4573410000000  0.5249690000000 1.0
C      1  0.5112520000000  0.4435870000000  0.5245670000000 1.0
C      1  0.5527790000000  0.4729880000000  0.5254190000000 1.0
C      1  0.5551260000000  0.5233540000000  0.5268290000000 1.0
C      1  0.5154370000000  0.5553720000000  0.5248690000000 1.0
C      1  0.4664930000000  0.5459940000000  0.5235790000000 1.0
C      1  0.4426030000000  0.5036420000000  0.5243060000000 1.0
C      1  0.4379840000000  0.4740380000000  0.5122440000000 1.0
C      1  0.4830390000000  0.4368960000000  0.5101050000000 1.0
C      1  0.5414500000000  0.4458900000000  0.5113950000000 1.0
C      1  0.5695250000000  0.4977610000000  0.5124620000000 1.0
C      1  0.5443130000000  0.5508170000000  0.5119660000000 1.0
C      1  0.4874710000000  0.5658330000000  0.5104890000000 1.0
C      1  0.4419180000000  0.5312420000000  0.5095220000000 1.0
C      1  0.4943180000000  0.4742470000000  0.4787130000000 1.0
C      1  0.5203390000000  0.4781160000000  0.4861170000000 1.0
C      1  0.5343280000000  0.5025870000000  0.4842800000000 1.0
C      1  0.5233440000000  0.5263110000000  0.4742670000000 1.0
C      1  0.4973730000000  0.5319150000000  0.4826650000000 1.0
C      1  0.4761020000000  0.5149450000000  0.4780210000000 1.0
C      1  0.4740320000000  0.4896760000000  0.4875740000000 1.0
C      1  0.4662190000000  0.4947390000000  0.3859660000000 1.0
C      1  0.4761300000000  0.4684080000000  0.3901770000000 1.0
C      1  0.5036120000000  0.4689720000000  0.3841170000000 1.0
C      1  0.5117000000000  0.4937670000000  0.3958950000000 1.0
C      1  0.5136070000000  0.5164720000000  0.3791820000000 1.0
C      1  0.4958560000000  0.5347230000000  0.3923500000000 1.0
C      1  0.4686180000000  0.5221710000000  0.3937830000000 1.0
C      1  0.5496660000000  0.5859390000000  0.4434740000000 1.0
C      1  0.4615410000000  0.5919670000000  0.4433540000000 1.0
C      1  0.4039370000000  0.5262430000000  0.4444540000000 1.0
C      1  0.4186660000000  0.4417760000000  0.4452470000000 1.0
C      1  0.4943620000000  0.4015580000000  0.4445650000000 1.0
C      1  0.5743270000000  0.4339430000000  0.4451420000000 1.0
C      1  0.5984850000000  0.5142520000000  0.4442200000000 1.0
C      1  0.4201520000000  0.4212500000000  0.5095730000000 1.0
C      1  0.5118710000000  0.3877770000000  0.5086490000000 1.0
C      1  0.5951070000000  0.4388620000000  0.5104270000000 1.0
C      1  0.6044680000000  0.5348960000000  0.5106220000000 1.0
C      1  0.5376750000000  0.6049270000000  0.5090940000000 1.0
C      1  0.4406950000000  0.5951070000000  0.5085620000000 1.0
C      1  0.3879270000000  0.5127100000000  0.5089640000000 1.0
C      1  0.4653750000000  0.5030020000000  0.5449340000000 1.0
C      1  0.4786110000000  0.4765200000000  0.5404530000000 1.0
C      1  0.5063650000000  0.4687490000000  0.5390530000000 1.0
C      1  0.5292540000000  0.4854570000000  0.5375900000000 1.0
C      1  0.5329630000000  0.5128640000000  0.5461390000000 1.0
C      1  0.5096400000000  0.5308370000000  0.5400790000000 1.0
C      1  0.4819490000000  0.5254540000000  0.5372980000000 1.0
C      1  0.3892610000000  0.4860970000000  0.4971000000000 1.0
C      1  0.4419130000000  0.4063280000000  0.4967170000000 1.0
C      1  0.5377940000000  0.3950140000000  0.4968890000000 1.0
C      1  0.6071270000000  0.4630000000000  0.4984980000000 1.0
C      1  0.5935900000000  0.5588140000000  0.4980940000000 1.0
C      1  0.5116380000000  0.6087420000000  0.4967670000000 1.0
C      1  0.4204750000000  0.5776000000000  0.4963290000000 1.0
C      1  0.5127440000000  0.4111650000000  0.5541030000000 1.0
C      1  0.5779800000000  0.4544730000000  0.5563760000000 1.0
C      1  0.5841390000000  0.5343750000000  0.5580580000000 1.0
C      1  0.5259510000000  0.5853740000000  0.5552090000000 1.0
C      1  0.4492460000000  0.5723360000000  0.5541770000000 1.0
C      1  0.4101170000000  0.5028190000000  0.5542280000000 1.0
C      1  0.4395890000000  0.4350000000000  0.5549110000000 1.0
C      1  0.4097550000000  0.4565260000000  0.5796410000000 1.0
C      1  0.4760980000000  0.4044930000000  0.5782840000000 1.0
C      1  0.5587410000000  0.4218600000000  0.5794590000000 1.0
C      1  0.5984750000000  0.4985870000000  0.5801180000000 1.0
C      1  0.5621210000000  0.5774660000000  0.5796160000000 1.0
C      1  0.4788130000000  0.5947410000000  0.5785810000000 1.0
C      1  0.4121360000000  0.5408640000000  0.5775720000000 1.0
C      1  0.5566890000000  0.5682740000000  0.4230570000000 1.0
C      1  0.4798170000000  0.5865310000000  0.4227980000000 1.0
C      1  0.4170670000000  0.5379070000000  0.4226990000000 1.0
C      1  0.4183470000000  0.4593110000000  0.4233750000000 1.0
C      1  0.4800850000000  0.4119660000000  0.4229180000000 1.0
C      1  0.5552560000000  0.4327660000000  0.4246360000000 1.0
C      1  0.5916460000000  0.4984520000000  0.4221800000000 1.0
C      1  0.5340380000000  0.5683330000000  0.5780020000000 1.0
C      1  0.4678220000000  0.5675940000000  0.5763140000000 1.0
C      1  0.4264230000000  0.5153960000000  0.5754260000000 1.0
C      1  0.4391260000000  0.4526910000000  0.5785680000000 1.0
C      1  0.4988300000000  0.4226700000000  0.5772930000000 1.0
C      1  0.5576710000000  0.4512980000000  0.5776500000000 1.0
C      1  0.5738490000000  0.5149030000000  0.5776760000000 1.0
C      1  0.4986700000000  0.5820300000000  0.5485260000000 1.0
C      1  0.4349840000000  0.5486590000000  0.5479790000000 1.0
C      1  0.4180090000000  0.4757460000000  0.5476750000000 1.0
C      1  0.4659110000000  0.4262220000000  0.5483850000000 1.0
C      1  0.5364580000000  0.4257350000000  0.5488310000000 1.0
C      1  0.5819930000000  0.4816370000000  0.5501670000000 1.0
C      1  0.5644850000000  0.5532440000000  0.5502020000000 1.0
C      1  0.5128860000000  0.4622990000000  0.4263740000000 1.0
C      1  0.5416770000000  0.4889580000000  0.4273530000000 1.0
C      1  0.5303980000000  0.5260870000000  0.4310390000000 1.0
C      1  0.5056050000000  0.5436710000000  0.4198790000000 1.0
C      1  0.4652250000000  0.5260850000000  0.4229240000000 1.0
C      1  0.4597880000000  0.4882090000000  0.4286830000000 1.0
C      1  0.4772420000000  0.4616910000000  0.4194600000000 1.0
C      1  0.4028490000000  0.5443990000000  0.4677340000000 1.0
C      1  0.4044540000000  0.4521200000000  0.4690190000000 1.0
C      1  0.4774220000000  0.3958510000000  0.4677360000000 1.0
C      1  0.5675720000000  0.4173730000000  0.4684690000000 1.0
C      1  0.6053400000000  0.5001210000000  0.4692450000000 1.0
C      1  0.5658150000000  0.5833710000000  0.4679790000000 1.0
C      1  0.4745120000000  0.6043260000000  0.4670800000000 1.0
C      1  0.5713440000000  0.4815980000000  0.4314590000000 1.0
C      1  0.5572690000000  0.5410420000000  0.4287820000000 1.0
C      1  0.5039250000000  0.5729820000000  0.4260060000000 1.0
C      1  0.4430520000000  0.5467610000000  0.4278370000000 1.0
C      1  0.4289240000000  0.4845900000000  0.4288460000000 1.0
C      1  0.4641330000000  0.4344780000000  0.4262870000000 1.0
C      1  0.5278090000000  0.4348210000000  0.4290530000000 1.0
C      1  0.4575610000000  0.4514040000000  0.4701250000000 1.0
C      1  0.5144300000000  0.4356960000000  0.4715860000000 1.0
C      1  0.5617290000000  0.4696030000000  0.4732270000000 1.0
C      1  0.5673470000000  0.5315520000000  0.4757780000000 1.0
C      1  0.5170480000000  0.5712770000000  0.4743310000000 1.0
C      1  0.4599930000000  0.5553560000000  0.4710350000000 1.0
C      1  0.4345200000000  0.5018350000000  0.4709220000000 1.0
C      1  0.6042020000000  0.5322170000000  0.5386250000000 1.0
C      1  0.5388910000000  0.6027150000000  0.5372030000000 1.0
C      1  0.4435860000000  0.5937390000000  0.5366640000000 1.0
C      1  0.3903480000000  0.5136880000000  0.5371060000000 1.0
C      1  0.4205150000000  0.4232670000000  0.5377640000000 1.0
C      1  0.5093960000000  0.3891300000000  0.5368190000000 1.0
C      1  0.5918770000000  0.4377310000000  0.5384950000000 1.0
C      1  0.4848850000000  0.5318080000000  0.6083370000000 1.0
C      1  0.4747900000000  0.5067860000000  0.6151250000000 1.0
C      1  0.4736460000000  0.4795050000000  0.6096320000000 1.0
C      1  0.4997290000000  0.4654640000000  0.6073460000000 1.0
C      1  0.5250280000000  0.4812070000000  0.6075930000000 1.0
C      1  0.5236440000000  0.5076490000000  0.6163640000000 1.0
C      1  0.5134440000000  0.5325700000000  0.6096470000000 1.0
C      1  0.4678680000000  0.3953660000000  0.5511790000000 1.0
C      1  0.5616520000000  0.4084800000000  0.5526180000000 1.0
C      1  0.6109250000000  0.4910060000000  0.5537520000000 1.0
C      1  0.5747520000000  0.5819470000000  0.5526400000000 1.0
C      1  0.4827040000000  0.6080290000000  0.5519470000000 1.0
C      1  0.4047240000000  0.5530260000000  0.5513520000000 1.0
C      1  0.3953900000000  0.4561820000000  0.5532250000000 1.0
C      1  0.5199390000000  0.4161170000000  0.4512710000000 1.0
C      1  0.5803340000000  0.4622350000000  0.4527760000000 1.0
C      1  0.5797780000000  0.5369330000000  0.4485810000000 1.0
C      1  0.5201790000000  0.5858680000000  0.4478970000000 1.0
C      1  0.4446260000000  0.5677970000000  0.4501860000000 1.0
C      1  0.4134200000000  0.4982820000000  0.4513940000000 1.0
C      1  0.4463810000000  0.4322020000000  0.4511040000000 1.0
C      1  0.5158130000000  0.4940460000000  0.4455330000000 1.0
C      1  0.4957050000000  0.5015450000000  0.4221190000000 1.0
END
