TITL C-3577089-586-146 3.32854116264968e-06 125000 -1161.6182506167 0 0 183 (C1) n - 1
REM
REM in /home/bkarasulu/work/CARBON/AIRSS/Generating-Clusters/EDIP-Nigel-Params/with-SteepDescent/Higher-Symm/SD-CG/HFTN-CG
REM
REM
REM
REM
REM
REM ./C.cell (12c818d87b63d06a65506943cc24bca4)
REM
REM compiler GCC version 9.2.1 20190827 (Red Hat 9.2.1-1)
REM options -cpp -mtune=generic -march=x86-64 -g -O0 -fpre-include=/usr/include/finclude/math-vector-fortran.h
REM seed -903462673 -1888305026 1830138983 -1935116270 375824456 1273522581 -1173065020 -347875103 1955737720 -203720089 -992660482 -1547804989 -809761961 1246981909 1727660145 -491685357 -1514190130 837897708 1540678422 1221671468 1133047555 1751912592 1918592234 570416551 584107634 327192766 -662289163 -1960046636 -382403582 -966021435 -1605801137 1279878305 -172914059
REM
CELL 1.54180   50.00000   50.00000   50.00000   90.00000   90.00000   90.00000
LATT -1
SFAC C  
C      1  0.4024050000000  0.4879930000000  0.5563650000000 1.0
C      1  0.4610200000000  0.5931020000000  0.5611250000000 1.0
C      1  0.5752760000000  0.5690220000000  0.5587610000000 1.0
C      1  0.5871150000000  0.4475830000000  0.5602090000000 1.0
C      1  0.4784050000000  0.4003400000000  0.5633200000000 1.0
C      1  0.4637490000000  0.4361310000000  0.5694510000000 1.0
C      1  0.4320810000000  0.5168750000000  0.5631630000000 1.0
C      1  0.4945620000000  0.5744900000000  0.5697030000000 1.0
C      1  0.5707030000000  0.5291230000000  0.5722430000000 1.0
C      1  0.5497260000000  0.4437440000000  0.5750110000000 1.0
C      1  0.5678490000000  0.4338910000000  0.5384290000000 1.0
C      1  0.4542350000000  0.4037290000000  0.5420700000000 1.0
C      1  0.4036500000000  0.5123840000000  0.5352280000000 1.0
C      1  0.4816470000000  0.6028780000000  0.5394240000000 1.0
C      1  0.5850620000000  0.5452830000000  0.5388620000000 1.0
C      1  0.4796830000000  0.5065010000000  0.3778860000000 1.0
C      1  0.5024210000000  0.5253250000000  0.3838390000000 1.0
C      1  0.5269150000000  0.5086240000000  0.3835860000000 1.0
C      1  0.5170720000000  0.4808580000000  0.3838490000000 1.0
C      1  0.4875790000000  0.4794980000000  0.3862900000000 1.0
C      1  0.5662970000000  0.5668600000000  0.4614410000000 1.0
C      1  0.5912940000000  0.4510390000000  0.4561860000000 1.0
C      1  0.4798990000000  0.4010260000000  0.4555270000000 1.0
C      1  0.3962970000000  0.4842160000000  0.4595620000000 1.0
C      1  0.4557800000000  0.5911160000000  0.4527130000000 1.0
C      1  0.4809670000000  0.4178440000000  0.5881670000000 1.0
C      1  0.4195900000000  0.4934210000000  0.5797220000000 1.0
C      1  0.4689380000000  0.5774970000000  0.5861220000000 1.0
C      1  0.5662380000000  0.5584230000000  0.5849160000000 1.0
C      1  0.5760500000000  0.4556410000000  0.5873520000000 1.0
C      1  0.4353290000000  0.4424390000000  0.5772630000000 1.0
C      1  0.4289850000000  0.5438500000000  0.5756510000000 1.0
C      1  0.5205840000000  0.5877940000000  0.5788840000000 1.0
C      1  0.5908850000000  0.5069890000000  0.5788540000000 1.0
C      1  0.5345180000000  0.4178630000000  0.5811140000000 1.0
C      1  0.4990840000000  0.5270490000000  0.5214010000000 1.0
C      1  0.5402870000000  0.5156980000000  0.5105050000000 1.0
C      1  0.5285280000000  0.4624890000000  0.5042130000000 1.0
C      1  0.4888940000000  0.4806240000000  0.5215960000000 1.0
C      1  0.4545720000000  0.5116350000000  0.5081200000000 1.0
C      1  0.5090530000000  0.5728520000000  0.5087850000000 1.0
C      1  0.5673030000000  0.5058620000000  0.5163450000000 1.0
C      1  0.5181470000000  0.4358140000000  0.5078260000000 1.0
C      1  0.4499590000000  0.4455280000000  0.5095090000000 1.0
C      1  0.4445170000000  0.5381840000000  0.5120510000000 1.0
C      1  0.6056820000000  0.4999640000000  0.5539980000000 1.0
C      1  0.5321900000000  0.4017830000000  0.5561180000000 1.0
C      1  0.4168490000000  0.4368670000000  0.5546270000000 1.0
C      1  0.4186390000000  0.5598430000000  0.5534750000000 1.0
C      1  0.5315720000000  0.6017560000000  0.5550490000000 1.0
C      1  0.4322160000000  0.4172540000000  0.4744070000000 1.0
C      1  0.4080080000000  0.5354270000000  0.4793760000000 1.0
C      1  0.5030890000000  0.6093810000000  0.4752600000000 1.0
C      1  0.5942300000000  0.5258740000000  0.4803450000000 1.0
C      1  0.5537840000000  0.4154710000000  0.4794070000000 1.0
C      1  0.4256510000000  0.5782650000000  0.4964150000000 1.0
C      1  0.5472310000000  0.5996860000000  0.4975640000000 1.0
C      1  0.6047840000000  0.4822370000000  0.4969260000000 1.0
C      1  0.5147060000000  0.3897710000000  0.4993210000000 1.0
C      1  0.4044600000000  0.4489380000000  0.4957220000000 1.0
C      1  0.5056410000000  0.5439610000000  0.4093050000000 1.0
C      1  0.5484130000000  0.5102480000000  0.4057730000000 1.0
C      1  0.5273230000000  0.4625520000000  0.4053050000000 1.0
C      1  0.4725560000000  0.4739920000000  0.4143550000000 1.0
C      1  0.4541420000000  0.5140530000000  0.3891420000000 1.0
C      1  0.4227490000000  0.5507670000000  0.4583870000000 1.0
C      1  0.5251180000000  0.6007700000000  0.4566250000000 1.0
C      1  0.5966940000000  0.5064540000000  0.4578070000000 1.0
C      1  0.5308120000000  0.4116730000000  0.4613870000000 1.0
C      1  0.4202890000000  0.4370940000000  0.4553010000000 1.0
C      1  0.5565120000000  0.4660940000000  0.5011650000000 1.0
C      1  0.4745480000000  0.4285410000000  0.5111970000000 1.0
C      1  0.4361790000000  0.4892420000000  0.5043900000000 1.0
C      1  0.4776430000000  0.5698970000000  0.5069360000000 1.0
C      1  0.5435730000000  0.5455070000000  0.5096860000000 1.0
C      1  0.4198640000000  0.4674270000000  0.4177950000000 1.0
C      1  0.4477170000000  0.5545520000000  0.4173590000000 1.0
C      1  0.5405420000000  0.5716630000000  0.4198090000000 1.0
C      1  0.5814940000000  0.4833760000000  0.4177300000000 1.0
C      1  0.5078520000000  0.4214610000000  0.4199110000000 1.0
C      1  0.4263180000000  0.4289190000000  0.5029040000000 1.0
C      1  0.4178500000000  0.5492380000000  0.5050310000000 1.0
C      1  0.5168760000000  0.6024940000000  0.5050370000000 1.0
C      1  0.5951560000000  0.5098280000000  0.5061610000000 1.0
C      1  0.5374690000000  0.4112600000000  0.5061250000000 1.0
C      1  0.4335180000000  0.4441730000000  0.4303350000000 1.0
C      1  0.4275950000000  0.5393520000000  0.4324400000000 1.0
C      1  0.5175650000000  0.5871050000000  0.4317710000000 1.0
C      1  0.5835720000000  0.5088660000000  0.4327300000000 1.0
C      1  0.5339040000000  0.4192570000000  0.4338380000000 1.0
C      1  0.4997570000000  0.5257460000000  0.4911940000000 1.0
C      1  0.5255260000000  0.5072390000000  0.4844670000000 1.0
C      1  0.5148060000000  0.4794420000000  0.4856640000000 1.0
C      1  0.4860720000000  0.4795570000000  0.4907630000000 1.0
C      1  0.4763910000000  0.5082890000000  0.4881060000000 1.0
C      1  0.4768250000000  0.6053970000000  0.4653160000000 1.0
C      1  0.5815550000000  0.5522120000000  0.4821370000000 1.0
C      1  0.5762920000000  0.4309130000000  0.4703800000000 1.0
C      1  0.4542570000000  0.4017880000000  0.4667580000000 1.0
C      1  0.3972070000000  0.5070930000000  0.4810960000000 1.0
C      1  0.5023240000000  0.4328950000000  0.5341500000000 1.0
C      1  0.4422460000000  0.4690970000000  0.5261530000000 1.0
C      1  0.4617960000000  0.5547990000000  0.5285010000000 1.0
C      1  0.5317230000000  0.5589100000000  0.5339050000000 1.0
C      1  0.5648160000000  0.4825050000000  0.5327290000000 1.0
C      1  0.5301120000000  0.5564280000000  0.3993410000000 1.0
C      1  0.5636000000000  0.4868920000000  0.3969420000000 1.0
C      1  0.5097810000000  0.4403110000000  0.4001190000000 1.0
C      1  0.4471460000000  0.4937810000000  0.4106410000000 1.0
C      1  0.4542150000000  0.5414430000000  0.3938700000000 1.0
C      1  0.4895330000000  0.4817870000000  0.4398170000000 1.0
C      1  0.4672900000000  0.5199630000000  0.4626060000000 1.0
C      1  0.5094880000000  0.5251630000000  0.4333710000000 1.0
C      1  0.5323850000000  0.5059960000000  0.4334080000000 1.0
C      1  0.5203990000000  0.4781380000000  0.4334040000000 1.0
C      1  0.5440030000000  0.4888870000000  0.5537670000000 1.0
C      1  0.5058430000000  0.4555340000000  0.5535960000000 1.0
C      1  0.4663980000000  0.4804230000000  0.5422330000000 1.0
C      1  0.4790450000000  0.5344410000000  0.5432730000000 1.0
C      1  0.5254330000000  0.5384830000000  0.5547960000000 1.0
C      1  0.5431970000000  0.5171690000000  0.5681200000000 1.0
C      1  0.5302170000000  0.4658160000000  0.5688900000000 1.0
C      1  0.4793560000000  0.4622650000000  0.5644090000000 1.0
C      1  0.4611260000000  0.5100000000000  0.5567800000000 1.0
C      1  0.4984490000000  0.5443020000000  0.5653470000000 1.0
C      1  0.5457200000000  0.5064240000000  0.4616650000000 1.0
C      1  0.5394890000000  0.4631090000000  0.4527970000000 1.0
C      1  0.4697810000000  0.4618570000000  0.4665050000000 1.0
C      1  0.4431290000000  0.5031140000000  0.4589190000000 1.0
C      1  0.4964340000000  0.5538220000000  0.4635820000000 1.0
C      1  0.5408900000000  0.5705960000000  0.5892630000000 1.0
C      1  0.5808310000000  0.4832630000000  0.5906180000000 1.0
C      1  0.5086600000000  0.4212560000000  0.5923280000000 1.0
C      1  0.4318940000000  0.4690360000000  0.5858590000000 1.0
C      1  0.4509980000000  0.5561200000000  0.5880690000000 1.0
C      1  0.4854620000000  0.4783550000000  0.5897620000000 1.0
C      1  0.4741280000000  0.5066050000000  0.5857690000000 1.0
C      1  0.4969650000000  0.5266170000000  0.5901440000000 1.0
C      1  0.5240170000000  0.5106950000000  0.5929760000000 1.0
C      1  0.5165960000000  0.4803050000000  0.5932500000000 1.0
C      1  0.5509440000000  0.4097690000000  0.5341350000000 1.0
C      1  0.4276200000000  0.4169520000000  0.5350090000000 1.0
C      1  0.4048380000000  0.5434850000000  0.5318590000000 1.0
C      1  0.5105080000000  0.6091640000000  0.5346210000000 1.0
C      1  0.6052110000000  0.5219690000000  0.5329220000000 1.0
C      1  0.4427800000000  0.5705620000000  0.4705890000000 1.0
C      1  0.5428010000000  0.5829250000000  0.4726510000000 1.0
C      1  0.5917700000000  0.4788480000000  0.4693100000000 1.0
C      1  0.5034360000000  0.4067480000000  0.4745980000000 1.0
C      1  0.4143320000000  0.4620000000000  0.4704570000000 1.0
C      1  0.4430770000000  0.5753940000000  0.5427490000000 1.0
C      1  0.5514380000000  0.5813420000000  0.5431950000000 1.0
C      1  0.5925060000000  0.4734960000000  0.5433230000000 1.0
C      1  0.5036300000000  0.4042600000000  0.5455140000000 1.0
C      1  0.4137830000000  0.4639850000000  0.5406460000000 1.0
C      1  0.5650030000000  0.5869270000000  0.5166270000000 1.0
C      1  0.6015040000000  0.4613430000000  0.5169850000000 1.0
C      1  0.4958630000000  0.3867600000000  0.5218080000000 1.0
C      1  0.3963900000000  0.4675870000000  0.5159450000000 1.0
C      1  0.4383540000000  0.5935320000000  0.5183030000000 1.0
C      1  0.5217760000000  0.5622360000000  0.4823270000000 1.0
C      1  0.5596250000000  0.4787620000000  0.4713320000000 1.0
C      1  0.4946960000000  0.4325540000000  0.4878790000000 1.0
C      1  0.4413590000000  0.4775810000000  0.4752470000000 1.0
C      1  0.4687900000000  0.5551410000000  0.4793440000000 1.0
C      1  0.4061490000000  0.4959310000000  0.5082320000000 1.0
C      1  0.4675440000000  0.5983360000000  0.5128040000000 1.0
C      1  0.5718080000000  0.5570770000000  0.5102110000000 1.0
C      1  0.5765580000000  0.4449280000000  0.5117420000000 1.0
C      1  0.4687110000000  0.3989450000000  0.5162810000000 1.0
C      1  0.4302520000000  0.5083540000000  0.4333860000000 1.0
C      1  0.4947680000000  0.5668480000000  0.4341430000000 1.0
C      1  0.5737640000000  0.5342660000000  0.4215680000000 1.0
C      1  0.5500370000000  0.4456890000000  0.4297130000000 1.0
C      1  0.4637060000000  0.4467300000000  0.4353230000000 1.0
C      1  0.5800680000000  0.4549690000000  0.4290070000000 1.0
C      1  0.4814630000000  0.4204610000000  0.4334740000000 1.0
C      1  0.4060580000000  0.4904970000000  0.4316800000000 1.0
C      1  0.4657480000000  0.5761800000000  0.4289940000000 1.0
C      1  0.5601510000000  0.5561820000000  0.4352890000000 1.0
C      1  0.4855400000000  0.5110010000000  0.4411430000000 1.0
C      1  0.5036820000000  0.4997550000000  0.5596900000000 1.0
C      1  0.5099410000000  0.5009600000000  0.5294810000000 1.0
END
