TITL C-3578202-4305-212 6.9598391140676e-07 125000 -540.91561293831 0 0 86 (C1) n - 1
REM
REM in /home/bkarasulu/work/CARBON/AIRSS/Generating-Clusters/EDIP-Nigel-Params/with-SteepDescent/Higher-Symm/SD-CG/HFTN-CG
REM
REM
REM
REM
REM
REM ./C.cell (12c818d87b63d06a65506943cc24bca4)
REM
REM compiler GCC version 9.2.1 20190827 (Red Hat 9.2.1-1)
REM options -cpp -mtune=generic -march=x86-64 -g -O0 -fpre-include=/usr/include/finclude/math-vector-fortran.h
REM seed -636396056 235498426 -1217957727 596893778 627877699 1005191062 -574735630 1615622774 641838771 1448691045 2042036637 1657717903 -421817607 -1091041204 1263498931 -501993853 239500956 2091302411 1307042226 422516746 1641630528 -17252174 -697364494 1759595401 -1158984001 -718332085 -984997795 603250630 1194280993 1290038267 666696364 537473299 1754507272
REM
CELL 1.54180   50.00000   50.00000   50.00000   90.00000   90.00000   90.00000
LATT -1
SFAC C  
C      1  0.5680330000000  0.4745700000000  0.5350240000000 1.0
C      1  0.4855100000000  0.4731490000000  0.5699540000000 1.0
C      1  0.4213060000000  0.4691720000000  0.5166060000000 1.0
C      1  0.4679470000000  0.4697360000000  0.4350260000000 1.0
C      1  0.5546260000000  0.4699660000000  0.4450950000000 1.0
C      1  0.5603160000000  0.5441470000000  0.5111700000000 1.0
C      1  0.5053940000000  0.5376920000000  0.5523970000000 1.0
C      1  0.4434820000000  0.5511980000000  0.5249170000000 1.0
C      1  0.4605190000000  0.5534450000000  0.4581620000000 1.0
C      1  0.5292270000000  0.5442920000000  0.4487530000000 1.0
C      1  0.4785580000000  0.4382300000000  0.5358560000000 1.0
C      1  0.4587520000000  0.4355250000000  0.4962990000000 1.0
C      1  0.4973770000000  0.4328410000000  0.4540520000000 1.0
C      1  0.5426700000000  0.4342710000000  0.4785920000000 1.0
C      1  0.5291870000000  0.4411830000000  0.5286470000000 1.0
C      1  0.4699400000000  0.4921010000000  0.4155290000000 1.0
C      1  0.5768410000000  0.4896400000000  0.4420520000000 1.0
C      1  0.5779010000000  0.4918200000000  0.5569650000000 1.0
C      1  0.4687470000000  0.4912860000000  0.5863790000000 1.0
C      1  0.4063400000000  0.4921150000000  0.5026660000000 1.0
C      1  0.4173230000000  0.4927110000000  0.4749750000000 1.0
C      1  0.4987720000000  0.4926960000000  0.4057760000000 1.0
C      1  0.5904770000000  0.4915170000000  0.4693710000000 1.0
C      1  0.5556560000000  0.4918210000000  0.5783160000000 1.0
C      1  0.4413570000000  0.4935390000000  0.5732460000000 1.0
C      1  0.4300130000000  0.5259000000000  0.5353730000000 1.0
C      1  0.4525020000000  0.5247820000000  0.4548030000000 1.0
C      1  0.5334210000000  0.5169610000000  0.4340340000000 1.0
C      1  0.5778330000000  0.5194330000000  0.5110200000000 1.0
C      1  0.5120520000000  0.5157990000000  0.5715760000000 1.0
C      1  0.5632910000000  0.4902680000000  0.5095790000000 1.0
C      1  0.5107140000000  0.4860770000000  0.5598190000000 1.0
C      1  0.4435620000000  0.4996790000000  0.5248580000000 1.0
C      1  0.4644970000000  0.4775770000000  0.4638840000000 1.0
C      1  0.5283460000000  0.4839800000000  0.4425730000000 1.0
C      1  0.4864960000000  0.5555110000000  0.4458100000000 1.0
C      1  0.5517510000000  0.5508420000000  0.4648360000000 1.0
C      1  0.5451260000000  0.5472930000000  0.5349100000000 1.0
C      1  0.4784780000000  0.5383720000000  0.5491360000000 1.0
C      1  0.4367540000000  0.5575230000000  0.4980980000000 1.0
C      1  0.4368720000000  0.4707360000000  0.4721490000000 1.0
C      1  0.5126720000000  0.4704980000000  0.4205580000000 1.0
C      1  0.5755130000000  0.4736380000000  0.4876290000000 1.0
C      1  0.5351060000000  0.4715550000000  0.5694660000000 1.0
C      1  0.4427740000000  0.4769000000000  0.5476450000000 1.0
C      1  0.5052880000000  0.4319270000000  0.5386650000000 1.0
C      1  0.4622830000000  0.4218820000000  0.5201640000000 1.0
C      1  0.4759470000000  0.4289890000000  0.4735930000000 1.0
C      1  0.5234570000000  0.4250310000000  0.4606790000000 1.0
C      1  0.5392550000000  0.4297300000000  0.5055920000000 1.0
C      1  0.5070750000000  0.5527960000000  0.4672440000000 1.0
C      1  0.5405520000000  0.5481730000000  0.4910860000000 1.0
C      1  0.5163590000000  0.5481840000000  0.5280960000000 1.0
C      1  0.4721400000000  0.5537150000000  0.5267960000000 1.0
C      1  0.4618640000000  0.5623780000000  0.4846970000000 1.0
C      1  0.5152440000000  0.5194840000000  0.4946890000000 1.0
C      1  0.4953430000000  0.5116950000000  0.5186380000000 1.0
C      1  0.4683730000000  0.5019240000000  0.5060710000000 1.0
C      1  0.4704060000000  0.5064560000000  0.4727440000000 1.0
C      1  0.5002640000000  0.5100140000000  0.4697960000000 1.0
C      1  0.4612560000000  0.5192270000000  0.4253370000000 1.0
C      1  0.5655350000000  0.5163160000000  0.4343450000000 1.0
C      1  0.5821660000000  0.5188450000000  0.5454950000000 1.0
C      1  0.4825430000000  0.5174790000000  0.5885240000000 1.0
C      1  0.4068840000000  0.5206430000000  0.5129310000000 1.0
C      1  0.4917300000000  0.4522820000000  0.4318470000000 1.0
C      1  0.5552610000000  0.4594470000000  0.4720420000000 1.0
C      1  0.5453660000000  0.4589020000000  0.5449780000000 1.0
C      1  0.4684250000000  0.4614430000000  0.5497730000000 1.0
C      1  0.4360270000000  0.4538600000000  0.4951840000000 1.0
C      1  0.4362770000000  0.5222580000000  0.5667550000000 1.0
C      1  0.4240600000000  0.5202740000000  0.4654970000000 1.0
C      1  0.5103870000000  0.5196030000000  0.4127630000000 1.0
C      1  0.5891430000000  0.5191690000000  0.4801600000000 1.0
C      1  0.5424480000000  0.5187670000000  0.5779120000000 1.0
C      1  0.5119170000000  0.4819770000000  0.5265930000000 1.0
C      1  0.4839860000000  0.4743920000000  0.5111420000000 1.0
C      1  0.4879880000000  0.4652940000000  0.4813790000000 1.0
C      1  0.5132660000000  0.4829210000000  0.4707350000000 1.0
C      1  0.5320190000000  0.4923350000000  0.5035740000000 1.0
C      1  0.4630930000000  0.5346370000000  0.5730400000000 1.0
C      1  0.4159240000000  0.5375570000000  0.4889430000000 1.0
C      1  0.4859250000000  0.5361990000000  0.4220030000000 1.0
C      1  0.5747020000000  0.5336730000000  0.4573610000000 1.0
C      1  0.5588480000000  0.5335510000000  0.5571180000000 1.0
C      1  0.4944260000000  0.5569180000000  0.5040820000000 1.0
END
