TITL C-3578207-9274-12 -3.19859259926551e-08 125000 -103.581702034542 0 0 18 (D3) n - 1
REM
REM in /home/bkarasulu/work/CARBON/AIRSS/Generating-Clusters/EDIP-Nigel-Params/with-SteepDescent/Higher-Symm/SD-CG/HFTN-CG
REM
REM
REM
REM
REM
REM ./C.cell (12c818d87b63d06a65506943cc24bca4)
REM
REM compiler GCC version 9.2.1 20190827 (Red Hat 9.2.1-1)
REM options -cpp -mtune=generic -march=x86-64 -g -O0 -fpre-include=/usr/include/finclude/math-vector-fortran.h
REM seed -385158332 -1760847179 1278969932 2134742284 -1584550392 -539783288 1871477553 682666134 72072279 2118054239 341455762 51054216 -22038354 521570547 437670755 -1502741031 -1528364727 261954779 339815567 -1861241204 445747329 -1272409423 367719228 2828150 265788048 -417056268 210959813 -519587476 1817374923 -490475290 -257842083 -131856948 1371481448
REM
CELL 1.54180   50.00000   50.00000   50.00000   90.00000   90.00000   90.00000
LATT -1
SFAC C  
C      1  0.5406470000000  0.4991980000000  0.5047050000000 1.0
C      1  0.4756000000000  0.4995730000000  0.5328550000000 1.0
C      1  0.4837440000000  0.4993170000000  0.4624470000000 1.0
C      1  0.5170450000000  0.5254490000000  0.5392090000000 1.0
C      1  0.4576210000000  0.5255730000000  0.4949400000000 1.0
C      1  0.5256700000000  0.5251810000000  0.4656120000000 1.0
C      1  0.5417490000000  0.4743860000000  0.4912520000000 1.0
C      1  0.4866030000000  0.4747850000000  0.5407460000000 1.0
C      1  0.4713120000000  0.4746260000000  0.4682400000000 1.0
C      1  0.4899810000000  0.5224330000000  0.5406190000000 1.0
C      1  0.4699200000000  0.5223040000000  0.4708240000000 1.0
C      1  0.5403940000000  0.5220470000000  0.4883490000000 1.0
C      1  0.5272900000000  0.5006120000000  0.5304930000000 1.0
C      1  0.4599500000000  0.5008410000000  0.5083820000000 1.0
C      1  0.5127680000000  0.5004590000000  0.4611190000000 1.0
C      1  0.5136820000000  0.4778020000000  0.5396680000000 1.0
C      1  0.4587190000000  0.4778960000000  0.4922050000000 1.0
C      1  0.5273040000000  0.4775180000000  0.4683370000000 1.0
END
