TITL C-3577091-527-243 -2.72261440487018e-06 125000 -867.879899521789 0 0 143 (C1) n - 1
REM
REM in /home/bkarasulu/work/CARBON/AIRSS/Generating-Clusters/EDIP-Nigel-Params/with-SteepDescent/Higher-Symm/SD-CG/HFTN-CG
REM
REM
REM
REM
REM
REM ./C.cell (12c818d87b63d06a65506943cc24bca4)
REM
REM compiler GCC version 9.2.1 20190827 (Red Hat 9.2.1-1)
REM options -cpp -mtune=generic -march=x86-64 -g -O0 -fpre-include=/usr/include/finclude/math-vector-fortran.h
REM seed 1833094586 -462433602 -1448828764 -1586260490 970814054 -165866752 1177678369 578833288 -275334417 367048667 -160753845 959612682 616372961 -380781017 1537880481 -1994882738 1361778537 -1193941036 -188268343 -1528975077 -1812128946 1854973914 -956105287 2052481531 685426831 1420621329 182465087 2035471063 1461976664 97177871 329421539 1654679445 967028746
REM
CELL 1.54180   50.00000   50.00000   50.00000   90.00000   90.00000   90.00000
LATT -1
SFAC C  
C      1  0.5731400000000  0.5284870000000  0.4331140000000 1.0
C      1  0.5231640000000  0.5762730000000  0.4331750000000 1.0
C      1  0.4548070000000  0.5698650000000  0.4330130000000 1.0
C      1  0.4226250000000  0.5063990000000  0.4331600000000 1.0
C      1  0.4430360000000  0.4461450000000  0.4328920000000 1.0
C      1  0.5081820000000  0.4202680000000  0.4334580000000 1.0
C      1  0.5703620000000  0.4561890000000  0.4330130000000 1.0
C      1  0.5332830000000  0.5053690000000  0.4063990000000 1.0
C      1  0.5159990000000  0.5296950000000  0.4070820000000 1.0
C      1  0.4866940000000  0.5321410000000  0.4072140000000 1.0
C      1  0.4680140000000  0.5098790000000  0.4056680000000 1.0
C      1  0.4743910000000  0.4820810000000  0.4106390000000 1.0
C      1  0.4987240000000  0.4669230000000  0.4066310000000 1.0
C      1  0.5260670000000  0.4768630000000  0.4072480000000 1.0
C      1  0.4583410000000  0.4565040000000  0.5853890000000 1.0
C      1  0.5067700000000  0.4418470000000  0.5841040000000 1.0
C      1  0.5513070000000  0.4723000000000  0.5826760000000 1.0
C      1  0.5554060000000  0.5233130000000  0.5849930000000 1.0
C      1  0.5173930000000  0.5577870000000  0.5841480000000 1.0
C      1  0.4664130000000  0.5505470000000  0.5854960000000 1.0
C      1  0.4392760000000  0.5045070000000  0.5849110000000 1.0
C      1  0.5264730000000  0.5480510000000  0.5250380000000 1.0
C      1  0.4791140000000  0.5502940000000  0.5281220000000 1.0
C      1  0.4522700000000  0.5123990000000  0.5281430000000 1.0
C      1  0.4543430000000  0.4680160000000  0.5273630000000 1.0
C      1  0.4949590000000  0.4442560000000  0.5271120000000 1.0
C      1  0.5334610000000  0.4664250000000  0.5272620000000 1.0
C      1  0.5514240000000  0.5070740000000  0.5265450000000 1.0
C      1  0.4573630000000  0.4169970000000  0.5530810000000 1.0
C      1  0.5369090000000  0.4192320000000  0.5515460000000 1.0
C      1  0.5870630000000  0.4792220000000  0.5504860000000 1.0
C      1  0.5711090000000  0.5564520000000  0.5511130000000 1.0
C      1  0.5005920000000  0.5913330000000  0.5520590000000 1.0
C      1  0.4307760000000  0.5551930000000  0.5515550000000 1.0
C      1  0.4100840000000  0.4805200000000  0.5527300000000 1.0
C      1  0.4528950000000  0.4658710000000  0.4166420000000 1.0
C      1  0.4952220000000  0.4404710000000  0.4179210000000 1.0
C      1  0.5463540000000  0.4577580000000  0.4166670000000 1.0
C      1  0.5598140000000  0.5085540000000  0.4176380000000 1.0
C      1  0.5293180000000  0.5520940000000  0.4193560000000 1.0
C      1  0.4752660000000  0.5574560000000  0.4167160000000 1.0
C      1  0.4426600000000  0.5179560000000  0.4168270000000 1.0
C      1  0.4980770000000  0.4607970000000  0.5008240000000 1.0
C      1  0.5278510000000  0.4762250000000  0.4992360000000 1.0
C      1  0.5358880000000  0.5076540000000  0.4992030000000 1.0
C      1  0.5156070000000  0.5346910000000  0.4993950000000 1.0
C      1  0.4833270000000  0.5357930000000  0.5010660000000 1.0
C      1  0.4648770000000  0.5087510000000  0.5007270000000 1.0
C      1  0.4701780000000  0.4765150000000  0.5014290000000 1.0
C      1  0.5333960000000  0.4713740000000  0.4504020000000 1.0
C      1  0.5398020000000  0.5010250000000  0.4493000000000 1.0
C      1  0.5091420000000  0.5387930000000  0.4494850000000 1.0
C      1  0.4786740000000  0.5382650000000  0.4502320000000 1.0
C      1  0.4628050000000  0.5111160000000  0.4491280000000 1.0
C      1  0.4803730000000  0.4823180000000  0.4546960000000 1.0
C      1  0.5035850000000  0.4606640000000  0.4497240000000 1.0
C      1  0.5927130000000  0.4694590000000  0.5041560000000 1.0
C      1  0.5818950000000  0.5555880000000  0.5047420000000 1.0
C      1  0.5083530000000  0.6012470000000  0.5061080000000 1.0
C      1  0.4278550000000  0.5687620000000  0.5057070000000 1.0
C      1  0.3998920000000  0.4861840000000  0.5063680000000 1.0
C      1  0.4462930000000  0.4128980000000  0.5067850000000 1.0
C      1  0.5328670000000  0.4055810000000  0.5059610000000 1.0
C      1  0.4419740000000  0.4484970000000  0.4623180000000 1.0
C      1  0.5039080000000  0.4174300000000  0.4636730000000 1.0
C      1  0.5699440000000  0.4509150000000  0.4639770000000 1.0
C      1  0.5774500000000  0.5244110000000  0.4631680000000 1.0
C      1  0.5276900000000  0.5777430000000  0.4631930000000 1.0
C      1  0.4563490000000  0.5739840000000  0.4638840000000 1.0
C      1  0.4202930000000  0.5118260000000  0.4626800000000 1.0
C      1  0.5430710000000  0.5685860000000  0.5406510000000 1.0
C      1  0.4740190000000  0.5762990000000  0.5413770000000 1.0
C      1  0.4275960000000  0.5248710000000  0.5406040000000 1.0
C      1  0.4300590000000  0.4572100000000  0.5423230000000 1.0
C      1  0.4882170000000  0.4183510000000  0.5418290000000 1.0
C      1  0.5519830000000  0.4459780000000  0.5398380000000 1.0
C      1  0.5777290000000  0.5082980000000  0.5402900000000 1.0
C      1  0.5712480000000  0.4396580000000  0.5168010000000 1.0
C      1  0.5926350000000  0.5201290000000  0.5162830000000 1.0
C      1  0.5431730000000  0.5884700000000  0.5173870000000 1.0
C      1  0.4589560000000  0.5885310000000  0.5177720000000 1.0
C      1  0.4070930000000  0.5223860000000  0.5178640000000 1.0
C      1  0.4212230000000  0.4398600000000  0.5186470000000 1.0
C      1  0.4961820000000  0.4010060000000  0.5175760000000 1.0
C      1  0.4764810000000  0.5974820000000  0.4702660000000 1.0
C      1  0.4113650000000  0.5410260000000  0.4694290000000 1.0
C      1  0.4140680000000  0.4585330000000  0.4705370000000 1.0
C      1  0.4757120000000  0.4055650000000  0.4699270000000 1.0
C      1  0.5601680000000  0.4220520000000  0.4700910000000 1.0
C      1  0.5981280000000  0.5018860000000  0.4683400000000 1.0
C      1  0.5582830000000  0.5782700000000  0.4693830000000 1.0
C      1  0.4092040000000  0.4597740000000  0.4989730000000 1.0
C      1  0.4720520000000  0.4022920000000  0.4986110000000 1.0
C      1  0.5575530000000  0.4190550000000  0.4987920000000 1.0
C      1  0.5991110000000  0.4970460000000  0.4971890000000 1.0
C      1  0.5637060000000  0.5773170000000  0.4978470000000 1.0
C      1  0.4802360000000  0.5996760000000  0.4989460000000 1.0
C      1  0.4122440000000  0.5453760000000  0.4983090000000 1.0
C      1  0.5915050000000  0.5558210000000  0.5308780000000 1.0
C      1  0.5134700000000  0.6080370000000  0.5325840000000 1.0
C      1  0.4254030000000  0.5759490000000  0.5324470000000 1.0
C      1  0.3918190000000  0.4900170000000  0.5326920000000 1.0
C      1  0.4385120000000  0.4084920000000  0.5331520000000 1.0
C      1  0.5317620000000  0.3981410000000  0.5326540000000 1.0
C      1  0.5991800000000  0.4625980000000  0.5303690000000 1.0
C      1  0.5034190000000  0.5977520000000  0.4579050000000 1.0
C      1  0.4257440000000  0.5636860000000  0.4565680000000 1.0
C      1  0.4054470000000  0.4845410000000  0.4595610000000 1.0
C      1  0.4516510000000  0.4193220000000  0.4592270000000 1.0
C      1  0.5360000000000  0.4105650000000  0.4571630000000 1.0
C      1  0.5932800000000  0.4759380000000  0.4546550000000 1.0
C      1  0.5753690000000  0.5575850000000  0.4569790000000 1.0
C      1  0.5172980000000  0.5337550000000  0.5494450000000 1.0
C      1  0.4861600000000  0.5344040000000  0.5520690000000 1.0
C      1  0.4733400000000  0.5055990000000  0.5475220000000 1.0
C      1  0.4694350000000  0.4747350000000  0.5526690000000 1.0
C      1  0.4960710000000  0.4608510000000  0.5518380000000 1.0
C      1  0.5171860000000  0.4812960000000  0.5463270000000 1.0
C      1  0.5346490000000  0.5079830000000  0.5516020000000 1.0
C      1  0.4715230000000  0.5505920000000  0.4762190000000 1.0
C      1  0.4473960000000  0.5093270000000  0.4747880000000 1.0
C      1  0.4625830000000  0.4675760000000  0.4733470000000 1.0
C      1  0.5007750000000  0.4447880000000  0.4744140000000 1.0
C      1  0.5449040000000  0.4635230000000  0.4764310000000 1.0
C      1  0.5528730000000  0.5112680000000  0.4737330000000 1.0
C      1  0.5188480000000  0.5514100000000  0.4740270000000 1.0
C      1  0.4662350000000  0.5035400000000  0.5913580000000 1.0
C      1  0.4764470000000  0.4769520000000  0.5956530000000 1.0
C      1  0.5046400000000  0.4689040000000  0.5939560000000 1.0
C      1  0.5279480000000  0.4854800000000  0.5891860000000 1.0
C      1  0.5309050000000  0.5133790000000  0.5948090000000 1.0
C      1  0.5091770000000  0.5323950000000  0.5925810000000 1.0
C      1  0.4805030000000  0.5283260000000  0.5949790000000 1.0
C      1  0.5721530000000  0.5290030000000  0.5627050000000 1.0
C      1  0.5232350000000  0.5756980000000  0.5631310000000 1.0
C      1  0.4561010000000  0.5649240000000  0.5634190000000 1.0
C      1  0.4211530000000  0.5058960000000  0.5636070000000 1.0
C      1  0.4438210000000  0.4411250000000  0.5649550000000 1.0
C      1  0.5098710000000  0.4208700000000  0.5640860000000 1.0
C      1  0.5664730000000  0.4613530000000  0.5620550000000 1.0
C      1  0.4983190000000  0.4982710000000  0.4718870000000 1.0
C      1  0.5137630000000  0.5111820000000  0.4528360000000 1.0
C      1  0.4997630000000  0.5019520000000  0.5317900000000 1.0
END
