TITL C-3578201-9217-365 6.04861138657787e-07 125000 -179.880189318987 0 0 30 (D2h) n - 1
REM
REM in /home/bkarasulu/work/CARBON/AIRSS/Generating-Clusters/EDIP-Nigel-Params/with-SteepDescent/Higher-Symm/SD-CG/HFTN-CG
REM
REM
REM
REM
REM
REM ./C.cell (12c818d87b63d06a65506943cc24bca4)
REM
REM compiler GCC version 9.2.1 20190827 (Red Hat 9.2.1-1)
REM options -cpp -mtune=generic -march=x86-64 -g -O0 -fpre-include=/usr/include/finclude/math-vector-fortran.h
REM seed -226655064 -1323673617 -227431997 -1303156442 -1970930688 369827684 559554116 -1921972046 602688030 -40222109 -1037015280 18366425 1289247831 -1377254429 365934045 -598957978 2002276437 -1371850202 -1387109370 -283549791 -1443234892 689266152 1024160173 349382029 1280649690 -678636489 -1776477762 -109346577 207580969 -171124485 1625995205 1614490669 -1936182889
REM
CELL 1.54180   50.00000   50.00000   50.00000   90.00000   90.00000   90.00000
LATT -1
SFAC C  
C      1  0.4678290000000  0.4640390000000  0.5250670000000 1.0
C      1  0.4594700000000  0.4864830000000  0.5404300000000 1.0
C      1  0.4526790000000  0.5094440000000  0.5250600000000 1.0
C      1  0.4685690000000  0.5334070000000  0.5244270000000 1.0
C      1  0.5050910000000  0.5455940000000  0.5244120000000 1.0
C      1  0.5321870000000  0.5359740000000  0.5250270000000 1.0
C      1  0.5405560000000  0.5135390000000  0.5403960000000 1.0
C      1  0.5473380000000  0.4905690000000  0.5250340000000 1.0
C      1  0.5314470000000  0.4666050000000  0.5244240000000 1.0
C      1  0.4949250000000  0.4544190000000  0.5244400000000 1.0
C      1  0.5473210000000  0.4905560000000  0.4749400000000 1.0
C      1  0.5314310000000  0.4665930000000  0.4755730000000 1.0
C      1  0.4949090000000  0.4544060000000  0.4755880000000 1.0
C      1  0.4678130000000  0.4640260000000  0.4749730000000 1.0
C      1  0.4594440000000  0.4864610000000  0.4596040000000 1.0
C      1  0.4526620000000  0.5094310000000  0.4749660000000 1.0
C      1  0.4685530000000  0.5333950000000  0.4755760000000 1.0
C      1  0.5050750000000  0.5455810000000  0.4755600000000 1.0
C      1  0.5321710000000  0.5359610000000  0.4749330000000 1.0
C      1  0.5405300000000  0.5135170000000  0.4595700000000 1.0
C      1  0.5317900000000  0.4507590000000  0.5000030000000 1.0
C      1  0.5041480000000  0.4415360000000  0.5000140000000 1.0
C      1  0.4523980000000  0.4607560000000  0.5000260000000 1.0
C      1  0.4282900000000  0.4760730000000  0.5000300000000 1.0
C      1  0.4383700000000  0.5027970000000  0.5000190000000 1.0
C      1  0.4682100000000  0.5492410000000  0.4999970000000 1.0
C      1  0.4958520000000  0.5584640000000  0.4999860000000 1.0
C      1  0.5476020000000  0.5392440000000  0.4999740000000 1.0
C      1  0.5717100000000  0.5239270000000  0.4999700000000 1.0
C      1  0.5616300000000  0.4972030000000  0.4999810000000 1.0
END
