TITL C-3578198-8939-574 -8.31396375123481e-07 125000 -194.276765700988 0 0 34 (C2) n - 1
REM
REM in /home/bkarasulu/work/CARBON/AIRSS/Generating-Clusters/EDIP-Nigel-Params/with-SteepDescent/Higher-Symm/SD-CG/HFTN-CG
REM
REM
REM
REM
REM
REM ./C.cell (12c818d87b63d06a65506943cc24bca4)
REM
REM compiler GCC version 9.2.1 20190827 (Red Hat 9.2.1-1)
REM options -cpp -mtune=generic -march=x86-64 -g -O0 -fpre-include=/usr/include/finclude/math-vector-fortran.h
REM seed -1378521089 656978433 -1677315704 1877622075 -1930713180 1556966529 -159528588 1583700815 -1311925192 -1070738986 1751260108 -1430818243 -1673315390 -1958067419 -1959093876 -2111457259 980944498 -1426362685 2038562564 -1107342587 1169165041 1160894510 222107724 -550556872 -282866601 1278928840 287123959 1099768911 2050561740 -274262055 -354321759 -689426900 1507049012
REM
CELL 1.54180   50.00000   50.00000   50.00000   90.00000   90.00000   90.00000
LATT -1
SFAC C  
C      1  0.5143210000000  0.4607900000000  0.5420180000000 1.0
C      1  0.4818340000000  0.5392150000000  0.5421460000000 1.0
C      1  0.4687610000000  0.4665380000000  0.5201100000000 1.0
C      1  0.4474500000000  0.5374440000000  0.5028300000000 1.0
C      1  0.4586410000000  0.4634410000000  0.4702170000000 1.0
C      1  0.4861160000000  0.5357870000000  0.4685810000000 1.0
C      1  0.5094430000000  0.4642090000000  0.4684910000000 1.0
C      1  0.5369300000000  0.5365560000000  0.4698950000000 1.0
C      1  0.5483850000000  0.4625560000000  0.5024250000000 1.0
C      1  0.5272150000000  0.5334640000000  0.5198690000000 1.0
C      1  0.4468650000000  0.5078000000000  0.5029890000000 1.0
C      1  0.4606080000000  0.4927550000000  0.4714090000000 1.0
C      1  0.4847010000000  0.5070440000000  0.4621930000000 1.0
C      1  0.5108060000000  0.4929520000000  0.4620880000000 1.0
C      1  0.5349730000000  0.5072420000000  0.4711060000000 1.0
C      1  0.5489710000000  0.4922010000000  0.5025760000000 1.0
C      1  0.5392130000000  0.5062400000000  0.5266860000000 1.0
C      1  0.5145630000000  0.4898680000000  0.5344880000000 1.0
C      1  0.4815310000000  0.5101350000000  0.5346210000000 1.0
C      1  0.4568190000000  0.4937620000000  0.5270200000000 1.0
C      1  0.4648140000000  0.5506370000000  0.4817660000000 1.0
C      1  0.4850140000000  0.4482180000000  0.4669890000000 1.0
C      1  0.5105320000000  0.5517780000000  0.4668800000000 1.0
C      1  0.5308520000000  0.4493610000000  0.4815040000000 1.0
C      1  0.5352350000000  0.5507490000000  0.4972170000000 1.0
C      1  0.5266530000000  0.4442620000000  0.5200010000000 1.0
C      1  0.5091510000000  0.5478740000000  0.5372380000000 1.0
C      1  0.4869650000000  0.4521300000000  0.5373330000000 1.0
C      1  0.4693240000000  0.5557410000000  0.5202270000000 1.0
C      1  0.4605570000000  0.4492500000000  0.4975250000000 1.0
C      1  0.4908230000000  0.5122330000000  0.5058230000000 1.0
C      1  0.5050380000000  0.4877680000000  0.5057670000000 1.0
C      1  0.4979020000000  0.5612520000000  0.5024130000000 1.0
C      1  0.4979320000000  0.4387480000000  0.5024190000000 1.0
END
