TITL C-3577087-600-332 -3.41335359552564e-06 125000 -582.164949185971 0 0 95 (C1) n - 1
REM
REM in /home/bkarasulu/work/CARBON/AIRSS/Generating-Clusters/EDIP-Nigel-Params/with-SteepDescent/Higher-Symm/SD-CG/HFTN-CG
REM
REM
REM
REM
REM
REM ./C.cell (12c818d87b63d06a65506943cc24bca4)
REM
REM compiler GCC version 9.2.1 20190827 (Red Hat 9.2.1-1)
REM options -cpp -mtune=generic -march=x86-64 -g -O0 -fpre-include=/usr/include/finclude/math-vector-fortran.h
REM seed -1117726234 -1039949692 -1803540755 1888558822 1263014620 1948227483 -1097688177 802235333 1148768524 647437006 46943425 -1551389661 -263114321 -1014351591 -1478781226 -737653505 -1693433792 -108664561 1511700120 119850326 24302190 855468172 -754021324 -923740050 -807533955 -11727282 -550679564 -1444748711 -1795698063 1572976677 -1866735699 -1388215229 -1538742646
REM
CELL 1.54180   50.00000   50.00000   50.00000   90.00000   90.00000   90.00000
LATT -1
SFAC C  
C      1  0.4921110000000  0.4735270000000  0.5719450000000 1.0
C      1  0.5721410000000  0.4708830000000  0.4758100000000 1.0
C      1  0.4439380000000  0.4769650000000  0.4416570000000 1.0
C      1  0.4887010000000  0.5323210000000  0.5750920000000 1.0
C      1  0.5806570000000  0.5237040000000  0.4718340000000 1.0
C      1  0.4446200000000  0.5228140000000  0.4416250000000 1.0
C      1  0.5195150000000  0.4790800000000  0.4648800000000 1.0
C      1  0.4634060000000  0.4766270000000  0.4927960000000 1.0
C      1  0.5165130000000  0.4930620000000  0.5369000000000 1.0
C      1  0.5230090000000  0.5076920000000  0.4703100000000 1.0
C      1  0.4656420000000  0.5199730000000  0.4961380000000 1.0
C      1  0.5212400000000  0.5247260000000  0.5347450000000 1.0
C      1  0.4287800000000  0.5131930000000  0.5200080000000 1.0
C      1  0.5617620000000  0.5179410000000  0.5506060000000 1.0
C      1  0.5190250000000  0.5136170000000  0.4241480000000 1.0
C      1  0.4277140000000  0.4828770000000  0.5193190000000 1.0
C      1  0.5587090000000  0.4878740000000  0.5489680000000 1.0
C      1  0.5185960000000  0.4832370000000  0.4210880000000 1.0
C      1  0.5151300000000  0.4907670000000  0.5808050000000 1.0
C      1  0.5657640000000  0.4836190000000  0.4496060000000 1.0
C      1  0.4296390000000  0.4848390000000  0.4650920000000 1.0
C      1  0.5151760000000  0.5197180000000  0.5779200000000 1.0
C      1  0.5661970000000  0.5131210000000  0.4498300000000 1.0
C      1  0.4318650000000  0.5137050000000  0.4657190000000 1.0
C      1  0.5527180000000  0.4478050000000  0.4825900000000 1.0
C      1  0.4614120000000  0.4359060000000  0.4657220000000 1.0
C      1  0.4772850000000  0.4339610000000  0.5449460000000 1.0
C      1  0.5460770000000  0.5756390000000  0.5018100000000 1.0
C      1  0.4673740000000  0.5605320000000  0.4679800000000 1.0
C      1  0.4841390000000  0.5634940000000  0.5445310000000 1.0
C      1  0.5406490000000  0.5310530000000  0.5673130000000 1.0
C      1  0.5377980000000  0.5229040000000  0.4484410000000 1.0
C      1  0.4373050000000  0.5280610000000  0.4921380000000 1.0
C      1  0.5360770000000  0.4750010000000  0.5658000000000 1.0
C      1  0.5427710000000  0.4680660000000  0.4359420000000 1.0
C      1  0.4344940000000  0.4693980000000  0.4910730000000 1.0
C      1  0.5669510000000  0.5332140000000  0.5226860000000 1.0
C      1  0.4917910000000  0.5296550000000  0.4228430000000 1.0
C      1  0.4397800000000  0.5274740000000  0.5464070000000 1.0
C      1  0.5599920000000  0.4742990000000  0.5212880000000 1.0
C      1  0.4914450000000  0.4691170000000  0.4283840000000 1.0
C      1  0.4480280000000  0.4701850000000  0.5402470000000 1.0
C      1  0.4649090000000  0.4284610000000  0.4385500000000 1.0
C      1  0.4487000000000  0.4402150000000  0.5470690000000 1.0
C      1  0.5604890000000  0.4441390000000  0.5139540000000 1.0
C      1  0.4710990000000  0.5584130000000  0.4392780000000 1.0
C      1  0.4581970000000  0.5599380000000  0.5559440000000 1.0
C      1  0.5639640000000  0.5651650000000  0.5231800000000 1.0
C      1  0.4960920000000  0.5199340000000  0.4648900000000 1.0
C      1  0.4760460000000  0.5204130000000  0.5231990000000 1.0
C      1  0.5396360000000  0.5291090000000  0.5113240000000 1.0
C      1  0.4913850000000  0.4753750000000  0.4577870000000 1.0
C      1  0.4716850000000  0.4731170000000  0.5212320000000 1.0
C      1  0.5325420000000  0.4825860000000  0.5115690000000 1.0
C      1  0.5317690000000  0.5514440000000  0.4931170000000 1.0
C      1  0.4838110000000  0.5401110000000  0.4818940000000 1.0
C      1  0.4958580000000  0.5409270000000  0.5272130000000 1.0
C      1  0.5254170000000  0.4624410000000  0.4895580000000 1.0
C      1  0.4793130000000  0.4565600000000  0.4768720000000 1.0
C      1  0.4880570000000  0.4497990000000  0.5219300000000 1.0
C      1  0.5242570000000  0.5813950000000  0.5474360000000 1.0
C      1  0.5154980000000  0.5721970000000  0.4571670000000 1.0
C      1  0.4535060000000  0.5725900000000  0.5097490000000 1.0
C      1  0.5210570000000  0.4277040000000  0.5412050000000 1.0
C      1  0.5123520000000  0.4282090000000  0.4531180000000 1.0
C      1  0.4505760000000  0.4186310000000  0.5083640000000 1.0
C      1  0.5519090000000  0.5754860000000  0.5463830000000 1.0
C      1  0.4981600000000  0.5652280000000  0.4341140000000 1.0
C      1  0.4407150000000  0.5635990000000  0.5343590000000 1.0
C      1  0.5464570000000  0.4265450000000  0.5299950000000 1.0
C      1  0.4911340000000  0.4382560000000  0.4330170000000 1.0
C      1  0.4347770000000  0.4215410000000  0.5315660000000 1.0
C      1  0.5150470000000  0.5917270000000  0.4858390000000 1.0
C      1  0.4831850000000  0.5873300000000  0.5074390000000 1.0
C      1  0.5105690000000  0.5912420000000  0.5221990000000 1.0
C      1  0.5040280000000  0.4176430000000  0.4811000000000 1.0
C      1  0.4794300000000  0.4085730000000  0.5088720000000 1.0
C      1  0.5007350000000  0.4080150000000  0.5298720000000 1.0
C      1  0.4400390000000  0.4324760000000  0.4849280000000 1.0
C      1  0.5151410000000  0.4539330000000  0.5560930000000 1.0
C      1  0.5391380000000  0.4417270000000  0.4525980000000 1.0
C      1  0.4430370000000  0.5586920000000  0.4856980000000 1.0
C      1  0.5052570000000  0.5653050000000  0.5641950000000 1.0
C      1  0.5353070000000  0.5506950000000  0.4622490000000 1.0
C      1  0.5813660000000  0.5166720000000  0.4992720000000 1.0
C      1  0.4648600000000  0.5137970000000  0.4230230000000 1.0
C      1  0.4640410000000  0.5169240000000  0.5653810000000 1.0
C      1  0.5780800000000  0.4870930000000  0.5007720000000 1.0
C      1  0.4646450000000  0.4840070000000  0.4232360000000 1.0
C      1  0.4647280000000  0.4864550000000  0.5658450000000 1.0
C      1  0.4737160000000  0.5000020000000  0.4631530000000 1.0
C      1  0.5382500000000  0.5061020000000  0.4956320000000 1.0
C      1  0.4857200000000  0.4952130000000  0.5340700000000 1.0
C      1  0.5018680000000  0.5535810000000  0.5008410000000 1.0
C      1  0.5006880000000  0.4447640000000  0.4942310000000 1.0
END
