TITL C-3577078-809-169 -1.54323409018896e-06 125000 -549.088710763179 0 0 88 (C1) n - 1
REM
REM in /home/bkarasulu/work/CARBON/AIRSS/Generating-Clusters/EDIP-Nigel-Params/with-SteepDescent/Higher-Symm/SD-CG/HFTN-CG
REM
REM
REM
REM
REM
REM ./C.cell (12c818d87b63d06a65506943cc24bca4)
REM
REM compiler GCC version 9.2.1 20190827 (Red Hat 9.2.1-1)
REM options -cpp -mtune=generic -march=x86-64 -g -O0 -fpre-include=/usr/include/finclude/math-vector-fortran.h
REM seed 1026564354 1790246579 -307608210 -827929181 306653726 -397486202 -546230508 -44938344 -2140040397 -1382530406 -1652505559 -172651929 923011603 1649656194 -1852129090 -796128572 1092557304 -2120637683 927501847 -179574741 536418451 155634861 1674010218 1478490673 1404587553 -124273710 -214950728 940123550 1011108277 -1037369780 311473611 857693554 820633291
REM
CELL 1.54180   50.00000   50.00000   50.00000   90.00000   90.00000   90.00000
LATT -1
SFAC C  
C      1  0.4360720000000  0.5436710000000  0.5299700000000 1.0
C      1  0.4417750000000  0.4817020000000  0.5436840000000 1.0
C      1  0.4435670000000  0.4524880000000  0.4924050000000 1.0
C      1  0.4337840000000  0.4907590000000  0.4466530000000 1.0
C      1  0.4375820000000  0.5468720000000  0.4722080000000 1.0
C      1  0.5619310000000  0.5290850000000  0.5400910000000 1.0
C      1  0.5648940000000  0.4675690000000  0.5428900000000 1.0
C      1  0.5721150000000  0.4493050000000  0.4827990000000 1.0
C      1  0.5626450000000  0.4979570000000  0.4480940000000 1.0
C      1  0.5633230000000  0.5494170000000  0.4835350000000 1.0
C      1  0.5486980000000  0.5148780000000  0.5627520000000 1.0
C      1  0.5572950000000  0.4388700000000  0.5357270000000 1.0
C      1  0.5563920000000  0.4485270000000  0.4571980000000 1.0
C      1  0.5506670000000  0.5232600000000  0.4394440000000 1.0
C      1  0.5546330000000  0.5650070000000  0.5067400000000 1.0
C      1  0.4403860000000  0.5393770000000  0.5585480000000 1.0
C      1  0.4486080000000  0.4523710000000  0.5422430000000 1.0
C      1  0.4589560000000  0.4509040000000  0.4673070000000 1.0
C      1  0.4407420000000  0.5145270000000  0.4294230000000 1.0
C      1  0.4511670000000  0.5687950000000  0.4912600000000 1.0
C      1  0.5146270000000  0.5626380000000  0.5422120000000 1.0
C      1  0.5215240000000  0.4568730000000  0.5661320000000 1.0
C      1  0.5361200000000  0.4174730000000  0.4890550000000 1.0
C      1  0.5069130000000  0.4673190000000  0.4359280000000 1.0
C      1  0.5237280000000  0.5760780000000  0.4706760000000 1.0
C      1  0.4801600000000  0.5664830000000  0.5424380000000 1.0
C      1  0.4923210000000  0.4636550000000  0.5621750000000 1.0
C      1  0.5099980000000  0.4223980000000  0.5021960000000 1.0
C      1  0.4791470000000  0.4775250000000  0.4285890000000 1.0
C      1  0.4934380000000  0.5712030000000  0.4686030000000 1.0
C      1  0.4735170000000  0.5272440000000  0.4566870000000 1.0
C      1  0.4781110000000  0.5355310000000  0.5070500000000 1.0
C      1  0.4680550000000  0.4990390000000  0.5368380000000 1.0
C      1  0.4860050000000  0.4646420000000  0.5108900000000 1.0
C      1  0.4726470000000  0.4981260000000  0.4674980000000 1.0
C      1  0.5179980000000  0.5321900000000  0.4780020000000 1.0
C      1  0.5260580000000  0.5241960000000  0.5070220000000 1.0
C      1  0.5222940000000  0.4882120000000  0.5322380000000 1.0
C      1  0.5333850000000  0.4650270000000  0.5119250000000 1.0
C      1  0.5231960000000  0.4837020000000  0.4736520000000 1.0
C      1  0.5087610000000  0.4179370000000  0.5323520000000 1.0
C      1  0.5081340000000  0.4459510000000  0.4563840000000 1.0
C      1  0.5091820000000  0.5319080000000  0.4184520000000 1.0
C      1  0.5129200000000  0.5855940000000  0.5199020000000 1.0
C      1  0.5026140000000  0.5216950000000  0.5535040000000 1.0
C      1  0.4811390000000  0.4215600000000  0.5400400000000 1.0
C      1  0.4837470000000  0.4348530000000  0.4682940000000 1.0
C      1  0.4826980000000  0.5292950000000  0.4270830000000 1.0
C      1  0.4883740000000  0.5939440000000  0.5089730000000 1.0
C      1  0.4803110000000  0.5270570000000  0.5726820000000 1.0
C      1  0.4231390000000  0.5247990000000  0.4853600000000 1.0
C      1  0.4324750000000  0.5186920000000  0.5127950000000 1.0
C      1  0.4228890000000  0.4906770000000  0.5221200000000 1.0
C      1  0.4255280000000  0.4766500000000  0.4955010000000 1.0
C      1  0.4210050000000  0.4970700000000  0.4732760000000 1.0
C      1  0.5725260000000  0.5225990000000  0.4918780000000 1.0
C      1  0.5741540000000  0.5127400000000  0.5194540000000 1.0
C      1  0.5766680000000  0.4835520000000  0.5203780000000 1.0
C      1  0.5791570000000  0.4760420000000  0.4917170000000 1.0
C      1  0.5762800000000  0.4997370000000  0.4742280000000 1.0
C      1  0.5333820000000  0.5838540000000  0.4985720000000 1.0
C      1  0.5258660000000  0.5331290000000  0.5650380000000 1.0
C      1  0.5299780000000  0.4334850000000  0.5486710000000 1.0
C      1  0.5334410000000  0.4303360000000  0.4614520000000 1.0
C      1  0.5239850000000  0.5146920000000  0.4341380000000 1.0
C      1  0.4746530000000  0.5867120000000  0.4853290000000 1.0
C      1  0.4672000000000  0.5544460000000  0.5663170000000 1.0
C      1  0.4718280000000  0.4418150000000  0.5586640000000 1.0
C      1  0.4867790000000  0.4132830000000  0.4867140000000 1.0
C      1  0.4684450000000  0.5057990000000  0.4162820000000 1.0
C      1  0.4547960000000  0.5121870000000  0.5645340000000 1.0
C      1  0.4618900000000  0.4448620000000  0.5157170000000 1.0
C      1  0.4599310000000  0.4767270000000  0.4515310000000 1.0
C      1  0.4397880000000  0.5414120000000  0.4435220000000 1.0
C      1  0.4606180000000  0.5574500000000  0.5189060000000 1.0
C      1  0.5409420000000  0.4821160000000  0.5561300000000 1.0
C      1  0.5566740000000  0.4344190000000  0.5036010000000 1.0
C      1  0.5420920000000  0.4744390000000  0.4496520000000 1.0
C      1  0.5400640000000  0.5495670000000  0.4643480000000 1.0
C      1  0.5411660000000  0.5454990000000  0.5248680000000 1.0
C      1  0.5097700000000  0.4515900000000  0.5002550000000 1.0
C      1  0.5116620000000  0.5082470000000  0.4605430000000 1.0
C      1  0.4896610000000  0.5430760000000  0.4776750000000 1.0
C      1  0.4924990000000  0.4796560000000  0.5369690000000 1.0
C      1  0.5011080000000  0.5258830000000  0.5234940000000 1.0
C      1  0.5398920000000  0.4940690000000  0.4984550000000 1.0
C      1  0.4621000000000  0.5107850000000  0.5084080000000 1.0
C      1  0.4879800000000  0.4886170000000  0.4909070000000 1.0
END
