TITL C-3578208-4450-333 -2.43826184526472e-06 125000 -606.48526023081 0 0 97 (C1) n - 1
REM
REM in /home/bkarasulu/work/CARBON/AIRSS/Generating-Clusters/EDIP-Nigel-Params/with-SteepDescent/Higher-Symm/SD-CG/HFTN-CG
REM
REM
REM
REM
REM
REM ./C.cell (12c818d87b63d06a65506943cc24bca4)
REM
REM compiler GCC version 9.2.1 20190827 (Red Hat 9.2.1-1)
REM options -cpp -mtune=generic -march=x86-64 -g -O0 -fpre-include=/usr/include/finclude/math-vector-fortran.h
REM seed 186480474 -666341168 -1157751559 1257373412 2126404487 -1450061914 -1984372925 973805255 1252145504 1300709228 715714723 1453637407 -1806428384 -128977888 57677731 1737924707 -903328629 335569798 -1373502805 -1828700964 -1273690313 1702771902 -1822560716 1691813443 132830056 -1550438882 -658499085 -485100208 -1877934990 12788351 -488028005 928689804 -1331204288
REM
CELL 1.54180   50.00000   50.00000   50.00000   90.00000   90.00000   90.00000
LATT -1
SFAC C  
C      1  0.4441640000000  0.5137240000000  0.5444950000000 1.0
C      1  0.4433890000000  0.4854300000000  0.5443550000000 1.0
C      1  0.5147700000000  0.4776700000000  0.4651950000000 1.0
C      1  0.4971900000000  0.5251140000000  0.4637730000000 1.0
C      1  0.5200080000000  0.5180030000000  0.4163410000000 1.0
C      1  0.5212020000000  0.4806200000000  0.4172280000000 1.0
C      1  0.5538880000000  0.5141900000000  0.5583100000000 1.0
C      1  0.5573690000000  0.4854550000000  0.5599660000000 1.0
C      1  0.5092290000000  0.5649600000000  0.4287260000000 1.0
C      1  0.5035290000000  0.4394760000000  0.4376200000000 1.0
C      1  0.5598850000000  0.5268490000000  0.5330160000000 1.0
C      1  0.5656820000000  0.4721320000000  0.5347310000000 1.0
C      1  0.4516930000000  0.5247170000000  0.4427190000000 1.0
C      1  0.4489370000000  0.4757510000000  0.4413940000000 1.0
C      1  0.5018790000000  0.4206550000000  0.4595440000000 1.0
C      1  0.5018160000000  0.5731230000000  0.4546940000000 1.0
C      1  0.4981840000000  0.5149370000000  0.5856010000000 1.0
C      1  0.4990980000000  0.4853580000000  0.5832930000000 1.0
C      1  0.4696990000000  0.5290750000000  0.5453690000000 1.0
C      1  0.4690210000000  0.4707880000000  0.5435200000000 1.0
C      1  0.5639840000000  0.5229930000000  0.4566830000000 1.0
C      1  0.5669320000000  0.4761670000000  0.4578360000000 1.0
C      1  0.5889000000000  0.5133700000000  0.4481480000000 1.0
C      1  0.5910500000000  0.4864560000000  0.4474430000000 1.0
C      1  0.4854310000000  0.5524080000000  0.4689990000000 1.0
C      1  0.4752160000000  0.4364730000000  0.4638950000000 1.0
C      1  0.5214570000000  0.4733090000000  0.5957730000000 1.0
C      1  0.5212770000000  0.5270520000000  0.5968260000000 1.0
C      1  0.5713500000000  0.5149240000000  0.5090120000000 1.0
C      1  0.5746460000000  0.4858410000000  0.5095740000000 1.0
C      1  0.4084710000000  0.5152290000000  0.5008060000000 1.0
C      1  0.4077340000000  0.4859370000000  0.5004970000000 1.0
C      1  0.4554920000000  0.5505890000000  0.4577180000000 1.0
C      1  0.4483230000000  0.4484160000000  0.4536170000000 1.0
C      1  0.5599000000000  0.4723180000000  0.4871210000000 1.0
C      1  0.5567600000000  0.5280790000000  0.4857740000000 1.0
C      1  0.4246770000000  0.4728160000000  0.5243780000000 1.0
C      1  0.4260370000000  0.5268300000000  0.5249270000000 1.0
C      1  0.5137470000000  0.4693470000000  0.5126020000000 1.0
C      1  0.5107890000000  0.5335350000000  0.5117980000000 1.0
C      1  0.4329710000000  0.5518170000000  0.4764840000000 1.0
C      1  0.4283480000000  0.4489320000000  0.4746530000000 1.0
C      1  0.5346760000000  0.4438780000000  0.5562060000000 1.0
C      1  0.5321280000000  0.5554440000000  0.5555500000000 1.0
C      1  0.5501070000000  0.4316420000000  0.4655450000000 1.0
C      1  0.5505040000000  0.5693270000000  0.4639460000000 1.0
C      1  0.5278520000000  0.4153770000000  0.5055240000000 1.0
C      1  0.5240910000000  0.5832000000000  0.5047100000000 1.0
C      1  0.4595810000000  0.4441450000000  0.5326360000000 1.0
C      1  0.4592020000000  0.5564810000000  0.5363560000000 1.0
C      1  0.5229850000000  0.4622290000000  0.4408240000000 1.0
C      1  0.5242690000000  0.5416610000000  0.4327160000000 1.0
C      1  0.5485860000000  0.5696910000000  0.5123140000000 1.0
C      1  0.5522860000000  0.4294900000000  0.5135050000000 1.0
C      1  0.4322790000000  0.5223370000000  0.4826030000000 1.0
C      1  0.4305390000000  0.4778740000000  0.4817370000000 1.0
C      1  0.4809510000000  0.5973180000000  0.5225410000000 1.0
C      1  0.4822230000000  0.4070450000000  0.5163120000000 1.0
C      1  0.4314600000000  0.5561580000000  0.5253610000000 1.0
C      1  0.4315510000000  0.4436100000000  0.5231290000000 1.0
C      1  0.4900910000000  0.4388870000000  0.5708600000000 1.0
C      1  0.4892060000000  0.5619130000000  0.5731970000000 1.0
C      1  0.4707400000000  0.5714630000000  0.5130760000000 1.0
C      1  0.4711820000000  0.4324570000000  0.5073920000000 1.0
C      1  0.4547460000000  0.4831290000000  0.5020240000000 1.0
C      1  0.4558280000000  0.5144790000000  0.5022540000000 1.0
C      1  0.5263290000000  0.5175690000000  0.4887820000000 1.0
C      1  0.5295270000000  0.4845080000000  0.4898490000000 1.0
C      1  0.4842100000000  0.5060200000000  0.4855480000000 1.0
C      1  0.4864970000000  0.4784430000000  0.4714680000000 1.0
C      1  0.4355990000000  0.5693890000000  0.4992280000000 1.0
C      1  0.4344550000000  0.4316480000000  0.4966170000000 1.0
C      1  0.4932030000000  0.4522430000000  0.4947170000000 1.0
C      1  0.4909790000000  0.5546120000000  0.4984330000000 1.0
C      1  0.5244980000000  0.5822490000000  0.4723630000000 1.0
C      1  0.5240430000000  0.4259160000000  0.4779600000000 1.0
C      1  0.4812200000000  0.4658060000000  0.5704260000000 1.0
C      1  0.4804790000000  0.5346540000000  0.5726730000000 1.0
C      1  0.5383380000000  0.4672440000000  0.5737220000000 1.0
C      1  0.5369090000000  0.5326760000000  0.5736990000000 1.0
C      1  0.5507280000000  0.5464040000000  0.4436870000000 1.0
C      1  0.5517240000000  0.4536030000000  0.4449840000000 1.0
C      1  0.4791720000000  0.5141400000000  0.4400840000000 1.0
C      1  0.4770820000000  0.4831050000000  0.4416950000000 1.0
C      1  0.5069890000000  0.4156770000000  0.5265460000000 1.0
C      1  0.5070040000000  0.5891040000000  0.5296800000000 1.0
C      1  0.4890130000000  0.4854620000000  0.5238770000000 1.0
C      1  0.4914310000000  0.5155360000000  0.5277060000000 1.0
C      1  0.5388340000000  0.5471440000000  0.5284170000000 1.0
C      1  0.5440590000000  0.4521480000000  0.5300170000000 1.0
C      1  0.5640880000000  0.4417390000000  0.4893590000000 1.0
C      1  0.5615730000000  0.5580830000000  0.4887020000000 1.0
C      1  0.4918210000000  0.5131770000000  0.4123980000000 1.0
C      1  0.4929120000000  0.4831260000000  0.4114200000000 1.0
C      1  0.5090150000000  0.5724440000000  0.5554320000000 1.0
C      1  0.5101770000000  0.4288140000000  0.5535780000000 1.0
C      1  0.4336330000000  0.5006630000000  0.4503380000000 1.0
END
