TITL C-3577086-586-20 -1.70163485053361e-06 125000 -465.139613230509 0 0 77 (C1) n - 1
REM
REM in /home/bkarasulu/work/CARBON/AIRSS/Generating-Clusters/EDIP-Nigel-Params/with-SteepDescent/Higher-Symm/SD-CG/HFTN-CG
REM
REM
REM
REM
REM
REM ./C.cell (12c818d87b63d06a65506943cc24bca4)
REM
REM compiler GCC version 9.2.1 20190827 (Red Hat 9.2.1-1)
REM options -cpp -mtune=generic -march=x86-64 -g -O0 -fpre-include=/usr/include/finclude/math-vector-fortran.h
REM seed -139664802 697543343 -919946942 1216798466 784620900 -283602822 -1971662751 35675867 145773297 777371300 443314886 -1923807665 -1198942670 -934786669 -811999824 409563130 -385580734 1929888012 -2041985999 208329326 -853552102 628954484 1394351228 -1560000420 -474970753 -1172810281 2077109252 2137225028 38732705 -483076172 -1196986846 -273957271 -500731704
REM
CELL 1.54180   50.00000   50.00000   50.00000   90.00000   90.00000   90.00000
LATT -1
SFAC C  
C      1  0.5324520000000  0.4657520000000  0.5672900000000 1.0
C      1  0.4676900000000  0.4667750000000  0.4350000000000 1.0
C      1  0.5345840000000  0.5348720000000  0.5669080000000 1.0
C      1  0.4669880000000  0.5340460000000  0.4352320000000 1.0
C      1  0.4675030000000  0.4652950000000  0.5660910000000 1.0
C      1  0.5327930000000  0.4634840000000  0.4334990000000 1.0
C      1  0.4694970000000  0.5321530000000  0.5659080000000 1.0
C      1  0.5320190000000  0.5330720000000  0.4338210000000 1.0
C      1  0.4876020000000  0.5169230000000  0.5831620000000 1.0
C      1  0.5136450000000  0.5167110000000  0.4177080000000 1.0
C      1  0.4848150000000  0.4797070000000  0.5848760000000 1.0
C      1  0.5153370000000  0.4790350000000  0.4157030000000 1.0
C      1  0.5168160000000  0.5194620000000  0.5845030000000 1.0
C      1  0.4843610000000  0.5193880000000  0.4166530000000 1.0
C      1  0.5140980000000  0.4818130000000  0.5835480000000 1.0
C      1  0.4862860000000  0.4822110000000  0.4183680000000 1.0
C      1  0.4828180000000  0.5550390000000  0.5531080000000 1.0
C      1  0.5183340000000  0.5545780000000  0.4484300000000 1.0
C      1  0.4817780000000  0.4433940000000  0.5526640000000 1.0
C      1  0.5177270000000  0.4431670000000  0.4485330000000 1.0
C      1  0.5202820000000  0.5556840000000  0.5519600000000 1.0
C      1  0.4809240000000  0.5565110000000  0.4483840000000 1.0
C      1  0.5191630000000  0.4443050000000  0.5522220000000 1.0
C      1  0.4802570000000  0.4432500000000  0.4477080000000 1.0
C      1  0.5620460000000  0.4433620000000  0.5151550000000 1.0
C      1  0.4383240000000  0.4430780000000  0.4856110000000 1.0
C      1  0.5628480000000  0.5571560000000  0.5147960000000 1.0
C      1  0.4390140000000  0.5565910000000  0.4865110000000 1.0
C      1  0.4382740000000  0.4435350000000  0.5141580000000 1.0
C      1  0.5623880000000  0.4435140000000  0.4864320000000 1.0
C      1  0.4393610000000  0.5555370000000  0.5150320000000 1.0
C      1  0.5632450000000  0.5566360000000  0.4862810000000 1.0
C      1  0.5787740000000  0.4867750000000  0.4911690000000 1.0
C      1  0.4141310000000  0.4852550000000  0.5117480000000 1.0
C      1  0.5862850000000  0.5143690000000  0.4878560000000 1.0
C      1  0.4145440000000  0.5141970000000  0.5120250000000 1.0
C      1  0.4089480000000  0.4807890000000  0.4832480000000 1.0
C      1  0.5885690000000  0.4817720000000  0.5178030000000 1.0
C      1  0.4091690000000  0.5193090000000  0.4836740000000 1.0
C      1  0.5921610000000  0.5202560000000  0.5166280000000 1.0
C      1  0.5155580000000  0.4552890000000  0.5239860000000 1.0
C      1  0.4833930000000  0.4515930000000  0.4767750000000 1.0
C      1  0.5165810000000  0.5442340000000  0.5239900000000 1.0
C      1  0.4841360000000  0.5475510000000  0.4772100000000 1.0
C      1  0.4854040000000  0.4526780000000  0.5242430000000 1.0
C      1  0.5136030000000  0.4548440000000  0.4762380000000 1.0
C      1  0.4863870000000  0.5463830000000  0.5245180000000 1.0
C      1  0.5143400000000  0.5439110000000  0.4766030000000 1.0
C      1  0.5491110000000  0.5182920000000  0.5454260000000 1.0
C      1  0.4522290000000  0.5175720000000  0.4570680000000 1.0
C      1  0.5474190000000  0.4816610000000  0.5457030000000 1.0
C      1  0.4521100000000  0.4824110000000  0.4567590000000 1.0
C      1  0.4544280000000  0.5157600000000  0.5444040000000 1.0
C      1  0.5463140000000  0.5170770000000  0.4558650000000 1.0
C      1  0.4534820000000  0.4825840000000  0.5445230000000 1.0
C      1  0.5461230000000  0.4810750000000  0.4550900000000 1.0
C      1  0.4704010000000  0.4773660000000  0.4791840000000 1.0
C      1  0.5250410000000  0.4847530000000  0.5249030000000 1.0
C      1  0.4708220000000  0.5219240000000  0.4793720000000 1.0
C      1  0.5267400000000  0.5150690000000  0.5251090000000 1.0
C      1  0.5225370000000  0.4841700000000  0.4739960000000 1.0
C      1  0.4743840000000  0.4802180000000  0.5229080000000 1.0
C      1  0.5234100000000  0.5143850000000  0.4757570000000 1.0
C      1  0.4754600000000  0.5188470000000  0.5230580000000 1.0
C      1  0.4293340000000  0.5345220000000  0.4694490000000 1.0
C      1  0.5716230000000  0.5347720000000  0.5311460000000 1.0
C      1  0.4288900000000  0.4654330000000  0.4687520000000 1.0
C      1  0.5702820000000  0.4653230000000  0.5326710000000 1.0
C      1  0.5686260000000  0.5319460000000  0.4719030000000 1.0
C      1  0.4330240000000  0.5304510000000  0.5283520000000 1.0
C      1  0.5679760000000  0.4680470000000  0.4720760000000 1.0
C      1  0.4320390000000  0.4684040000000  0.5279800000000 1.0
C      1  0.5275630000000  0.5595850000000  0.4996610000000 1.0
C      1  0.4739850000000  0.5638920000000  0.5015540000000 1.0
C      1  0.5268380000000  0.4399570000000  0.4998240000000 1.0
C      1  0.4730510000000  0.4353040000000  0.5010700000000 1.0
C      1  0.4848460000000  0.4994380000000  0.4907890000000 1.0
END
