TITL C-3577084-3642-262 -5.42488718703605e-08 125000 -162.931204300245 0 0 28 (C1) n - 1
REM
REM in /home/bkarasulu/work/CARBON/AIRSS/Generating-Clusters/EDIP-Nigel-Params/with-SteepDescent/Higher-Symm/SD-CG/HFTN-CG
REM
REM
REM
REM
REM
REM ./C.cell (12c818d87b63d06a65506943cc24bca4)
REM
REM compiler GCC version 9.2.1 20190827 (Red Hat 9.2.1-1)
REM options -cpp -mtune=generic -march=x86-64 -g -O0 -fpre-include=/usr/include/finclude/math-vector-fortran.h
REM seed 993796469 -1473600205 -1806694724 422071677 902359652 1675723482 138665913 81818321 542818775 242004938 -353707968 -1633040405 -1023125989 583297000 1564222926 774106232 1336246078 -1220897939 179118463 -189389399 -977201264 -95932434 2038924480 486509715 -1910961436 2055057819 -296932409 -790524152 -200866352 924241027 -878935997 -216947178 551237828
REM
CELL 1.54180   50.00000   50.00000   50.00000   90.00000   90.00000   90.00000
LATT -1
SFAC C  
C      1  0.5092930000000  0.4753170000000  0.4761350000000 1.0
C      1  0.5089540000000  0.4934230000000  0.5282580000000 1.0
C      1  0.5064750000000  0.5332710000000  0.4941480000000 1.0
C      1  0.5530260000000  0.5373900000000  0.5052170000000 1.0
C      1  0.5539600000000  0.4926640000000  0.4721340000000 1.0
C      1  0.5549250000000  0.4776200000000  0.5214860000000 1.0
C      1  0.4859780000000  0.5121220000000  0.5026560000000 1.0
C      1  0.4864690000000  0.4847270000000  0.4917810000000 1.0
C      1  0.4705330000000  0.5142200000000  0.5296110000000 1.0
C      1  0.5285990000000  0.5151940000000  0.5348310000000 1.0
C      1  0.5235040000000  0.5250870000000  0.4699460000000 1.0
C      1  0.5266430000000  0.4580690000000  0.4938320000000 1.0
C      1  0.4600100000000  0.4787010000000  0.5407970000000 1.0
C      1  0.4643860000000  0.5486290000000  0.4898810000000 1.0
C      1  0.4619220000000  0.4681330000000  0.4632790000000 1.0
C      1  0.5514690000000  0.5300990000000  0.4776270000000 1.0
C      1  0.5554180000000  0.4698370000000  0.4910550000000 1.0
C      1  0.5553240000000  0.5064400000000  0.5272840000000 1.0
C      1  0.4890700000000  0.4625650000000  0.4591470000000 1.0
C      1  0.4850540000000  0.4923790000000  0.5475680000000 1.0
C      1  0.4901640000000  0.5563150000000  0.4882810000000 1.0
C      1  0.4451860000000  0.4830320000000  0.4790930000000 1.0
C      1  0.4391400000000  0.4926880000000  0.5268290000000 1.0
C      1  0.4467200000000  0.5291810000000  0.4953470000000 1.0
C      1  0.5264120000000  0.4965370000000  0.4628790000000 1.0
C      1  0.5252970000000  0.4677140000000  0.5232640000000 1.0
C      1  0.5261590000000  0.5383930000000  0.5169650000000 1.0
C      1  0.4405270000000  0.5020900000000  0.4993890000000 1.0
END
