TITL C-3577088-510-122 -1.68223449525886e-06 125000 -294.848591973718 0 0 50 (C1) n - 1
REM
REM in /home/bkarasulu/work/CARBON/AIRSS/Generating-Clusters/EDIP-Nigel-Params/with-SteepDescent/Higher-Symm/SD-CG/HFTN-CG
REM
REM
REM
REM
REM
REM ./C.cell (12c818d87b63d06a65506943cc24bca4)
REM
REM compiler GCC version 9.2.1 20190827 (Red Hat 9.2.1-1)
REM options -cpp -mtune=generic -march=x86-64 -g -O0 -fpre-include=/usr/include/finclude/math-vector-fortran.h
REM seed 2140431877 -1314046541 -261735386 -116651794 -1893294704 547764987 -192804275 -175585787 1096476486 791215154 1520715868 1256229018 -701538425 138944272 1285859542 1024127230 -285919661 -1968016390 490345436 727432436 359927264 -807083160 -511100250 1161505319 1150027013 -582913795 -891524253 1461069449 1888445952 -2095976483 -1427676156 1935469670 67498324
REM
CELL 1.54180   50.00000   50.00000   50.00000   90.00000   90.00000   90.00000
LATT -1
SFAC C  
C      1  0.5060310000000  0.4347680000000  0.5019270000000 1.0
C      1  0.5047900000000  0.4566450000000  0.5487970000000 1.0
C      1  0.4997430000000  0.5100900000000  0.5552490000000 1.0
C      1  0.5051910000000  0.5553500000000  0.5271600000000 1.0
C      1  0.5038230000000  0.5557970000000  0.4716790000000 1.0
C      1  0.5054120000000  0.5111470000000  0.4423200000000 1.0
C      1  0.4979210000000  0.4628760000000  0.4570080000000 1.0
C      1  0.4688940000000  0.5065550000000  0.4667960000000 1.0
C      1  0.4579570000000  0.4791760000000  0.4728330000000 1.0
C      1  0.4683400000000  0.4671200000000  0.4985990000000 1.0
C      1  0.4639500000000  0.4767430000000  0.5255620000000 1.0
C      1  0.4567170000000  0.5052470000000  0.5319080000000 1.0
C      1  0.4703560000000  0.5232850000000  0.5109510000000 1.0
C      1  0.4604370000000  0.5300530000000  0.4828540000000 1.0
C      1  0.4153280000000  0.4732390000000  0.4972920000000 1.0
C      1  0.4139430000000  0.4862870000000  0.5210250000000 1.0
C      1  0.4270370000000  0.5097130000000  0.5289590000000 1.0
C      1  0.4222950000000  0.5305170000000  0.5108050000000 1.0
C      1  0.4305160000000  0.5309780000000  0.4840320000000 1.0
C      1  0.4205440000000  0.5092390000000  0.4691950000000 1.0
C      1  0.4275950000000  0.4823340000000  0.4738120000000 1.0
C      1  0.5350720000000  0.4620720000000  0.4503210000000 1.0
C      1  0.5493260000000  0.4550240000000  0.4969780000000 1.0
C      1  0.5494580000000  0.4730500000000  0.5377370000000 1.0
C      1  0.5369810000000  0.5170160000000  0.5598940000000 1.0
C      1  0.5491660000000  0.5396440000000  0.5166630000000 1.0
C      1  0.5420920000000  0.5577580000000  0.4700550000000 1.0
C      1  0.5472660000000  0.5077950000000  0.4628680000000 1.0
C      1  0.5209520000000  0.4720370000000  0.5302920000000 1.0
C      1  0.5103920000000  0.5006360000000  0.5291250000000 1.0
C      1  0.5209320000000  0.5346650000000  0.5145460000000 1.0
C      1  0.5114970000000  0.5308750000000  0.4855010000000 1.0
C      1  0.5185360000000  0.5070810000000  0.4676210000000 1.0
C      1  0.5071950000000  0.4792990000000  0.4806800000000 1.0
C      1  0.5208600000000  0.4598120000000  0.5021250000000 1.0
C      1  0.4756620000000  0.5533660000000  0.4732250000000 1.0
C      1  0.4785420000000  0.5115240000000  0.4409830000000 1.0
C      1  0.4697660000000  0.4619840000000  0.4520670000000 1.0
C      1  0.4803340000000  0.4419730000000  0.4972090000000 1.0
C      1  0.4788420000000  0.4631750000000  0.5448140000000 1.0
C      1  0.4713020000000  0.5118820000000  0.5566960000000 1.0
C      1  0.4796650000000  0.5471830000000  0.5238570000000 1.0
C      1  0.5534340000000  0.4848520000000  0.4471380000000 1.0
C      1  0.5556650000000  0.4536290000000  0.4692660000000 1.0
C      1  0.5664890000000  0.4629900000000  0.5177340000000 1.0
C      1  0.5561590000000  0.4957150000000  0.5540550000000 1.0
C      1  0.5561870000000  0.5326970000000  0.5437010000000 1.0
C      1  0.5593730000000  0.5534810000000  0.4934060000000 1.0
C      1  0.5572310000000  0.5347080000000  0.4601260000000 1.0
C      1  0.4924300000000  0.5030930000000  0.5043920000000 1.0
END
