TITL C-3578197-9521-88 -1.34654550504488e-07 125000 -382.002367538982 0 0 62 (C3h) n - 1
REM
REM in /home/bkarasulu/work/CARBON/AIRSS/Generating-Clusters/EDIP-Nigel-Params/with-SteepDescent/Higher-Symm/SD-CG/HFTN-CG
REM
REM
REM
REM
REM
REM ./C.cell (12c818d87b63d06a65506943cc24bca4)
REM
REM compiler GCC version 9.2.1 20190827 (Red Hat 9.2.1-1)
REM options -cpp -mtune=generic -march=x86-64 -g -O0 -fpre-include=/usr/include/finclude/math-vector-fortran.h
REM seed 1489705930 -2024413947 587069200 -45525664 -88484274 884219490 -806423747 886049892 -1793635455 832993079 19319083 -1690683402 654510852 915256140 1932346762 -334825405 1467655400 -1942423139 305758235 -974077414 1559547085 1444776962 556956120 1333853477 764892973 -640332299 591847952 -488859648 -1797884150 -1938529603 1501218907 -673570416 -254991476
REM
CELL 1.54180   50.00000   50.00000   50.00000   90.00000   90.00000   90.00000
LATT -1
SFAC C  
C      1  0.4602170000000  0.5236650000000  0.4439870000000 1.0
C      1  0.5394650000000  0.5226200000000  0.4431440000000 1.0
C      1  0.4989380000000  0.4545080000000  0.4437620000000 1.0
C      1  0.4614000000000  0.5239660000000  0.5548180000000 1.0
C      1  0.5406470000000  0.5229210000000  0.5539750000000 1.0
C      1  0.5001200000000  0.4548090000000  0.5545920000000 1.0
C      1  0.5475840000000  0.4620780000000  0.5569860000000 1.0
C      1  0.4440030000000  0.4792640000000  0.5580450000000 1.0
C      1  0.5106740000000  0.5603790000000  0.5571130000000 1.0
C      1  0.5463390000000  0.4617610000000  0.4403160000000 1.0
C      1  0.4427580000000  0.4789470000000  0.4413740000000 1.0
C      1  0.5094290000000  0.5600620000000  0.4404430000000 1.0
C      1  0.5490290000000  0.4944800000000  0.4828330000000 1.0
C      1  0.4703290000000  0.4608240000000  0.4837640000000 1.0
C      1  0.4805320000000  0.5458130000000  0.4834240000000 1.0
C      1  0.5493650000000  0.4945650000000  0.5142450000000 1.0
C      1  0.4706640000000  0.4609090000000  0.5151760000000 1.0
C      1  0.4808670000000  0.5458980000000  0.5148360000000 1.0
C      1  0.4653410000000  0.4955360000000  0.4447340000000 1.0
C      1  0.5125530000000  0.5322570000000  0.4441310000000 1.0
C      1  0.5207480000000  0.4730070000000  0.4442040000000 1.0
C      1  0.4665080000000  0.4958330000000  0.5541140000000 1.0
C      1  0.5137200000000  0.5325540000000  0.5535110000000 1.0
C      1  0.5219150000000  0.4733040000000  0.5535840000000 1.0
C      1  0.5051080000000  0.5293070000000  0.5242900000000 1.0
C      1  0.5230090000000  0.4819950000000  0.5242270000000 1.0
C      1  0.4730880000000  0.4901490000000  0.5247380000000 1.0
C      1  0.5045670000000  0.5291690000000  0.4735460000000 1.0
C      1  0.5224670000000  0.4818580000000  0.4734830000000 1.0
C      1  0.4725470000000  0.4900120000000  0.4739940000000 1.0
C      1  0.4504860000000  0.5083050000000  0.5143060000000 1.0
C      1  0.5319870000000  0.5396620000000  0.5133510000000 1.0
C      1  0.5183930000000  0.4533970000000  0.5137300000000 1.0
C      1  0.4501710000000  0.5082250000000  0.4848070000000 1.0
C      1  0.5316720000000  0.5395820000000  0.4838520000000 1.0
C      1  0.5180780000000  0.4533170000000  0.4842310000000 1.0
C      1  0.5114230000000  0.5773110000000  0.5341230000000 1.0
C      1  0.5615600000000  0.4526570000000  0.5339270000000 1.0
C      1  0.4285440000000  0.4715650000000  0.5352950000000 1.0
C      1  0.5106670000000  0.5771190000000  0.4633190000000 1.0
C      1  0.5608040000000  0.4524650000000  0.4631230000000 1.0
C      1  0.4277890000000  0.4713730000000  0.4644910000000 1.0
C      1  0.4419490000000  0.4515830000000  0.4808530000000 1.0
C      1  0.4866740000000  0.5749700000000  0.4800410000000 1.0
C      1  0.5711640000000  0.4745380000000  0.4794120000000 1.0
C      1  0.4423530000000  0.4516860000000  0.5187410000000 1.0
C      1  0.4870790000000  0.5750730000000  0.5179290000000 1.0
C      1  0.5715680000000  0.4746410000000  0.5173000000000 1.0
C      1  0.4931670000000  0.4454510000000  0.5284470000000 1.0
C      1  0.4564140000000  0.5343180000000  0.5285980000000 1.0
C      1  0.5517470000000  0.5217130000000  0.5276150000000 1.0
C      1  0.4925440000000  0.4452920000000  0.4701000000000 1.0
C      1  0.4557910000000  0.5341600000000  0.4702510000000 1.0
C      1  0.5511240000000  0.5215550000000  0.4692680000000 1.0
C      1  0.5428900000000  0.4365620000000  0.4798490000000 1.0
C      1  0.4231990000000  0.4950590000000  0.4809670000000 1.0
C      1  0.5336990000000  0.5694700000000  0.4795860000000 1.0
C      1  0.5432930000000  0.4366650000000  0.5176730000000 1.0
C      1  0.4236030000000  0.4951620000000  0.5187910000000 1.0
C      1  0.5341020000000  0.5695730000000  0.5174100000000 1.0
C      1  0.4999630000000  0.5003720000000  0.4832510000000 1.0
C      1  0.5003000000000  0.5004580000000  0.5148410000000 1.0
END
