TITL C-3578200-9634-614 -2.83737398647166e-06 125000 -839.031672270621 0 0 135 (C1) n - 1
REM
REM in /home/bkarasulu/work/CARBON/AIRSS/Generating-Clusters/EDIP-Nigel-Params/with-SteepDescent/Higher-Symm/SD-CG/HFTN-CG
REM
REM
REM
REM
REM
REM ./C.cell (12c818d87b63d06a65506943cc24bca4)
REM
REM compiler GCC version 9.2.1 20190827 (Red Hat 9.2.1-1)
REM options -cpp -mtune=generic -march=x86-64 -g -O0 -fpre-include=/usr/include/finclude/math-vector-fortran.h
REM seed -1793079722 14399690 1449621569 2036526162 827703894 99603700 -782085432 883671524 -836076073 -1655334229 161796515 1237036052 -955352895 1101827880 -1314658733 -1956914572 52467103 -1632002261 -377586664 -997845045 -1587409769 -738475189 -2014361067 1934502468 432605572 -1074406719 1499855963 198611551 1858258943 895705724 -1972616600 -1549653788 -46488550
REM
CELL 1.54180   50.00000   50.00000   50.00000   90.00000   90.00000   90.00000
LATT -1
SFAC C  
C      1  0.4418650000000  0.4172430000000  0.4844390000000 1.0
C      1  0.4460140000000  0.4898380000000  0.4169030000000 1.0
C      1  0.4430790000000  0.5705920000000  0.4651980000000 1.0
C      1  0.4441270000000  0.5599080000000  0.5616430000000 1.0
C      1  0.4408470000000  0.4656600000000  0.5701010000000 1.0
C      1  0.4685850000000  0.5057870000000  0.5550200000000 1.0
C      1  0.4663220000000  0.4467350000000  0.5185310000000 1.0
C      1  0.4636100000000  0.4614360000000  0.4533380000000 1.0
C      1  0.4674270000000  0.5313880000000  0.4527080000000 1.0
C      1  0.4657640000000  0.5499270000000  0.5183540000000 1.0
C      1  0.5406490000000  0.5835510000000  0.4762810000000 1.0
C      1  0.5420610000000  0.5478750000000  0.5758900000000 1.0
C      1  0.5377920000000  0.4459630000000  0.5693020000000 1.0
C      1  0.5403460000000  0.4225620000000  0.4698170000000 1.0
C      1  0.5452620000000  0.5093860000000  0.4106570000000 1.0
C      1  0.4461490000000  0.5722960000000  0.5186820000000 1.0
C      1  0.4462390000000  0.5094900000000  0.5757200000000 1.0
C      1  0.4401470000000  0.4355470000000  0.5273990000000 1.0
C      1  0.4364270000000  0.4524690000000  0.4469930000000 1.0
C      1  0.4429170000000  0.5366890000000  0.4362970000000 1.0
C      1  0.5836280000000  0.4860450000000  0.5213880000000 1.0
C      1  0.5887650000000  0.4740260000000  0.4947350000000 1.0
C      1  0.5896600000000  0.4966490000000  0.4745950000000 1.0
C      1  0.5874360000000  0.5221620000000  0.4895360000000 1.0
C      1  0.5839150000000  0.5154400000000  0.5180560000000 1.0
C      1  0.5198970000000  0.4325220000000  0.5181200000000 1.0
C      1  0.5299900000000  0.4701710000000  0.4303110000000 1.0
C      1  0.5225560000000  0.5513270000000  0.4451790000000 1.0
C      1  0.5233460000000  0.5658790000000  0.5357020000000 1.0
C      1  0.5159650000000  0.4932580000000  0.5745550000000 1.0
C      1  0.4823220000000  0.3991100000000  0.5478710000000 1.0
C      1  0.4792310000000  0.4343050000000  0.4311150000000 1.0
C      1  0.4837030000000  0.5525830000000  0.4069990000000 1.0
C      1  0.4827640000000  0.5971500000000  0.5201090000000 1.0
C      1  0.4866710000000  0.5106570000000  0.6030350000000 1.0
C      1  0.4349310000000  0.5114710000000  0.5217480000000 1.0
C      1  0.4393110000000  0.4815510000000  0.5236610000000 1.0
C      1  0.4371800000000  0.4715850000000  0.4938800000000 1.0
C      1  0.4418170000000  0.4953930000000  0.4775680000000 1.0
C      1  0.4344630000000  0.5192790000000  0.4922290000000 1.0
C      1  0.4777230000000  0.4857440000000  0.5957070000000 1.0
C      1  0.4744100000000  0.3956630000000  0.5193680000000 1.0
C      1  0.4830450000000  0.4562370000000  0.4141000000000 1.0
C      1  0.4740810000000  0.5672790000000  0.4279440000000 1.0
C      1  0.4776180000000  0.5889260000000  0.5453850000000 1.0
C      1  0.4562760000000  0.5261350000000  0.5357700000000 1.0
C      1  0.4690560000000  0.4760690000000  0.5376290000000 1.0
C      1  0.4678160000000  0.4531850000000  0.4847310000000 1.0
C      1  0.4629940000000  0.4957880000000  0.4572910000000 1.0
C      1  0.4601700000000  0.5375300000000  0.4887460000000 1.0
C      1  0.5210250000000  0.4610870000000  0.4728400000000 1.0
C      1  0.5106490000000  0.5042010000000  0.4511130000000 1.0
C      1  0.5087420000000  0.5423300000000  0.4928320000000 1.0
C      1  0.5101900000000  0.5238340000000  0.5332480000000 1.0
C      1  0.5252680000000  0.4658000000000  0.5267320000000 1.0
C      1  0.4921690000000  0.5078690000000  0.5173210000000 1.0
C      1  0.4971050000000  0.4787220000000  0.5169870000000 1.0
C      1  0.4936590000000  0.4709680000000  0.4874630000000 1.0
C      1  0.4894630000000  0.4975450000000  0.4720820000000 1.0
C      1  0.4879040000000  0.5206240000000  0.4915970000000 1.0
C      1  0.5559600000000  0.4512970000000  0.5456300000000 1.0
C      1  0.5575950000000  0.4467230000000  0.4679860000000 1.0
C      1  0.5593100000000  0.5126080000000  0.4392270000000 1.0
C      1  0.5564450000000  0.5601700000000  0.4902780000000 1.0
C      1  0.5546340000000  0.5266390000000  0.5570520000000 1.0
C      1  0.4924320000000  0.5808460000000  0.4713320000000 1.0
C      1  0.4951140000000  0.5520210000000  0.5737430000000 1.0
C      1  0.4890600000000  0.4489670000000  0.5661920000000 1.0
C      1  0.4928700000000  0.4175420000000  0.4770570000000 1.0
C      1  0.4974790000000  0.5011500000000  0.4090410000000 1.0
C      1  0.5182170000000  0.5768150000000  0.4581800000000 1.0
C      1  0.5206790000000  0.5640840000000  0.5645660000000 1.0
C      1  0.5143920000000  0.4636290000000  0.5692140000000 1.0
C      1  0.5186780000000  0.4213600000000  0.4898210000000 1.0
C      1  0.5245170000000  0.4890640000000  0.4095460000000 1.0
C      1  0.5378350000000  0.5100110000000  0.4658540000000 1.0
C      1  0.5371910000000  0.5333310000000  0.4931850000000 1.0
C      1  0.5399880000000  0.5172520000000  0.5221250000000 1.0
C      1  0.5405020000000  0.4874900000000  0.5113860000000 1.0
C      1  0.5393540000000  0.4839780000000  0.4816840000000 1.0
C      1  0.4055180000000  0.4738900000000  0.4962130000000 1.0
C      1  0.3948940000000  0.4940460000000  0.4786840000000 1.0
C      1  0.4026250000000  0.5179690000000  0.4924260000000 1.0
C      1  0.3965240000000  0.5122690000000  0.5207480000000 1.0
C      1  0.4006130000000  0.4838300000000  0.5233360000000 1.0
C      1  0.4958400000000  0.4187310000000  0.5674860000000 1.0
C      1  0.4984950000000  0.4237690000000  0.4490480000000 1.0
C      1  0.5017820000000  0.5302530000000  0.4011960000000 1.0
C      1  0.4978900000000  0.5948870000000  0.4966900000000 1.0
C      1  0.4998180000000  0.5357030000000  0.5996470000000 1.0
C      1  0.5691240000000  0.4467210000000  0.4399790000000 1.0
C      1  0.5685320000000  0.5404720000000  0.4324070000000 1.0
C      1  0.5651470000000  0.5754220000000  0.5150510000000 1.0
C      1  0.5635630000000  0.5069660000000  0.5774560000000 1.0
C      1  0.5632240000000  0.4251700000000  0.5337320000000 1.0
C      1  0.4310820000000  0.4480020000000  0.5506320000000 1.0
C      1  0.4260750000000  0.4369540000000  0.4692150000000 1.0
C      1  0.4313440000000  0.5118760000000  0.4278450000000 1.0
C      1  0.4372210000000  0.5752800000000  0.4922050000000 1.0
C      1  0.4369260000000  0.5358790000000  0.5742750000000 1.0
C      1  0.4243140000000  0.4243750000000  0.5060390000000 1.0
C      1  0.4261070000000  0.4730740000000  0.4296780000000 1.0
C      1  0.4261940000000  0.5560560000000  0.4481420000000 1.0
C      1  0.4286400000000  0.5715520000000  0.5408800000000 1.0
C      1  0.4271380000000  0.4888090000000  0.5775130000000 1.0
C      1  0.5272610000000  0.5977010000000  0.4989670000000 1.0
C      1  0.5299180000000  0.5322920000000  0.5989210000000 1.0
C      1  0.5266720000000  0.4180130000000  0.5641830000000 1.0
C      1  0.5276670000000  0.4229060000000  0.4429290000000 1.0
C      1  0.5321780000000  0.5347590000000  0.4017270000000 1.0
C      1  0.4988430000000  0.5566540000000  0.5187580000000 1.0
C      1  0.4977530000000  0.5154850000000  0.5610930000000 1.0
C      1  0.4904270000000  0.4297680000000  0.5267870000000 1.0
C      1  0.5051280000000  0.4668600000000  0.4440130000000 1.0
C      1  0.4989390000000  0.5316820000000  0.4406030000000 1.0
C      1  0.4693410000000  0.5755670000000  0.4544430000000 1.0
C      1  0.4716540000000  0.5688090000000  0.5638200000000 1.0
C      1  0.4680730000000  0.4640370000000  0.5800400000000 1.0
C      1  0.4696250000000  0.4101730000000  0.4934830000000 1.0
C      1  0.4751110000000  0.4835580000000  0.4167300000000 1.0
C      1  0.5789470000000  0.4467800000000  0.4885080000000 1.0
C      1  0.5830830000000  0.4950110000000  0.4456920000000 1.0
C      1  0.5812150000000  0.5488610000000  0.4781940000000 1.0
C      1  0.5766110000000  0.5343220000000  0.5389320000000 1.0
C      1  0.5785670000000  0.4706480000000  0.5463840000000 1.0
C      1  0.5381540000000  0.5037250000000  0.5923260000000 1.0
C      1  0.5360170000000  0.4131020000000  0.5355850000000 1.0
C      1  0.5429150000000  0.4439710000000  0.4260420000000 1.0
C      1  0.5426860000000  0.5524190000000  0.4233660000000 1.0
C      1  0.5399980000000  0.5876360000000  0.5243150000000 1.0
C      1  0.5793550000000  0.5613080000000  0.5340010000000 1.0
C      1  0.5778380000000  0.4848320000000  0.5697580000000 1.0
C      1  0.5751700000000  0.4283360000000  0.5090260000000 1.0
C      1  0.5834460000000  0.4697870000000  0.4340230000000 1.0
C      1  0.5839910000000  0.5536310000000  0.4511790000000 1.0
END
