TITL C-3577091-527-138 -3.66601598942973e-06 125000 -1057.89066643775 0 0 168 (C1) n - 1
REM
REM in /home/bkarasulu/work/CARBON/AIRSS/Generating-Clusters/EDIP-Nigel-Params/with-SteepDescent/Higher-Symm/SD-CG/HFTN-CG
REM
REM
REM
REM
REM
REM ./C.cell (12c818d87b63d06a65506943cc24bca4)
REM
REM compiler GCC version 9.2.1 20190827 (Red Hat 9.2.1-1)
REM options -cpp -mtune=generic -march=x86-64 -g -O0 -fpre-include=/usr/include/finclude/math-vector-fortran.h
REM seed -191342101 513983093 1821288167 1301592356 1669796603 -374179963 -1350886375 22577662 -2084917428 -2129974277 -1199570957 -1853372990 153572403 -54119950 -2044259934 88429629 -944739841 -188708251 -1574583545 1246258066 -493905022 -673198634 -720578106 -1716573815 -1381495260 -1964171989 -769391644 1753294048 -529250177 777233757 -1687166189 785516342 1560673163
REM
CELL 1.54180   50.00000   50.00000   50.00000   90.00000   90.00000   90.00000
LATT -1
SFAC C  
C      1  0.5097130000000  0.4741240000000  0.5042150000000 1.0
C      1  0.5117890000000  0.5133220000000  0.5513150000000 1.0
C      1  0.4633350000000  0.5060120000000  0.4565830000000 1.0
C      1  0.5566310000000  0.4483070000000  0.5731240000000 1.0
C      1  0.5630050000000  0.5022170000000  0.5793440000000 1.0
C      1  0.5887060000000  0.5562280000000  0.4749800000000 1.0
C      1  0.5265790000000  0.4282330000000  0.3988080000000 1.0
C      1  0.4834970000000  0.4518160000000  0.5402450000000 1.0
C      1  0.5061470000000  0.5382370000000  0.6039400000000 1.0
C      1  0.4326260000000  0.4987710000000  0.4532010000000 1.0
C      1  0.4395960000000  0.5863130000000  0.4888230000000 1.0
C      1  0.5399510000000  0.5334190000000  0.4018930000000 1.0
C      1  0.5203250000000  0.5835470000000  0.5444920000000 1.0
C      1  0.4577870000000  0.5995100000000  0.5617870000000 1.0
C      1  0.4902030000000  0.6029090000000  0.4918760000000 1.0
C      1  0.5912520000000  0.4767810000000  0.5543260000000 1.0
C      1  0.5242700000000  0.4905460000000  0.4535580000000 1.0
C      1  0.5239360000000  0.5576700000000  0.4076320000000 1.0
C      1  0.5914560000000  0.4740900000000  0.4495590000000 1.0
C      1  0.4030840000000  0.4761470000000  0.4868450000000 1.0
C      1  0.4992980000000  0.5363550000000  0.4373340000000 1.0
C      1  0.4878380000000  0.3974440000000  0.5311960000000 1.0
C      1  0.5870500000000  0.5221870000000  0.4358540000000 1.0
C      1  0.4940650000000  0.5542980000000  0.5801880000000 1.0
C      1  0.5599430000000  0.5631250000000  0.5603710000000 1.0
C      1  0.4483550000000  0.4358650000000  0.5617030000000 1.0
C      1  0.5725190000000  0.5731850000000  0.4592560000000 1.0
C      1  0.6035410000000  0.5024580000000  0.5558840000000 1.0
C      1  0.4786640000000  0.5161290000000  0.5139050000000 1.0
C      1  0.3877540000000  0.4939420000000  0.5271750000000 1.0
C      1  0.5264890000000  0.5176030000000  0.4984500000000 1.0
C      1  0.4309120000000  0.5137620000000  0.5712940000000 1.0
C      1  0.5147680000000  0.5780640000000  0.5745400000000 1.0
C      1  0.4745320000000  0.5782690000000  0.4529730000000 1.0
C      1  0.5319110000000  0.4450200000000  0.5885330000000 1.0
C      1  0.4945950000000  0.4126720000000  0.5779660000000 1.0
C      1  0.4820290000000  0.5105260000000  0.4325760000000 1.0
C      1  0.5196690000000  0.4196780000000  0.5885100000000 1.0
C      1  0.4994430000000  0.5252660000000  0.4948760000000 1.0
C      1  0.5469690000000  0.5128890000000  0.6003180000000 1.0
C      1  0.5843300000000  0.4330730000000  0.5341780000000 1.0
C      1  0.4592510000000  0.3977830000000  0.5260590000000 1.0
C      1  0.4675660000000  0.4520390000000  0.4998010000000 1.0
C      1  0.5842940000000  0.4931350000000  0.4294720000000 1.0
C      1  0.4376820000000  0.5478100000000  0.4583130000000 1.0
C      1  0.4273580000000  0.4653810000000  0.5274660000000 1.0
C      1  0.4370420000000  0.5100130000000  0.5037460000000 1.0
C      1  0.5029270000000  0.4301380000000  0.4136170000000 1.0
C      1  0.4119240000000  0.4562340000000  0.4661280000000 1.0
C      1  0.5566720000000  0.4717120000000  0.4985160000000 1.0
C      1  0.5143430000000  0.4885700000000  0.4017840000000 1.0
C      1  0.4664590000000  0.4815230000000  0.5810120000000 1.0
C      1  0.5424520000000  0.5319360000000  0.4765520000000 1.0
C      1  0.4171780000000  0.5023250000000  0.4815330000000 1.0
C      1  0.5543180000000  0.4793030000000  0.5301110000000 1.0
C      1  0.5282080000000  0.4210470000000  0.5206640000000 1.0
C      1  0.4568960000000  0.5201850000000  0.6114620000000 1.0
C      1  0.4800650000000  0.4800260000000  0.5001540000000 1.0
C      1  0.5125330000000  0.6001320000000  0.4734240000000 1.0
C      1  0.4488750000000  0.4314050000000  0.4506260000000 1.0
C      1  0.3986760000000  0.5498260000000  0.4874290000000 1.0
C      1  0.4253360000000  0.4293960000000  0.4681350000000 1.0
C      1  0.3996440000000  0.4711230000000  0.5158760000000 1.0
C      1  0.5298220000000  0.4550690000000  0.4603640000000 1.0
C      1  0.4010980000000  0.5674850000000  0.5322480000000 1.0
C      1  0.4985790000000  0.4196520000000  0.4419580000000 1.0
C      1  0.4665410000000  0.4881590000000  0.3908860000000 1.0
C      1  0.4512990000000  0.5559720000000  0.4141720000000 1.0
C      1  0.5470140000000  0.4132980000000  0.4519670000000 1.0
C      1  0.5194640000000  0.4968540000000  0.5788680000000 1.0
C      1  0.5025830000000  0.5093280000000  0.6006890000000 1.0
C      1  0.5197570000000  0.4011290000000  0.4527620000000 1.0
C      1  0.5910630000000  0.5281260000000  0.4640450000000 1.0
C      1  0.4635470000000  0.5496810000000  0.5254990000000 1.0
C      1  0.5285720000000  0.5592630000000  0.4765750000000 1.0
C      1  0.5129970000000  0.3945630000000  0.4808170000000 1.0
C      1  0.5011080000000  0.4429960000000  0.4612110000000 1.0
C      1  0.4617730000000  0.5333610000000  0.4668800000000 1.0
C      1  0.4286040000000  0.5577740000000  0.4858380000000 1.0
C      1  0.5689450000000  0.4743500000000  0.5717400000000 1.0
C      1  0.5497410000000  0.5792850000000  0.5385780000000 1.0
C      1  0.5400610000000  0.5629670000000  0.5821150000000 1.0
C      1  0.4422540000000  0.6039390000000  0.5358530000000 1.0
C      1  0.5357400000000  0.4045090000000  0.4977570000000 1.0
C      1  0.4549250000000  0.4265830000000  0.5342760000000 1.0
C      1  0.5611750000000  0.5124660000000  0.5327000000000 1.0
C      1  0.5507670000000  0.5217010000000  0.4268550000000 1.0
C      1  0.3982250000000  0.5250010000000  0.4708090000000 1.0
C      1  0.6209270000000  0.5115310000000  0.5355670000000 1.0
C      1  0.5411940000000  0.4473540000000  0.4876280000000 1.0
C      1  0.4671630000000  0.5899060000000  0.4792960000000 1.0
C      1  0.4773510000000  0.4045820000000  0.4806340000000 1.0
C      1  0.5296480000000  0.5220790000000  0.4489860000000 1.0
C      1  0.4989920000000  0.5484240000000  0.3955550000000 1.0
C      1  0.5039380000000  0.4909640000000  0.4300300000000 1.0
C      1  0.4456000000000  0.4888500000000  0.5244390000000 1.0
C      1  0.4948670000000  0.6018770000000  0.5217460000000 1.0
C      1  0.4918550000000  0.4730010000000  0.3871220000000 1.0
C      1  0.4517880000000  0.3977150000000  0.4971670000000 1.0
C      1  0.5556970000000  0.4211740000000  0.4810040000000 1.0
C      1  0.5120290000000  0.4649070000000  0.5780100000000 1.0
C      1  0.4838000000000  0.4589160000000  0.5887940000000 1.0
C      1  0.4120320000000  0.5282060000000  0.5545770000000 1.0
C      1  0.5512220000000  0.5773250000000  0.4431360000000 1.0
C      1  0.4736030000000  0.4338050000000  0.5789040000000 1.0
C      1  0.4488290000000  0.5634980000000  0.5515100000000 1.0
C      1  0.4232300000000  0.4709720000000  0.4428050000000 1.0
C      1  0.4426080000000  0.5394050000000  0.5060270000000 1.0
C      1  0.5115370000000  0.4570070000000  0.5491050000000 1.0
C      1  0.4185110000000  0.5566040000000  0.5518580000000 1.0
C      1  0.5563230000000  0.4924060000000  0.4232760000000 1.0
C      1  0.4801790000000  0.4627740000000  0.4534100000000 1.0
C      1  0.4446980000000  0.5329940000000  0.5895320000000 1.0
C      1  0.4882460000000  0.5019470000000  0.5375690000000 1.0
C      1  0.5416330000000  0.4752130000000  0.4049030000000 1.0
C      1  0.5440390000000  0.4464050000000  0.4111700000000 1.0
C      1  0.5802480000000  0.4471950000000  0.4483640000000 1.0
C      1  0.6072570000000  0.5045230000000  0.5118550000000 1.0
C      1  0.4930440000000  0.3931250000000  0.5582690000000 1.0
C      1  0.5283800000000  0.4897880000000  0.4878910000000 1.0
C      1  0.5507420000000  0.4415500000000  0.4403770000000 1.0
C      1  0.4366660000000  0.4836960000000  0.5760050000000 1.0
C      1  0.6050250000000  0.4740320000000  0.5078390000000 1.0
C      1  0.4416590000000  0.5282860000000  0.4132380000000 1.0
C      1  0.4694990000000  0.4812750000000  0.5459660000000 1.0
C      1  0.4684770000000  0.4674370000000  0.4238180000000 1.0
C      1  0.5696960000000  0.4269370000000  0.5585980000000 1.0
C      1  0.4614800000000  0.5544160000000  0.5774970000000 1.0
C      1  0.4637490000000  0.5093990000000  0.4098190000000 1.0
C      1  0.4721320000000  0.6117810000000  0.5384090000000 1.0
C      1  0.4834720000000  0.4492860000000  0.4038300000000 1.0
C      1  0.5568300000000  0.5694230000000  0.5117030000000 1.0
C      1  0.4321390000000  0.6021250000000  0.5100930000000 1.0
C      1  0.4983120000000  0.4246090000000  0.5217660000000 1.0
C      1  0.4841470000000  0.5503730000000  0.4605840000000 1.0
C      1  0.5184240000000  0.5166230000000  0.3904650000000 1.0
C      1  0.5352950000000  0.5400010000000  0.6011790000000 1.0
C      1  0.4465520000000  0.5699340000000  0.4396760000000 1.0
C      1  0.4893570000000  0.5645970000000  0.5134020000000 1.0
C      1  0.4883200000000  0.4315200000000  0.4924240000000 1.0
C      1  0.5332150000000  0.5241130000000  0.5282460000000 1.0
C      1  0.5119940000000  0.5569940000000  0.5327090000000 1.0
C      1  0.3904420000000  0.5460130000000  0.5165270000000 1.0
C      1  0.5991060000000  0.4585360000000  0.5333690000000 1.0
C      1  0.4750690000000  0.5026580000000  0.5995560000000 1.0
C      1  0.5252220000000  0.5717930000000  0.4343670000000 1.0
C      1  0.5842210000000  0.5195130000000  0.5692600000000 1.0
C      1  0.4797750000000  0.5587470000000  0.4127420000000 1.0
C      1  0.5015230000000  0.5405420000000  0.5547790000000 1.0
C      1  0.4301200000000  0.4194860000000  0.4956220000000 1.0
C      1  0.4704750000000  0.4109130000000  0.4513250000000 1.0
C      1  0.5000250000000  0.5526800000000  0.4858480000000 1.0
C      1  0.3964820000000  0.5203350000000  0.5312320000000 1.0
C      1  0.5699130000000  0.5166910000000  0.4813370000000 1.0
C      1  0.5806800000000  0.5207910000000  0.5090680000000 1.0
C      1  0.5041880000000  0.5893980000000  0.4469800000000 1.0
C      1  0.5768680000000  0.5413740000000  0.5530270000000 1.0
C      1  0.4190380000000  0.5267120000000  0.4444740000000 1.0
C      1  0.4434670000000  0.4529810000000  0.4306940000000 1.0
C      1  0.5231110000000  0.4758410000000  0.5307390000000 1.0
C      1  0.5847200000000  0.4669690000000  0.4867520000000 1.0
C      1  0.4296650000000  0.4600440000000  0.5582180000000 1.0
C      1  0.4773410000000  0.4850570000000  0.4712790000000 1.0
C      1  0.4423450000000  0.4420770000000  0.5126470000000 1.0
C      1  0.5832240000000  0.4367300000000  0.4766090000000 1.0
C      1  0.5814130000000  0.5530600000000  0.5043970000000 1.0
C      1  0.5415860000000  0.5815360000000  0.4900960000000 1.0
C      1  0.5484150000000  0.4420780000000  0.5303030000000 1.0
END
