TITL C-3578202-4305-400 1.96619038320526e-06 125000 -230.769665523654 0 0 39 (C1) n - 1
REM
REM in /home/bkarasulu/work/CARBON/AIRSS/Generating-Clusters/EDIP-Nigel-Params/with-SteepDescent/Higher-Symm/SD-CG/HFTN-CG
REM
REM
REM
REM
REM
REM ./C.cell (12c818d87b63d06a65506943cc24bca4)
REM
REM compiler GCC version 9.2.1 20190827 (Red Hat 9.2.1-1)
REM options -cpp -mtune=generic -march=x86-64 -g -O0 -fpre-include=/usr/include/finclude/math-vector-fortran.h
REM seed 1441398347 -396609328 -1701618528 -1934598704 -574527905 -687054457 -1830347091 1025817323 -1183512338 75374991 1761100352 1566647385 760593596 -1970267372 -1978586272 1658477498 2066315421 -1728574010 1302042688 17660796 -2100897019 581047108 348621015 -663917890 -1398905700 345674630 2106071364 605510775 -579541914 1342200610 1317846002 -1577768181 241803016
REM
CELL 1.54180   50.00000   50.00000   50.00000   90.00000   90.00000   90.00000
LATT -1
SFAC C  
C      1  0.5274410000000  0.5306620000000  0.4453790000000 1.0
C      1  0.5257720000000  0.4553890000000  0.5325340000000 1.0
C      1  0.5349130000000  0.4660960000000  0.5572750000000 1.0
C      1  0.5462380000000  0.5045980000000  0.4843080000000 1.0
C      1  0.5381580000000  0.4606620000000  0.5064130000000 1.0
C      1  0.5325620000000  0.4639560000000  0.4584530000000 1.0
C      1  0.5433780000000  0.4749290000000  0.4818730000000 1.0
C      1  0.4705210000000  0.5319800000000  0.5272990000000 1.0
C      1  0.5094280000000  0.5513520000000  0.4587740000000 1.0
C      1  0.5341200000000  0.4936120000000  0.5532560000000 1.0
C      1  0.4973590000000  0.4483200000000  0.5311560000000 1.0
C      1  0.5504200000000  0.5236920000000  0.4624270000000 1.0
C      1  0.5420200000000  0.5481100000000  0.4799170000000 1.0
C      1  0.4822510000000  0.4935130000000  0.5568220000000 1.0
C      1  0.4659860000000  0.5433040000000  0.4830600000000 1.0
C      1  0.4592610000000  0.5111610000000  0.5481090000000 1.0
C      1  0.4382350000000  0.4950060000000  0.5376800000000 1.0
C      1  0.4799340000000  0.4717660000000  0.5372340000000 1.0
C      1  0.5019900000000  0.5041530000000  0.4849480000000 1.0
C      1  0.4645680000000  0.4894050000000  0.4586300000000 1.0
C      1  0.5087850000000  0.5598160000000  0.4967480000000 1.0
C      1  0.4504770000000  0.4943720000000  0.4848810000000 1.0
C      1  0.5054730000000  0.4818550000000  0.5032240000000 1.0
C      1  0.4798450000000  0.5597380000000  0.5024510000000 1.0
C      1  0.5086060000000  0.4705930000000  0.4449730000000 1.0
C      1  0.5072130000000  0.5099400000000  0.5555100000000 1.0
C      1  0.4545820000000  0.4687470000000  0.4996130000000 1.0
C      1  0.4902930000000  0.4360520000000  0.5058230000000 1.0
C      1  0.5070530000000  0.4994890000000  0.4380190000000 1.0
C      1  0.5440770000000  0.5233340000000  0.5101110000000 1.0
C      1  0.4824430000000  0.5381680000000  0.4587160000000 1.0
C      1  0.5272460000000  0.4990730000000  0.5239940000000 1.0
C      1  0.4626120000000  0.5189540000000  0.4987610000000 1.0
C      1  0.4883430000000  0.5085270000000  0.4595750000000 1.0
C      1  0.4824630000000  0.4637320000000  0.4597980000000 1.0
C      1  0.4830550000000  0.4608140000000  0.4911850000000 1.0
C      1  0.5001500000000  0.5311860000000  0.5350980000000 1.0
C      1  0.4522840000000  0.4719000000000  0.5287090000000 1.0
C      1  0.5204450000000  0.5420430000000  0.5172650000000 1.0
END
