TITL C-3577086-586-575 -3.50161307708108e-06 125000 -1072.91873627309 0 0 171 (C1) n - 1
REM
REM in /home/bkarasulu/work/CARBON/AIRSS/Generating-Clusters/EDIP-Nigel-Params/with-SteepDescent/Higher-Symm/SD-CG/HFTN-CG
REM
REM
REM
REM
REM
REM ./C.cell (12c818d87b63d06a65506943cc24bca4)
REM
REM compiler GCC version 9.2.1 20190827 (Red Hat 9.2.1-1)
REM options -cpp -mtune=generic -march=x86-64 -g -O0 -fpre-include=/usr/include/finclude/math-vector-fortran.h
REM seed 1244650816 1112088926 -933406281 1598950707 -1483981865 699870297 -483844776 48865515 -1049977861 -1399921815 -2146833966 -1396178397 840163801 658176763 -109678226 -1011321590 287085360 -1745721726 822617044 -1496101281 1727778456 256397727 1971337414 -625380164 -1475438505 -1558541260 -158830019 -162317236 -1799677274 1237078782 1734564815 404173928 1369658480
REM
CELL 1.54180   50.00000   50.00000   50.00000   90.00000   90.00000   90.00000
LATT -1
SFAC C  
C      1  0.4541140000000  0.5905370000000  0.4845710000000 1.0
C      1  0.4535590000000  0.4673350000000  0.5831100000000 1.0
C      1  0.4533620000000  0.4461780000000  0.4325010000000 1.0
C      1  0.5441180000000  0.4059980000000  0.4841670000000 1.0
C      1  0.5464440000000  0.5331700000000  0.5837190000000 1.0
C      1  0.5458640000000  0.5573110000000  0.4313440000000 1.0
C      1  0.5214540000000  0.4822900000000  0.4231170000000 1.0
C      1  0.5201860000000  0.5794150000000  0.5244400000000 1.0
C      1  0.5217970000000  0.4394850000000  0.5574390000000 1.0
C      1  0.4780900000000  0.5182770000000  0.4232920000000 1.0
C      1  0.4775720000000  0.4206320000000  0.5243490000000 1.0
C      1  0.4777920000000  0.5594710000000  0.5531780000000 1.0
C      1  0.5542830000000  0.5744780000000  0.5576110000000 1.0
C      1  0.5542000000000  0.4140050000000  0.5338670000000 1.0
C      1  0.5613070000000  0.5127520000000  0.4092850000000 1.0
C      1  0.4448550000000  0.4251210000000  0.5584720000000 1.0
C      1  0.4439990000000  0.5865370000000  0.5332490000000 1.0
C      1  0.4372620000000  0.4885200000000  0.4089460000000 1.0
C      1  0.5436940000000  0.5964320000000  0.5174830000000 1.0
C      1  0.5469260000000  0.4387360000000  0.5734030000000 1.0
C      1  0.5452990000000  0.4684010000000  0.4117800000000 1.0
C      1  0.4540950000000  0.4035850000000  0.5174310000000 1.0
C      1  0.4531890000000  0.5605650000000  0.5699780000000 1.0
C      1  0.4538080000000  0.5337960000000  0.4135650000000 1.0
C      1  0.4938100000000  0.5963800000000  0.5273770000000 1.0
C      1  0.4951280000000  0.4274490000000  0.5700130000000 1.0
C      1  0.4949590000000  0.4767610000000  0.4060040000000 1.0
C      1  0.5036360000000  0.4036850000000  0.5285860000000 1.0
C      1  0.5030940000000  0.5723600000000  0.5681200000000 1.0
C      1  0.5044090000000  0.5243430000000  0.4067770000000 1.0
C      1  0.5024330000000  0.4740120000000  0.5934060000000 1.0
C      1  0.5016490000000  0.4331810000000  0.4306520000000 1.0
C      1  0.5025850000000  0.5953250000000  0.4757510000000 1.0
C      1  0.4962920000000  0.5266480000000  0.5916900000000 1.0
C      1  0.4969380000000  0.5687820000000  0.4318470000000 1.0
C      1  0.4944770000000  0.4029920000000  0.4740090000000 1.0
C      1  0.5460910000000  0.4842860000000  0.5469610000000 1.0
C      1  0.5458060000000  0.4658890000000  0.4626770000000 1.0
C      1  0.5466240000000  0.5491500000000  0.4949150000000 1.0
C      1  0.4569830000000  0.5151070000000  0.5395220000000 1.0
C      1  0.4527720000000  0.5301820000000  0.4630370000000 1.0
C      1  0.4531690000000  0.4558280000000  0.4936530000000 1.0
C      1  0.5262140000000  0.4241490000000  0.5299220000000 1.0
C      1  0.5267360000000  0.5135110000000  0.4239960000000 1.0
C      1  0.5265990000000  0.5646770000000  0.5507580000000 1.0
C      1  0.4715430000000  0.5760660000000  0.5276030000000 1.0
C      1  0.4725480000000  0.4879390000000  0.4225550000000 1.0
C      1  0.4722810000000  0.4355510000000  0.5512870000000 1.0
C      1  0.5441750000000  0.5301170000000  0.4723020000000 1.0
C      1  0.5406940000000  0.5137840000000  0.5364670000000 1.0
C      1  0.5412960000000  0.4526610000000  0.4881600000000 1.0
C      1  0.4604320000000  0.4795480000000  0.4745060000000 1.0
C      1  0.4634240000000  0.4857930000000  0.5325300000000 1.0
C      1  0.4571630000000  0.5383700000000  0.4925890000000 1.0
C      1  0.3976640000000  0.4978650000000  0.4881950000000 1.0
C      1  0.3967730000000  0.5243320000000  0.4969540000000 1.0
C      1  0.4021300000000  0.4810770000000  0.5113660000000 1.0
C      1  0.5995270000000  0.5023740000000  0.4878860000000 1.0
C      1  0.6023860000000  0.4758950000000  0.4977170000000 1.0
C      1  0.6037000000000  0.5222710000000  0.5080450000000 1.0
C      1  0.4161930000000  0.4935680000000  0.5674110000000 1.0
C      1  0.4162940000000  0.4413170000000  0.4616720000000 1.0
C      1  0.4151030000000  0.5687460000000  0.4671800000000 1.0
C      1  0.5840630000000  0.5067090000000  0.5670680000000 1.0
C      1  0.5833450000000  0.5600120000000  0.4612760000000 1.0
C      1  0.5840940000000  0.4304090000000  0.4672660000000 1.0
C      1  0.4349140000000  0.5102750000000  0.5077980000000 1.0
C      1  0.4408520000000  0.4767550000000  0.5146570000000 1.0
C      1  0.4396400000000  0.5023090000000  0.4755770000000 1.0
C      1  0.5649340000000  0.4879720000000  0.5103810000000 1.0
C      1  0.5624330000000  0.5243200000000  0.5147710000000 1.0
C      1  0.5573970000000  0.4927360000000  0.4785000000000 1.0
C      1  0.4055500000000  0.4936610000000  0.4584570000000 1.0
C      1  0.4085930000000  0.5451170000000  0.5114130000000 1.0
C      1  0.4045970000000  0.4590280000000  0.5302980000000 1.0
C      1  0.5929240000000  0.5064240000000  0.4587320000000 1.0
C      1  0.5918400000000  0.4540020000000  0.5124410000000 1.0
C      1  0.5965940000000  0.5415460000000  0.5288450000000 1.0
C      1  0.5296690000000  0.5078060000000  0.4847270000000 1.0
C      1  0.5209350000000  0.5119370000000  0.5144040000000 1.0
C      1  0.5350100000000  0.4706380000000  0.5080610000000 1.0
C      1  0.4840400000000  0.4946390000000  0.4876480000000 1.0
C      1  0.4874420000000  0.4837590000000  0.5152670000000 1.0
C      1  0.4812650000000  0.5231270000000  0.4962920000000 1.0
C      1  0.5846760000000  0.4296760000000  0.4970250000000 1.0
C      1  0.5819260000000  0.5327830000000  0.4495420000000 1.0
C      1  0.5816860000000  0.5323500000000  0.5530240000000 1.0
C      1  0.4143190000000  0.5695520000000  0.4965940000000 1.0
C      1  0.4135470000000  0.4667090000000  0.4470160000000 1.0
C      1  0.4168660000000  0.4666050000000  0.5557730000000 1.0
C      1  0.4882620000000  0.4309350000000  0.5972160000000 1.0
C      1  0.4869960000000  0.4520900000000  0.3933020000000 1.0
C      1  0.4879680000000  0.6186360000000  0.5108060000000 1.0
C      1  0.5090360000000  0.5691140000000  0.5957090000000 1.0
C      1  0.5111910000000  0.5495770000000  0.3944630000000 1.0
C      1  0.5092040000000  0.3811400000000  0.5122000000000 1.0
C      1  0.5287840000000  0.5307760000000  0.5578590000000 1.0
C      1  0.5265180000000  0.4295790000000  0.4937450000000 1.0
C      1  0.5289670000000  0.5374000000000  0.4477430000000 1.0
C      1  0.4708850000000  0.4691930000000  0.5571010000000 1.0
C      1  0.4698540000000  0.5663180000000  0.4958340000000 1.0
C      1  0.4706330000000  0.4672120000000  0.4475590000000 1.0
C      1  0.4992030000000  0.4319420000000  0.4802390000000 1.0
C      1  0.5009090000000  0.5495040000000  0.4544090000000 1.0
C      1  0.5017080000000  0.5169070000000  0.5644120000000 1.0
C      1  0.4980090000000  0.5665110000000  0.4818370000000 1.0
C      1  0.4973840000000  0.4512140000000  0.4536650000000 1.0
C      1  0.4977070000000  0.4826250000000  0.5656690000000 1.0
C      1  0.4303030000000  0.4641480000000  0.4227950000000 1.0
C      1  0.4321540000000  0.5912730000000  0.5063870000000 1.0
C      1  0.4319640000000  0.4476480000000  0.5727830000000 1.0
C      1  0.5684760000000  0.5367370000000  0.4235320000000 1.0
C      1  0.5660100000000  0.4084630000000  0.5069770000000 1.0
C      1  0.5675720000000  0.5515520000000  0.5706250000000 1.0
C      1  0.4769820000000  0.4347170000000  0.4138300000000 1.0
C      1  0.4787080000000  0.6108110000000  0.4847900000000 1.0
C      1  0.4788170000000  0.4576720000000  0.6017040000000 1.0
C      1  0.5210630000000  0.5680250000000  0.4140840000000 1.0
C      1  0.5173970000000  0.3869500000000  0.4852050000000 1.0
C      1  0.5194770000000  0.5429850000000  0.6011180000000 1.0
C      1  0.4304670000000  0.5153110000000  0.4181070000000 1.0
C      1  0.4315240000000  0.5648760000000  0.5505600000000 1.0
C      1  0.4322670000000  0.4168880000000  0.5319600000000 1.0
C      1  0.5684100000000  0.4857200000000  0.4182290000000 1.0
C      1  0.5673840000000  0.4346010000000  0.5520770000000 1.0
C      1  0.5663150000000  0.5834270000000  0.5313770000000 1.0
C      1  0.5482820000000  0.5818920000000  0.4769000000000 1.0
C      1  0.5484730000000  0.4826610000000  0.5785170000000 1.0
C      1  0.5496430000000  0.4362740000000  0.4403450000000 1.0
C      1  0.4522970000000  0.4212130000000  0.4775770000000 1.0
C      1  0.4523090000000  0.5175070000000  0.5761110000000 1.0
C      1  0.4496610000000  0.5617890000000  0.4404530000000 1.0
C      1  0.5009360000000  0.6000510000000  0.5727110000000 1.0
C      1  0.5024740000000  0.3864550000000  0.5507920000000 1.0
C      1  0.5041770000000  0.5139040000000  0.3802970000000 1.0
C      1  0.4964200000000  0.3997810000000  0.5743470000000 1.0
C      1  0.4938290000000  0.6135290000000  0.5495980000000 1.0
C      1  0.4958900000000  0.4875550000000  0.3797200000000 1.0
C      1  0.5602800000000  0.5760360000000  0.4509120000000 1.0
C      1  0.5622760000000  0.5066480000000  0.5882120000000 1.0
C      1  0.5595940000000  0.4148690000000  0.4581120000000 1.0
C      1  0.4401960000000  0.4272930000000  0.4522100000000 1.0
C      1  0.4389140000000  0.4940850000000  0.5865800000000 1.0
C      1  0.4396580000000  0.5830370000000  0.4585230000000 1.0
C      1  0.4819160000000  0.5250760000000  0.4522170000000 1.0
C      1  0.4839830000000  0.5309640000000  0.5433350000000 1.0
C      1  0.4814300000000  0.4421880000000  0.5031940000000 1.0
C      1  0.5177930000000  0.4739140000000  0.4522650000000 1.0
C      1  0.5181620000000  0.4680270000000  0.5489690000000 1.0
C      1  0.5167210000000  0.5568740000000  0.5043740000000 1.0
C      1  0.4675190000000  0.3974070000000  0.4823240000000 1.0
C      1  0.4703900000000  0.5677390000000  0.4207160000000 1.0
C      1  0.4685740000000  0.5345320000000  0.5932940000000 1.0
C      1  0.5295470000000  0.6031550000000  0.4826850000000 1.0
C      1  0.5287860000000  0.4348750000000  0.4200940000000 1.0
C      1  0.5303940000000  0.4659330000000  0.5953800000000 1.0
C      1  0.4151540000000  0.5182620000000  0.4431280000000 1.0
C      1  0.4213130000000  0.5405800000000  0.5368920000000 1.0
C      1  0.4192570000000  0.4383750000000  0.5164850000000 1.0
C      1  0.5825240000000  0.4821280000000  0.4442740000000 1.0
C      1  0.5803650000000  0.4583280000000  0.5389490000000 1.0
C      1  0.5822960000000  0.5635800000000  0.5159910000000 1.0
C      1  0.5873030000000  0.5654300000000  0.4886040000000 1.0
C      1  0.5879590000000  0.4815760000000  0.5537100000000 1.0
C      1  0.5872830000000  0.4556520000000  0.4538370000000 1.0
C      1  0.4131970000000  0.4373450000000  0.4892770000000 1.0
C      1  0.4152730000000  0.5172920000000  0.5517380000000 1.0
C      1  0.4117390000000  0.5437740000000  0.4543390000000 1.0
C      1  0.5072200000000  0.4978270000000  0.4679080000000 1.0
C      1  0.5084560000000  0.4640470000000  0.5209160000000 1.0
C      1  0.5004060000000  0.5322140000000  0.5160370000000 1.0
END
