TITL C-3578201-9217-17 -2.51369828781279e-06 125000 -928.104454178144 0 0 146 (C1) n - 1
REM
REM in /home/bkarasulu/work/CARBON/AIRSS/Generating-Clusters/EDIP-Nigel-Params/with-SteepDescent/Higher-Symm/SD-CG/HFTN-CG
REM
REM
REM
REM
REM
REM ./C.cell (12c818d87b63d06a65506943cc24bca4)
REM
REM compiler GCC version 9.2.1 20190827 (Red Hat 9.2.1-1)
REM options -cpp -mtune=generic -march=x86-64 -g -O0 -fpre-include=/usr/include/finclude/math-vector-fortran.h
REM seed -1872753784 -902739313 1486046672 -1525424816 282879296 2005083615 194031654 1007914526 434216301 -1113623702 216284894 -310132136 1802474085 920079598 -823470663 880416526 409711663 1089878756 606213502 622069032 497397324 -1943000259 -1281056210 773367625 -2127273421 840842579 1008001650 -962515577 -1278836009 -1349008061 -675846417 -1022188796 1684770968
REM
CELL 1.54180   50.00000   50.00000   50.00000   90.00000   90.00000   90.00000
LATT -1
SFAC C  
C      1  0.5486280000000  0.4576520000000  0.4502550000000 1.0
C      1  0.5244610000000  0.4371330000000  0.4501890000000 1.0
C      1  0.4973620000000  0.4518000000000  0.4548620000000 1.0
C      1  0.4634970000000  0.4869430000000  0.4553350000000 1.0
C      1  0.4599560000000  0.5129310000000  0.4456080000000 1.0
C      1  0.4777100000000  0.5339730000000  0.4531260000000 1.0
C      1  0.5061720000000  0.5271560000000  0.4410180000000 1.0
C      1  0.5287530000000  0.5374600000000  0.4564520000000 1.0
C      1  0.5400390000000  0.4896310000000  0.4521680000000 1.0
C      1  0.4694300000000  0.4857270000000  0.6226020000000 1.0
C      1  0.4584520000000  0.5099500000000  0.6137840000000 1.0
C      1  0.4767690000000  0.5336730000000  0.6121700000000 1.0
C      1  0.5012050000000  0.5307510000000  0.6256300000000 1.0
C      1  0.5271880000000  0.5255500000000  0.6168890000000 1.0
C      1  0.5365300000000  0.5004150000000  0.6238510000000 1.0
C      1  0.5308610000000  0.4769140000000  0.6104030000000 1.0
C      1  0.5089040000000  0.4622370000000  0.6188280000000 1.0
C      1  0.4822500000000  0.4636340000000  0.6113290000000 1.0
C      1  0.5316330000000  0.4798120000000  0.5808180000000 1.0
C      1  0.5072150000000  0.4603040000000  0.5677940000000 1.0
C      1  0.4785690000000  0.4613070000000  0.5812530000000 1.0
C      1  0.4597690000000  0.4827660000000  0.5721490000000 1.0
C      1  0.4545000000000  0.5091450000000  0.5837440000000 1.0
C      1  0.4812580000000  0.5370710000000  0.5813990000000 1.0
C      1  0.5080390000000  0.5475130000000  0.5786130000000 1.0
C      1  0.5322540000000  0.5331240000000  0.5876200000000 1.0
C      1  0.5386760000000  0.5081620000000  0.5719160000000 1.0
C      1  0.5786820000000  0.4806900000000  0.5616980000000 1.0
C      1  0.5472050000000  0.4362700000000  0.5664450000000 1.0
C      1  0.4871260000000  0.4170320000000  0.5612520000000 1.0
C      1  0.4402690000000  0.4436080000000  0.5535420000000 1.0
C      1  0.4144630000000  0.4976700000000  0.5594270000000 1.0
C      1  0.4361910000000  0.5484150000000  0.5596210000000 1.0
C      1  0.4816480000000  0.5833530000000  0.5581400000000 1.0
C      1  0.5370540000000  0.5808850000000  0.5607820000000 1.0
C      1  0.5770010000000  0.5398850000000  0.5568000000000 1.0
C      1  0.4241290000000  0.4947950000000  0.4860610000000 1.0
C      1  0.4421730000000  0.5545960000000  0.4882780000000 1.0
C      1  0.4999500000000  0.5513820000000  0.4906200000000 1.0
C      1  0.5405740000000  0.5712950000000  0.4884310000000 1.0
C      1  0.5772630000000  0.5342730000000  0.4837790000000 1.0
C      1  0.5681800000000  0.4773000000000  0.4893050000000 1.0
C      1  0.5365720000000  0.4332330000000  0.4954340000000 1.0
C      1  0.4849480000000  0.4216000000000  0.4891730000000 1.0
C      1  0.4405880000000  0.4465200000000  0.4834160000000 1.0
C      1  0.4272490000000  0.4935980000000  0.4232450000000 1.0
C      1  0.4380980000000  0.5454340000000  0.4253560000000 1.0
C      1  0.4783770000000  0.5727000000000  0.4244880000000 1.0
C      1  0.5245780000000  0.5679260000000  0.4247380000000 1.0
C      1  0.5583940000000  0.5326830000000  0.4239870000000 1.0
C      1  0.5649640000000  0.4854040000000  0.4153400000000 1.0
C      1  0.5396230000000  0.4449470000000  0.4057990000000 1.0
C      1  0.4942920000000  0.4297190000000  0.4145330000000 1.0
C      1  0.4546070000000  0.4523920000000  0.4257030000000 1.0
C      1  0.5251740000000  0.4285390000000  0.5236050000000 1.0
C      1  0.4707860000000  0.4229670000000  0.5169140000000 1.0
C      1  0.4315780000000  0.4568880000000  0.5119450000000 1.0
C      1  0.4260320000000  0.5001580000000  0.5160310000000 1.0
C      1  0.4507340000000  0.5622040000000  0.5160080000000 1.0
C      1  0.5032850000000  0.5551290000000  0.5208320000000 1.0
C      1  0.5516370000000  0.5694540000000  0.5168140000000 1.0
C      1  0.5808420000000  0.5239940000000  0.5117530000000 1.0
C      1  0.5670820000000  0.4708630000000  0.5198290000000 1.0
C      1  0.4937490000000  0.4564630000000  0.3999410000000 1.0
C      1  0.4677310000000  0.4708760000000  0.4062540000000 1.0
C      1  0.4514580000000  0.4975200000000  0.4048510000000 1.0
C      1  0.4578920000000  0.5320780000000  0.4056710000000 1.0
C      1  0.4829650000000  0.5500680000000  0.4041870000000 1.0
C      1  0.5116900000000  0.5411040000000  0.4136770000000 1.0
C      1  0.5371410000000  0.5240270000000  0.4041310000000 1.0
C      1  0.5389830000000  0.4934790000000  0.4026970000000 1.0
C      1  0.5221290000000  0.4677440000000  0.3975600000000 1.0
C      1  0.5228100000000  0.4258460000000  0.4222360000000 1.0
C      1  0.4752180000000  0.4343610000000  0.4401810000000 1.0
C      1  0.4396210000000  0.4717040000000  0.4419340000000 1.0
C      1  0.4306610000000  0.5193800000000  0.4408890000000 1.0
C      1  0.4599720000000  0.5587840000000  0.4430470000000 1.0
C      1  0.5021440000000  0.5801470000000  0.4400950000000 1.0
C      1  0.5468190000000  0.5552310000000  0.4417480000000 1.0
C      1  0.5658040000000  0.5069680000000  0.4392060000000 1.0
C      1  0.5613860000000  0.4567030000000  0.4230410000000 1.0
C      1  0.4046070000000  0.4720280000000  0.4810480000000 1.0
C      1  0.4164590000000  0.5415020000000  0.4875790000000 1.0
C      1  0.4688550000000  0.5908930000000  0.4823580000000 1.0
C      1  0.5175370000000  0.5924560000000  0.4901620000000 1.0
C      1  0.5837740000000  0.5626430000000  0.4828180000000 1.0
C      1  0.5924630000000  0.4927160000000  0.4824640000000 1.0
C      1  0.5652700000000  0.4328060000000  0.4941270000000 1.0
C      1  0.5063760000000  0.4012160000000  0.4904630000000 1.0
C      1  0.4409930000000  0.4168580000000  0.4824400000000 1.0
C      1  0.5407050000000  0.4907490000000  0.4825480000000 1.0
C      1  0.5193460000000  0.4735570000000  0.4953300000000 1.0
C      1  0.4976490000000  0.4521870000000  0.4848660000000 1.0
C      1  0.4723990000000  0.4638220000000  0.4973520000000 1.0
C      1  0.4585890000000  0.4886730000000  0.4845130000000 1.0
C      1  0.4741440000000  0.5100920000000  0.4971280000000 1.0
C      1  0.4801320000000  0.5329510000000  0.4819320000000 1.0
C      1  0.5274890000000  0.5431090000000  0.4835580000000 1.0
C      1  0.5377110000000  0.5176210000000  0.4952630000000 1.0
C      1  0.4262450000000  0.5559740000000  0.5328920000000 1.0
C      1  0.4838990000000  0.5977030000000  0.5314460000000 1.0
C      1  0.5373040000000  0.5914560000000  0.5335350000000 1.0
C      1  0.5907950000000  0.5454980000000  0.5301920000000 1.0
C      1  0.5911650000000  0.4704520000000  0.5374190000000 1.0
C      1  0.5508050000000  0.4264200000000  0.5392940000000 1.0
C      1  0.4856750000000  0.4047910000000  0.5351770000000 1.0
C      1  0.4264610000000  0.4333220000000  0.5283190000000 1.0
C      1  0.4023140000000  0.5030510000000  0.5337480000000 1.0
C      1  0.5454500000000  0.4893620000000  0.5338380000000 1.0
C      1  0.5187570000000  0.4787950000000  0.5235460000000 1.0
C      1  0.5051990000000  0.4559840000000  0.5364510000000 1.0
C      1  0.4738600000000  0.4546960000000  0.5276300000000 1.0
C      1  0.4528970000000  0.4877870000000  0.5289440000000 1.0
C      1  0.4712740000000  0.5138560000000  0.5254940000000 1.0
C      1  0.4743190000000  0.5446390000000  0.5306680000000 1.0
C      1  0.5380490000000  0.5443340000000  0.5314320000000 1.0
C      1  0.5510690000000  0.5183130000000  0.5203920000000 1.0
C      1  0.5817210000000  0.5691680000000  0.5135370000000 1.0
C      1  0.6004190000000  0.5023480000000  0.5081670000000 1.0
C      1  0.5723330000000  0.4395710000000  0.5228400000000 1.0
C      1  0.5112150000000  0.4018830000000  0.5206900000000 1.0
C      1  0.4429100000000  0.4132210000000  0.5127020000000 1.0
C      1  0.4034970000000  0.4578360000000  0.5070550000000 1.0
C      1  0.4106640000000  0.5362890000000  0.5168420000000 1.0
C      1  0.4614220000000  0.5906760000000  0.5123840000000 1.0
C      1  0.5096360000000  0.5866870000000  0.5197410000000 1.0
C      1  0.5186930000000  0.4332920000000  0.5739000000000 1.0
C      1  0.4663640000000  0.4367240000000  0.5676810000000 1.0
C      1  0.4349070000000  0.4731130000000  0.5602160000000 1.0
C      1  0.4297850000000  0.5209450000000  0.5714690000000 1.0
C      1  0.4666500000000  0.5545140000000  0.5597220000000 1.0
C      1  0.5088270000000  0.5746390000000  0.5690330000000 1.0
C      1  0.5482030000000  0.5513000000000  0.5600890000000 1.0
C      1  0.5667770000000  0.5093400000000  0.5609100000000 1.0
C      1  0.5544990000000  0.4648670000000  0.5693760000000 1.0
C      1  0.5613930000000  0.5741630000000  0.4656880000000 1.0
C      1  0.5856130000000  0.5142160000000  0.4630450000000 1.0
C      1  0.5696420000000  0.4527210000000  0.4729030000000 1.0
C      1  0.5272550000000  0.4161050000000  0.4740310000000 1.0
C      1  0.4662650000000  0.4149610000000  0.4659890000000 1.0
C      1  0.4223920000000  0.4573700000000  0.4623100000000 1.0
C      1  0.4162390000000  0.5185280000000  0.4692120000000 1.0
C      1  0.4495620000000  0.5736970000000  0.4676510000000 1.0
C      1  0.4961090000000  0.5794650000000  0.4747530000000 1.0
C      1  0.5124240000000  0.4980190000000  0.4429760000000 1.0
C      1  0.4915400000000  0.4794570000000  0.4489140000000 1.0
END
