TITL C-3578198-8939-170 -7.96623757699553e-07 125000 -1259.29345079866 0 0 199 (C1) n - 1
REM
REM in /home/bkarasulu/work/CARBON/AIRSS/Generating-Clusters/EDIP-Nigel-Params/with-SteepDescent/Higher-Symm/SD-CG/HFTN-CG
REM
REM
REM
REM
REM
REM ./C.cell (12c818d87b63d06a65506943cc24bca4)
REM
REM compiler GCC version 9.2.1 20190827 (Red Hat 9.2.1-1)
REM options -cpp -mtune=generic -march=x86-64 -g -O0 -fpre-include=/usr/include/finclude/math-vector-fortran.h
REM seed -1418693537 1833805783 42986636 -1646830794 414437831 -483447539 -1910003107 -1987093743 -594149543 2094993052 294051375 -1125307397 -973316488 -1866886433 -1686615351 -590274928 1449127408 -1692254408 1434244637 -1164816246 -1857412803 1292809062 327065311 780241921 -208706070 330469305 -770611286 356231927 -510123585 237539767 2030823598 411432150 -1639980140
REM
CELL 1.54180   50.00000   50.00000   50.00000   90.00000   90.00000   90.00000
LATT -1
SFAC C  
C      1  0.6019490000000  0.4261160000000  0.5042180000000 1.0
C      1  0.5943130000000  0.4984570000000  0.4366160000000 1.0
C      1  0.5855830000000  0.5578020000000  0.4764960000000 1.0
C      1  0.5858340000000  0.5447360000000  0.5462660000000 1.0
C      1  0.6087720000000  0.4848430000000  0.5763200000000 1.0
C      1  0.3920140000000  0.4787890000000  0.4842520000000 1.0
C      1  0.4113800000000  0.5008250000000  0.4858230000000 1.0
C      1  0.3985070000000  0.5261460000000  0.4953500000000 1.0
C      1  0.3946300000000  0.5204020000000  0.5242790000000 1.0
C      1  0.3875710000000  0.4915190000000  0.5301500000000 1.0
C      1  0.4560600000000  0.5028770000000  0.5513480000000 1.0
C      1  0.4593400000000  0.4461090000000  0.5152750000000 1.0
C      1  0.4519990000000  0.4635860000000  0.4632640000000 1.0
C      1  0.4456380000000  0.5225530000000  0.4623670000000 1.0
C      1  0.4559300000000  0.5509630000000  0.5054500000000 1.0
C      1  0.4746870000000  0.4631930000000  0.6080560000000 1.0
C      1  0.4674280000000  0.3849380000000  0.5007880000000 1.0
C      1  0.4709180000000  0.4614360000000  0.3834520000000 1.0
C      1  0.4761630000000  0.5917080000000  0.4267640000000 1.0
C      1  0.4762630000000  0.5964760000000  0.5684690000000 1.0
C      1  0.4872630000000  0.4363750000000  0.4247490000000 1.0
C      1  0.4920600000000  0.5483310000000  0.4057620000000 1.0
C      1  0.4885510000000  0.5994390000000  0.5185030000000 1.0
C      1  0.4902750000000  0.5069850000000  0.5946050000000 1.0
C      1  0.4913120000000  0.4031000000000  0.5416180000000 1.0
C      1  0.4212830000000  0.5449400000000  0.5856500000000 1.0
C      1  0.4155820000000  0.4324600000000  0.5623600000000 1.0
C      1  0.4132770000000  0.4198710000000  0.4436810000000 1.0
C      1  0.4173480000000  0.5202450000000  0.4096000000000 1.0
C      1  0.4182740000000  0.5987570000000  0.4933750000000 1.0
C      1  0.5187530000000  0.4597510000000  0.6083870000000 1.0
C      1  0.5108220000000  0.3905840000000  0.4929210000000 1.0
C      1  0.5157430000000  0.4720900000000  0.3944610000000 1.0
C      1  0.5199770000000  0.5907410000000  0.4334430000000 1.0
C      1  0.5195500000000  0.5878970000000  0.5654800000000 1.0
C      1  0.5708880000000  0.4287600000000  0.4658360000000 1.0
C      1  0.5780910000000  0.5137940000000  0.4151530000000 1.0
C      1  0.5735690000000  0.5859790000000  0.4821780000000 1.0
C      1  0.5745070000000  0.5468730000000  0.5751360000000 1.0
C      1  0.5787370000000  0.4486060000000  0.5687300000000 1.0
C      1  0.4575770000000  0.5616310000000  0.5484590000000 1.0
C      1  0.4444360000000  0.4632470000000  0.5757050000000 1.0
C      1  0.4386430000000  0.4167610000000  0.4893240000000 1.0
C      1  0.4516410000000  0.4801000000000  0.4187690000000 1.0
C      1  0.4518340000000  0.5679510000000  0.4551110000000 1.0
C      1  0.4781040000000  0.4347280000000  0.5986930000000 1.0
C      1  0.4720730000000  0.3881770000000  0.4710590000000 1.0
C      1  0.4776180000000  0.4894520000000  0.3801780000000 1.0
C      1  0.4814320000000  0.6064810000000  0.4533140000000 1.0
C      1  0.4835480000000  0.5723750000000  0.5868750000000 1.0
C      1  0.6183930000000  0.4848260000000  0.5188700000000 1.0
C      1  0.6159230000000  0.4840080000000  0.4896270000000 1.0
C      1  0.6159850000000  0.5112830000000  0.4799910000000 1.0
C      1  0.6186830000000  0.5294000000000  0.5020760000000 1.0
C      1  0.6190330000000  0.5136070000000  0.5267220000000 1.0
C      1  0.5128140000000  0.5707800000000  0.5875870000000 1.0
C      1  0.5071090000000  0.4334110000000  0.6024650000000 1.0
C      1  0.5000150000000  0.3882110000000  0.4668340000000 1.0
C      1  0.5058590000000  0.4928120000000  0.3776520000000 1.0
C      1  0.5112740000000  0.6071270000000  0.4552940000000 1.0
C      1  0.5463140000000  0.4659800000000  0.6004620000000 1.0
C      1  0.5358150000000  0.4044950000000  0.4947570000000 1.0
C      1  0.5438090000000  0.4737750000000  0.4051360000000 1.0
C      1  0.5477060000000  0.5835870000000  0.4381760000000 1.0
C      1  0.5458590000000  0.5807430000000  0.5562870000000 1.0
C      1  0.5317380000000  0.4283150000000  0.5557980000000 1.0
C      1  0.5209670000000  0.4309840000000  0.4549700000000 1.0
C      1  0.5261670000000  0.5208780000000  0.4206470000000 1.0
C      1  0.5231980000000  0.5818830000000  0.4900620000000 1.0
C      1  0.5272430000000  0.5272060000000  0.5704060000000 1.0
C      1  0.5458460000000  0.5254350000000  0.4625060000000 1.0
C      1  0.5490590000000  0.5399860000000  0.5092290000000 1.0
C      1  0.5631730000000  0.4987380000000  0.5469810000000 1.0
C      1  0.5572720000000  0.4502960000000  0.5143620000000 1.0
C      1  0.5458990000000  0.4744600000000  0.4626740000000 1.0
C      1  0.5193280000000  0.4007370000000  0.5524420000000 1.0
C      1  0.5131370000000  0.4199540000000  0.4281370000000 1.0
C      1  0.5205440000000  0.5394570000000  0.3974500000000 1.0
C      1  0.5145280000000  0.6066400000000  0.5048820000000 1.0
C      1  0.5158220000000  0.5221570000000  0.5977680000000 1.0
C      1  0.4136020000000  0.5722970000000  0.5303720000000 1.0
C      1  0.4134210000000  0.4998710000000  0.5787940000000 1.0
C      1  0.4052010000000  0.4319490000000  0.5175910000000 1.0
C      1  0.4096600000000  0.4646920000000  0.4321310000000 1.0
C      1  0.4083940000000  0.5477890000000  0.4437020000000 1.0
C      1  0.4946970000000  0.5254950000000  0.4609400000000 1.0
C      1  0.4977360000000  0.5331440000000  0.5229570000000 1.0
C      1  0.5108210000000  0.4890870000000  0.5422820000000 1.0
C      1  0.5069750000000  0.4504010000000  0.5171730000000 1.0
C      1  0.4979190000000  0.4724610000000  0.4694650000000 1.0
C      1  0.4426950000000  0.4035390000000  0.5384900000000 1.0
C      1  0.4519990000000  0.4264420000000  0.4157910000000 1.0
C      1  0.4537130000000  0.5535590000000  0.4040060000000 1.0
C      1  0.4587780000000  0.6086610000000  0.5216440000000 1.0
C      1  0.4521920000000  0.5080450000000  0.6023360000000 1.0
C      1  0.5347950000000  0.5109990000000  0.6151420000000 1.0
C      1  0.5360990000000  0.3836040000000  0.5375990000000 1.0
C      1  0.5355280000000  0.4252370000000  0.4113270000000 1.0
C      1  0.5412130000000  0.5586970000000  0.3968580000000 1.0
C      1  0.5354100000000  0.6137670000000  0.5221210000000 1.0
C      1  0.4708270000000  0.4820790000000  0.4796910000000 1.0
C      1  0.4705370000000  0.5137370000000  0.4765940000000 1.0
C      1  0.4705820000000  0.5249600000000  0.5063110000000 1.0
C      1  0.4560580000000  0.5017610000000  0.5214800000000 1.0
C      1  0.4690790000000  0.4765200000000  0.5099730000000 1.0
C      1  0.5003750000000  0.5110750000000  0.4350070000000 1.0
C      1  0.4985650000000  0.5663870000000  0.4822310000000 1.0
C      1  0.5036640000000  0.5182020000000  0.5495350000000 1.0
C      1  0.5061760000000  0.4447230000000  0.5480070000000 1.0
C      1  0.4945480000000  0.4414150000000  0.4714760000000 1.0
C      1  0.4417940000000  0.5266630000000  0.3976310000000 1.0
C      1  0.4446450000000  0.6073040000000  0.4939010000000 1.0
C      1  0.4463990000000  0.5366840000000  0.5945140000000 1.0
C      1  0.4385760000000  0.4165450000000  0.5634130000000 1.0
C      1  0.4389210000000  0.4112280000000  0.4379650000000 1.0
C      1  0.5885130000000  0.4752590000000  0.5577390000000 1.0
C      1  0.5822520000000  0.4429050000000  0.4909980000000 1.0
C      1  0.5575130000000  0.4987000000000  0.4502960000000 1.0
C      1  0.5633230000000  0.5388030000000  0.4828880000000 1.0
C      1  0.5659570000000  0.5270840000000  0.5323630000000 1.0
C      1  0.4430200000000  0.3971710000000  0.5105270000000 1.0
C      1  0.4522100000000  0.4544790000000  0.4041350000000 1.0
C      1  0.4515220000000  0.5746190000000  0.4251720000000 1.0
C      1  0.4526130000000  0.5935070000000  0.5494160000000 1.0
C      1  0.4505340000000  0.4777370000000  0.6006300000000 1.0
C      1  0.5965230000000  0.4662160000000  0.4776150000000 1.0
C      1  0.6080910000000  0.5188010000000  0.4532520000000 1.0
C      1  0.6057250000000  0.5554350000000  0.4995260000000 1.0
C      1  0.6086130000000  0.5262530000000  0.5513590000000 1.0
C      1  0.6018060000000  0.4661920000000  0.5332000000000 1.0
C      1  0.5440220000000  0.4159040000000  0.4688390000000 1.0
C      1  0.5500110000000  0.5007190000000  0.4190830000000 1.0
C      1  0.5454670000000  0.5920840000000  0.4687320000000 1.0
C      1  0.5455280000000  0.5543500000000  0.5739850000000 1.0
C      1  0.5529430000000  0.4462570000000  0.5804520000000 1.0
C      1  0.5500860000000  0.4008260000000  0.5202250000000 1.0
C      1  0.5493360000000  0.4490120000000  0.4218570000000 1.0
C      1  0.5534040000000  0.5579890000000  0.4235540000000 1.0
C      1  0.5493710000000  0.5885670000000  0.5274060000000 1.0
C      1  0.5532360000000  0.4970020000000  0.5977360000000 1.0
C      1  0.4812110000000  0.5218210000000  0.4172900000000 1.0
C      1  0.4754420000000  0.5754690000000  0.4969930000000 1.0
C      1  0.4786900000000  0.5181180000000  0.5669910000000 1.0
C      1  0.4778240000000  0.4312800000000  0.5461070000000 1.0
C      1  0.4696750000000  0.4386170000000  0.4549330000000 1.0
C      1  0.4549420000000  0.4125060000000  0.4636650000000 1.0
C      1  0.4624470000000  0.5042400000000  0.4025600000000 1.0
C      1  0.4622000000000  0.5914270000000  0.4738570000000 1.0
C      1  0.4672130000000  0.5475760000000  0.5757550000000 1.0
C      1  0.4603720000000  0.4358950000000  0.5719700000000 1.0
C      1  0.4864150000000  0.5588790000000  0.5366120000000 1.0
C      1  0.5026290000000  0.4702500000000  0.5635940000000 1.0
C      1  0.4863930000000  0.4328700000000  0.5021480000000 1.0
C      1  0.4978190000000  0.4820850000000  0.4397610000000 1.0
C      1  0.4884300000000  0.5554630000000  0.4566180000000 1.0
C      1  0.4262310000000  0.4409710000000  0.5001740000000 1.0
C      1  0.4340420000000  0.4777740000000  0.4427470000000 1.0
C      1  0.4297240000000  0.5486180000000  0.4634980000000 1.0
C      1  0.4350490000000  0.5517390000000  0.5296210000000 1.0
C      1  0.4317840000000  0.4859630000000  0.5608530000000 1.0
C      1  0.5330470000000  0.4561370000000  0.4444950000000 1.0
C      1  0.5366040000000  0.5405060000000  0.4390630000000 1.0
C      1  0.5364690000000  0.5672700000000  0.5123650000000 1.0
C      1  0.5456380000000  0.5042190000000  0.5699580000000 1.0
C      1  0.5557040000000  0.4267560000000  0.5342920000000 1.0
C      1  0.5197630000000  0.5228720000000  0.4760390000000 1.0
C      1  0.5247580000000  0.5226670000000  0.5048000000000 1.0
C      1  0.5432630000000  0.4820750000000  0.5314180000000 1.0
C      1  0.5314240000000  0.4516780000000  0.5007430000000 1.0
C      1  0.5277390000000  0.4764330000000  0.4851730000000 1.0
C      1  0.4106500000000  0.4562100000000  0.4772750000000 1.0
C      1  0.4242850000000  0.5042920000000  0.4557350000000 1.0
C      1  0.4148900000000  0.5500880000000  0.4899510000000 1.0
C      1  0.4215900000000  0.5248630000000  0.5382370000000 1.0
C      1  0.4141110000000  0.4772290000000  0.5365920000000 1.0
C      1  0.5974050000000  0.5460620000000  0.4489200000000 1.0
C      1  0.5949150000000  0.5674130000000  0.5244560000000 1.0
C      1  0.6042410000000  0.5120680000000  0.5766470000000 1.0
C      1  0.6028150000000  0.4373740000000  0.5299580000000 1.0
C      1  0.5906190000000  0.4697430000000  0.4493120000000 1.0
C      1  0.4083340000000  0.5209470000000  0.4358730000000 1.0
C      1  0.4078750000000  0.5751040000000  0.5033480000000 1.0
C      1  0.4128070000000  0.5255440000000  0.5676690000000 1.0
C      1  0.4080550000000  0.4474730000000  0.5400200000000 1.0
C      1  0.4046070000000  0.4452220000000  0.4508230000000 1.0
C      1  0.5806560000000  0.5221070000000  0.5899920000000 1.0
C      1  0.5822910000000  0.4275660000000  0.5484980000000 1.0
C      1  0.5756600000000  0.4453200000000  0.4399230000000 1.0
C      1  0.5806040000000  0.5435280000000  0.4237070000000 1.0
C      1  0.5760040000000  0.5879180000000  0.5133140000000 1.0
C      1  0.4963890000000  0.5863060000000  0.5453560000000 1.0
C      1  0.4979540000000  0.4770390000000  0.5931960000000 1.0
C      1  0.4899260000000  0.4020700000000  0.5108570000000 1.0
C      1  0.4929280000000  0.4653010000000  0.4146850000000 1.0
C      1  0.4973560000000  0.5696250000000  0.4295550000000 1.0
C      1  0.4970280000000  0.4780840000000  0.5177240000000 1.0
C      1  0.5363210000000  0.4954910000000  0.5064040000000 1.0
C      1  0.4282980000000  0.4942200000000  0.5130070000000 1.0
C      1  0.3764820000000  0.4781650000000  0.5078520000000 1.0
END
