TITL C-3578208-4450-1 3.47261401824098e-07 125000 -824.429016294717 0 0 133 (C1) n - 1
REM
REM in /home/bkarasulu/work/CARBON/AIRSS/Generating-Clusters/EDIP-Nigel-Params/with-SteepDescent/Higher-Symm/SD-CG/HFTN-CG
REM
REM
REM
REM
REM
REM ./C.cell (12c818d87b63d06a65506943cc24bca4)
REM
REM compiler GCC version 9.2.1 20190827 (Red Hat 9.2.1-1)
REM options -cpp -mtune=generic -march=x86-64 -g -O0 -fpre-include=/usr/include/finclude/math-vector-fortran.h
REM seed 1745178310 -1231827455 -1673714712 1544040597 205849834 -1249803959 -1547300516 1998110491 -677742260 -1948740689 1053746441 1634102467 625764934 -977992414 1910455555 2556358 -1853150651 -1855198103 1311739823 1698644965 342828616 513230721 -122596293 -822425800 -676749603 969196098 -2056322452 -2097153927 356570481 2101197146 1292180160 2059709374 233227451
REM
CELL 1.54180   50.00000   50.00000   50.00000   90.00000   90.00000   90.00000
LATT -1
SFAC C  
C      1  0.5568930000000  0.4265240000000  0.5130060000000 1.0
C      1  0.4579640000000  0.4352620000000  0.5200180000000 1.0
C      1  0.5513910000000  0.4945380000000  0.5846170000000 1.0
C      1  0.4328030000000  0.5058700000000  0.5829130000000 1.0
C      1  0.5455410000000  0.5674920000000  0.4865060000000 1.0
C      1  0.4536510000000  0.5766200000000  0.4854040000000 1.0
C      1  0.4017180000000  0.5285590000000  0.4931080000000 1.0
C      1  0.5932590000000  0.5188900000000  0.4851070000000 1.0
C      1  0.5570790000000  0.4592630000000  0.4214080000000 1.0
C      1  0.4645790000000  0.4729650000000  0.4367530000000 1.0
C      1  0.5373470000000  0.4179220000000  0.4411400000000 1.0
C      1  0.4646940000000  0.4242640000000  0.4483380000000 1.0
C      1  0.4327520000000  0.4848920000000  0.5429290000000 1.0
C      1  0.5714700000000  0.4790820000000  0.5459630000000 1.0
C      1  0.4318000000000  0.4406230000000  0.4805890000000 1.0
C      1  0.5723190000000  0.4424440000000  0.4709190000000 1.0
C      1  0.5345210000000  0.5385490000000  0.5828900000000 1.0
C      1  0.4481050000000  0.5492670000000  0.5893970000000 1.0
C      1  0.5278140000000  0.4696070000000  0.5083430000000 1.0
C      1  0.4787920000000  0.4782400000000  0.5037680000000 1.0
C      1  0.5689570000000  0.5191610000000  0.4709770000000 1.0
C      1  0.4251200000000  0.5319160000000  0.4742780000000 1.0
C      1  0.4543950000000  0.5434470000000  0.4311040000000 1.0
C      1  0.5382770000000  0.5373460000000  0.4332240000000 1.0
C      1  0.5274520000000  0.4772160000000  0.5372690000000 1.0
C      1  0.4763970000000  0.4837320000000  0.5353280000000 1.0
C      1  0.5720030000000  0.4891360000000  0.5184000000000 1.0
C      1  0.4287920000000  0.4892450000000  0.5151080000000 1.0
C      1  0.4664000000000  0.4391360000000  0.4037030000000 1.0
C      1  0.5141830000000  0.4471100000000  0.4019830000000 1.0
C      1  0.5903580000000  0.4858750000000  0.4422240000000 1.0
C      1  0.4142100000000  0.4847250000000  0.4529050000000 1.0
C      1  0.5532810000000  0.4878820000000  0.4151800000000 1.0
C      1  0.4477350000000  0.4932320000000  0.4208160000000 1.0
C      1  0.4720880000000  0.5596960000000  0.6034760000000 1.0
C      1  0.5193180000000  0.5458020000000  0.6060350000000 1.0
C      1  0.5354550000000  0.4209290000000  0.4935110000000 1.0
C      1  0.4745710000000  0.4226220000000  0.4992180000000 1.0
C      1  0.4378460000000  0.5576250000000  0.5611440000000 1.0
C      1  0.5498720000000  0.5559840000000  0.5651380000000 1.0
C      1  0.5502330000000  0.4956220000000  0.4757130000000 1.0
C      1  0.4457690000000  0.5101690000000  0.4798970000000 1.0
C      1  0.5289410000000  0.4978170000000  0.4007620000000 1.0
C      1  0.4631050000000  0.5050570000000  0.3978000000000 1.0
C      1  0.4682340000000  0.5333460000000  0.4058070000000 1.0
C      1  0.5185910000000  0.5227780000000  0.4148520000000 1.0
C      1  0.5457430000000  0.5547840000000  0.5362910000000 1.0
C      1  0.4581940000000  0.5598710000000  0.5357790000000 1.0
C      1  0.4206950000000  0.4613950000000  0.4651560000000 1.0
C      1  0.5835830000000  0.4634460000000  0.4561230000000 1.0
C      1  0.4606930000000  0.5073290000000  0.4543510000000 1.0
C      1  0.5421460000000  0.4786150000000  0.4511960000000 1.0
C      1  0.5748640000000  0.5274890000000  0.5560880000000 1.0
C      1  0.4243390000000  0.5319230000000  0.5427180000000 1.0
C      1  0.4210690000000  0.5060100000000  0.5579960000000 1.0
C      1  0.5729150000000  0.4993500000000  0.5671400000000 1.0
C      1  0.4557930000000  0.5210940000000  0.5878990000000 1.0
C      1  0.5303210000000  0.5107560000000  0.5725900000000 1.0
C      1  0.4337250000000  0.4458110000000  0.5087240000000 1.0
C      1  0.5767490000000  0.4421740000000  0.4990280000000 1.0
C      1  0.4743570000000  0.5825240000000  0.4660920000000 1.0
C      1  0.5254470000000  0.5764410000000  0.4669150000000 1.0
C      1  0.4490810000000  0.4658490000000  0.5563800000000 1.0
C      1  0.5489140000000  0.4606920000000  0.5509190000000 1.0
C      1  0.5235500000000  0.6013060000000  0.5485420000000 1.0
C      1  0.4771110000000  0.6004830000000  0.5492550000000 1.0
C      1  0.4588100000000  0.4310450000000  0.4754310000000 1.0
C      1  0.5462150000000  0.4295190000000  0.4671080000000 1.0
C      1  0.5373250000000  0.4390670000000  0.4188620000000 1.0
C      1  0.4545440000000  0.4447760000000  0.4289560000000 1.0
C      1  0.5517580000000  0.4352630000000  0.5391170000000 1.0
C      1  0.4640310000000  0.4432220000000  0.5476140000000 1.0
C      1  0.4758140000000  0.6004230000000  0.5204810000000 1.0
C      1  0.5259420000000  0.5965030000000  0.5209980000000 1.0
C      1  0.5209380000000  0.5385290000000  0.4883650000000 1.0
C      1  0.4792320000000  0.5489720000000  0.4938900000000 1.0
C      1  0.5571550000000  0.4740850000000  0.4974860000000 1.0
C      1  0.4478800000000  0.4787090000000  0.4941490000000 1.0
C      1  0.5756140000000  0.5042230000000  0.4263770000000 1.0
C      1  0.4221440000000  0.5037490000000  0.4335990000000 1.0
C      1  0.4616450000000  0.5263910000000  0.4988500000000 1.0
C      1  0.5256850000000  0.5085580000000  0.4873700000000 1.0
C      1  0.5905480000000  0.5103330000000  0.5117220000000 1.0
C      1  0.4048330000000  0.5030070000000  0.5074650000000 1.0
C      1  0.5457300000000  0.5756060000000  0.5148900000000 1.0
C      1  0.4529650000000  0.5825960000000  0.5137030000000 1.0
C      1  0.5548330000000  0.5275910000000  0.5308300000000 1.0
C      1  0.4552530000000  0.5292640000000  0.5272010000000 1.0
C      1  0.5661360000000  0.5279410000000  0.4419280000000 1.0
C      1  0.4268530000000  0.5324040000000  0.4430000000000 1.0
C      1  0.4035700000000  0.5389850000000  0.5216290000000 1.0
C      1  0.5937960000000  0.5287010000000  0.5332100000000 1.0
C      1  0.4777670000000  0.5135310000000  0.5409030000000 1.0
C      1  0.5304050000000  0.5094130000000  0.5408130000000 1.0
C      1  0.5243190000000  0.5625300000000  0.4406860000000 1.0
C      1  0.4749970000000  0.5642460000000  0.4418600000000 1.0
C      1  0.5053050000000  0.4122010000000  0.5026600000000 1.0
C      1  0.5022260000000  0.4985410000000  0.5774040000000 1.0
C      1  0.4954620000000  0.4796910000000  0.4303660000000 1.0
C      1  0.4990540000000  0.5091820000000  0.4324400000000 1.0
C      1  0.5025350000000  0.5485150000000  0.5172770000000 1.0
C      1  0.4973240000000  0.4906530000000  0.6050820000000 1.0
C      1  0.4894560000000  0.4444080000000  0.5889230000000 1.0
C      1  0.4889940000000  0.5155030000000  0.4588880000000 1.0
C      1  0.4868780000000  0.5131800000000  0.6183260000000 1.0
C      1  0.5077410000000  0.4037170000000  0.5294160000000 1.0
C      1  0.4816840000000  0.5210820000000  0.5703000000000 1.0
C      1  0.5041960000000  0.5212480000000  0.5293580000000 1.0
C      1  0.4955460000000  0.5440000000000  0.4681740000000 1.0
C      1  0.5059990000000  0.4477160000000  0.4666670000000 1.0
C      1  0.4880420000000  0.5640390000000  0.5418730000000 1.0
C      1  0.4948180000000  0.5500090000000  0.5670470000000 1.0
C      1  0.5009160000000  0.5994090000000  0.5651070000000 1.0
C      1  0.4938320000000  0.4256780000000  0.4418030000000 1.0
C      1  0.5005510000000  0.5868660000000  0.4787010000000 1.0
C      1  0.5124790000000  0.4738750000000  0.4558040000000 1.0
C      1  0.5099560000000  0.3849180000000  0.4670490000000 1.0
C      1  0.5006090000000  0.5919810000000  0.5072000000000 1.0
C      1  0.4997910000000  0.5754410000000  0.5822130000000 1.0
C      1  0.4994520000000  0.5654700000000  0.4245700000000 1.0
C      1  0.4924470000000  0.4309800000000  0.4114410000000 1.0
C      1  0.5062170000000  0.4773110000000  0.4013340000000 1.0
C      1  0.4888930000000  0.4643650000000  0.6069730000000 1.0
C      1  0.4973990000000  0.5432970000000  0.4040910000000 1.0
C      1  0.4925660000000  0.5408830000000  0.6147160000000 1.0
C      1  0.5046650000000  0.3854880000000  0.4938930000000 1.0
C      1  0.5001810000000  0.4733610000000  0.5522230000000 1.0
C      1  0.4835130000000  0.4884270000000  0.3863220000000 1.0
C      1  0.5018750000000  0.4949110000000  0.4772090000000 1.0
C      1  0.5118680000000  0.4011430000000  0.4442790000000 1.0
C      1  0.5027440000000  0.4561660000000  0.4965530000000 1.0
C      1  0.4913410000000  0.4441530000000  0.5602210000000 1.0
C      1  0.5070170000000  0.4224610000000  0.5495190000000 1.0
END
