TITL C-3577090-796-475 -4.90995532953373e-07 125000 -1169.43807800286 0 0 184 (C1) n - 1
REM
REM in /home/bkarasulu/work/CARBON/AIRSS/Generating-Clusters/EDIP-Nigel-Params/with-SteepDescent/Higher-Symm/SD-CG/HFTN-CG
REM
REM
REM
REM
REM
REM ./C.cell (12c818d87b63d06a65506943cc24bca4)
REM
REM compiler GCC version 9.2.1 20190827 (Red Hat 9.2.1-1)
REM options -cpp -mtune=generic -march=x86-64 -g -O0 -fpre-include=/usr/include/finclude/math-vector-fortran.h
REM seed 156020902 680693635 679082872 1803986955 -1634755887 1223596433 -1292255429 -867694840 -606073300 -1244386609 93373186 -2032383328 336885978 408161232 -1427834171 -275724676 1181888394 -540597971 1155436777 -170106345 42575483 -188558640 -1720424620 1696916676 307422144 -815482712 1239414927 1382160295 -1693378786 -1754387650 -75327467 -1736764579 793276066
REM
CELL 1.54180   50.00000   50.00000   50.00000   90.00000   90.00000   90.00000
LATT -1
SFAC C  
C      1  0.5228460000000  0.5333740000000  0.5765840000000 1.0
C      1  0.5230360000000  0.5496050000000  0.4320690000000 1.0
C      1  0.5231780000000  0.4175770000000  0.4909120000000 1.0
C      1  0.4398690000000  0.5339440000000  0.5693960000000 1.0
C      1  0.4395770000000  0.5426620000000  0.4345210000000 1.0
C      1  0.4396840000000  0.4229370000000  0.4955120000000 1.0
C      1  0.3809890000000  0.5152870000000  0.5095250000000 1.0
C      1  0.3813520000000  0.4998840000000  0.4831080000000 1.0
C      1  0.3812830000000  0.4846450000000  0.5098650000000 1.0
C      1  0.4213050000000  0.5700180000000  0.5060730000000 1.0
C      1  0.4214190000000  0.4699670000000  0.4352610000000 1.0
C      1  0.4229240000000  0.4627760000000  0.5572120000000 1.0
C      1  0.3822290000000  0.4851910000000  0.4592900000000 1.0
C      1  0.3813740000000  0.4727870000000  0.5352160000000 1.0
C      1  0.3813890000000  0.5431420000000  0.5080030000000 1.0
C      1  0.4919010000000  0.5081870000000  0.4769900000000 1.0
C      1  0.4925950000000  0.4766030000000  0.5039030000000 1.0
C      1  0.4929080000000  0.5155840000000  0.5180470000000 1.0
C      1  0.4552030000000  0.4301590000000  0.5385640000000 1.0
C      1  0.4551020000000  0.5679460000000  0.5415330000000 1.0
C      1  0.4553330000000  0.5019360000000  0.4188330000000 1.0
C      1  0.5020800000000  0.4540250000000  0.4625790000000 1.0
C      1  0.5020760000000  0.4907620000000  0.5582370000000 1.0
C      1  0.5007830000000  0.5557540000000  0.4777840000000 1.0
C      1  0.4010220000000  0.4406940000000  0.4642510000000 1.0
C      1  0.4003780000000  0.4985140000000  0.5721110000000 1.0
C      1  0.4005900000000  0.5602830000000  0.4664150000000 1.0
C      1  0.5533940000000  0.3925770000000  0.4905470000000 1.0
C      1  0.5536800000000  0.5456520000000  0.5975210000000 1.0
C      1  0.5534940000000  0.5624580000000  0.4110700000000 1.0
C      1  0.5554170000000  0.5950510000000  0.4536690000000 1.0
C      1  0.5556300000000  0.4130920000000  0.4411800000000 1.0
C      1  0.5555760000000  0.4927720000000  0.6055990000000 1.0
C      1  0.4877510000000  0.6123990000000  0.5171620000000 1.0
C      1  0.4883450000000  0.4587750000000  0.3936480000000 1.0
C      1  0.4873760000000  0.4296380000000  0.5888900000000 1.0
C      1  0.4550870000000  0.4472700000000  0.4823270000000 1.0
C      1  0.4535570000000  0.5098060000000  0.5539190000000 1.0
C      1  0.4546480000000  0.5414110000000  0.4622180000000 1.0
C      1  0.5304590000000  0.5945070000000  0.5153570000000 1.0
C      1  0.5309990000000  0.4663390000000  0.4099130000000 1.0
C      1  0.5304330000000  0.4390990000000  0.5743940000000 1.0
C      1  0.6047490000000  0.5326140000000  0.4599060000000 1.0
C      1  0.6043150000000  0.4487320000000  0.4925550000000 1.0
C      1  0.6032410000000  0.5187940000000  0.5478650000000 1.0
C      1  0.5666610000000  0.4909700000000  0.5191020000000 1.0
C      1  0.5634580000000  0.5204850000000  0.4866200000000 1.0
C      1  0.5652290000000  0.4908500000000  0.4889030000000 1.0
C      1  0.4788580000000  0.4843440000000  0.6006080000000 1.0
C      1  0.4780440000000  0.5955020000000  0.4637080000000 1.0
C      1  0.4785210000000  0.4212850000000  0.4353080000000 1.0
C      1  0.4401830000000  0.5713830000000  0.4830220000000 1.0
C      1  0.4404570000000  0.4497630000000  0.4459970000000 1.0
C      1  0.4419170000000  0.4823910000000  0.5700920000000 1.0
C      1  0.4542840000000  0.4098710000000  0.5180890000000 1.0
C      1  0.4542790000000  0.5601200000000  0.5691330000000 1.0
C      1  0.4542510000000  0.5298680000000  0.4117990000000 1.0
C      1  0.4909860000000  0.5315190000000  0.6125680000000 1.0
C      1  0.4906370000000  0.5819360000000  0.4169700000000 1.0
C      1  0.4908480000000  0.3878680000000  0.4706320000000 1.0
C      1  0.5067770000000  0.4249020000000  0.4295690000000 1.0
C      1  0.5069360000000  0.4774070000000  0.6001930000000 1.0
C      1  0.5063450000000  0.5989050000000  0.4696140000000 1.0
C      1  0.5318380000000  0.4895530000000  0.5551230000000 1.0
C      1  0.5303140000000  0.5535290000000  0.4806320000000 1.0
C      1  0.5320600000000  0.4576030000000  0.4633210000000 1.0
C      1  0.4850220000000  0.4345870000000  0.5416050000000 1.0
C      1  0.4849850000000  0.5685880000000  0.5359500000000 1.0
C      1  0.4852200000000  0.4970480000000  0.4217690000000 1.0
C      1  0.5562160000000  0.4066970000000  0.5178840000000 1.0
C      1  0.5564600000000  0.5612540000000  0.5708860000000 1.0
C      1  0.5568180000000  0.5315150000000  0.4104990000000 1.0
C      1  0.5898920000000  0.4761160000000  0.5300090000000 1.0
C      1  0.5859310000000  0.5347810000000  0.5021190000000 1.0
C      1  0.5881300000000  0.4863920000000  0.4675640000000 1.0
C      1  0.5386410000000  0.5148630000000  0.3971760000000 1.0
C      1  0.5376340000000  0.4036920000000  0.5386920000000 1.0
C      1  0.5383100000000  0.5812480000000  0.5635600000000 1.0
C      1  0.5243050000000  0.4125350000000  0.5622770000000 1.0
C      1  0.5247140000000  0.5973020000000  0.5444620000000 1.0
C      1  0.5252100000000  0.4901420000000  0.3928870000000 1.0
C      1  0.5652890000000  0.4316410000000  0.4226110000000 1.0
C      1  0.5647190000000  0.4671250000000  0.5993700000000 1.0
C      1  0.5649070000000  0.6017870000000  0.4790680000000 1.0
C      1  0.4954430000000  0.4878770000000  0.3942640000000 1.0
C      1  0.4945580000000  0.4153160000000  0.5635090000000 1.0
C      1  0.4949260000000  0.5970960000000  0.5419030000000 1.0
C      1  0.5238060000000  0.4731690000000  0.5111490000000 1.0
C      1  0.5245630000000  0.5222680000000  0.5167170000000 1.0
C      1  0.5227480000000  0.5035110000000  0.4709090000000 1.0
C      1  0.5205030000000  0.5791910000000  0.4234630000000 1.0
C      1  0.5205640000000  0.3950840000000  0.4697330000000 1.0
C      1  0.5207690000000  0.5268940000000  0.6067380000000 1.0
C      1  0.4741440000000  0.4768010000000  0.5264520000000 1.0
C      1  0.4740360000000  0.5350790000000  0.5066700000000 1.0
C      1  0.4738200000000  0.4883260000000  0.4657590000000 1.0
C      1  0.4659950000000  0.4481520000000  0.4306100000000 1.0
C      1  0.4662320000000  0.4675620000000  0.5793880000000 1.0
C      1  0.4655070000000  0.5858120000000  0.4893090000000 1.0
C      1  0.4976650000000  0.5426690000000  0.5594120000000 1.0
C      1  0.4975500000000  0.5301750000000  0.4324740000000 1.0
C      1  0.4978120000000  0.4273490000000  0.5075230000000 1.0
C      1  0.5692830000000  0.4582250000000  0.4308570000000 1.0
C      1  0.5693050000000  0.4603990000000  0.5724750000000 1.0
C      1  0.5688400000000  0.5810220000000  0.4976300000000 1.0
C      1  0.4851570000000  0.4712340000000  0.4434520000000 1.0
C      1  0.4851200000000  0.4660930000000  0.5527330000000 1.0
C      1  0.4847340000000  0.5632020000000  0.5026810000000 1.0
C      1  0.5890990000000  0.5621350000000  0.4895060000000 1.0
C      1  0.5872750000000  0.4603550000000  0.4528750000000 1.0
C      1  0.5895350000000  0.4767110000000  0.5602700000000 1.0
C      1  0.5368290000000  0.5474650000000  0.5283890000000 1.0
C      1  0.5373410000000  0.5012590000000  0.4436500000000 1.0
C      1  0.5378790000000  0.4504860000000  0.5274410000000 1.0
C      1  0.4836000000000  0.3786140000000  0.4957540000000 1.0
C      1  0.4837720000000  0.5578210000000  0.6074460000000 1.0
C      1  0.4834690000000  0.5649200000000  0.3962770000000 1.0
C      1  0.5589620000000  0.4364540000000  0.5123660000000 1.0
C      1  0.5574200000000  0.5408970000000  0.5479970000000 1.0
C      1  0.5584490000000  0.5215200000000  0.4394510000000 1.0
C      1  0.4810330000000  0.5589960000000  0.5792990000000 1.0
C      1  0.4810220000000  0.5395480000000  0.4084330000000 1.0
C      1  0.4810950000000  0.4019470000000  0.5114810000000 1.0
C      1  0.5838050000000  0.5356370000000  0.5334170000000 1.0
C      1  0.5864180000000  0.5115930000000  0.4497380000000 1.0
C      1  0.5874420000000  0.4486030000000  0.5165900000000 1.0
C      1  0.5100800000000  0.6065340000000  0.4984010000000 1.0
C      1  0.5106380000000  0.4456060000000  0.4082270000000 1.0
C      1  0.5101850000000  0.4483940000000  0.5931420000000 1.0
C      1  0.3947080000000  0.4638610000000  0.4460950000000 1.0
C      1  0.3952060000000  0.4718380000000  0.5595480000000 1.0
C      1  0.3943670000000  0.5646280000000  0.4956570000000 1.0
C      1  0.4449480000000  0.5289990000000  0.5099830000000 1.0
C      1  0.4448470000000  0.4947100000000  0.4685970000000 1.0
C      1  0.4454120000000  0.4766040000000  0.5187810000000 1.0
C      1  0.4414930000000  0.5736070000000  0.4348400000000 1.0
C      1  0.4419000000000  0.4072970000000  0.4687330000000 1.0
C      1  0.4416650000000  0.5198850000000  0.5971040000000 1.0
C      1  0.4252010000000  0.4955880000000  0.5914580000000 1.0
C      1  0.4247570000000  0.5798970000000  0.4589180000000 1.0
C      1  0.4251680000000  0.4246670000000  0.4510590000000 1.0
C      1  0.5427620000000  0.5687810000000  0.5064910000000 1.0
C      1  0.5434090000000  0.4718080000000  0.4364500000000 1.0
C      1  0.5436900000000  0.4591400000000  0.5567620000000 1.0
C      1  0.4616240000000  0.6082970000000  0.5072820000000 1.0
C      1  0.4622260000000  0.4522290000000  0.4021040000000 1.0
C      1  0.4613390000000  0.4408950000000  0.5898420000000 1.0
C      1  0.5458200000000  0.5165280000000  0.5649470000000 1.0
C      1  0.5463540000000  0.5481670000000  0.4524090000000 1.0
C      1  0.5468630000000  0.4358400000000  0.4825800000000 1.0
C      1  0.4861840000000  0.5148710000000  0.5484470000000 1.0
C      1  0.4856290000000  0.5346180000000  0.4617910000000 1.0
C      1  0.4862590000000  0.4503320000000  0.4886520000000 1.0
C      1  0.5928080000000  0.5607160000000  0.4598410000000 1.0
C      1  0.5917040000000  0.4358380000000  0.4684660000000 1.0
C      1  0.5918600000000  0.5042250000000  0.5717760000000 1.0
C      1  0.4329550000000  0.5523950000000  0.5269150000000 1.0
C      1  0.4331260000000  0.4967830000000  0.4395030000000 1.0
C      1  0.4335350000000  0.4510880000000  0.5322530000000 1.0
C      1  0.4710860000000  0.4068860000000  0.4595290000000 1.0
C      1  0.4710540000000  0.5124060000000  0.6017970000000 1.0
C      1  0.4707150000000  0.5819250000000  0.4389700000000 1.0
C      1  0.4374330000000  0.4710760000000  0.4888520000000 1.0
C      1  0.4373030000000  0.5053500000000  0.5285630000000 1.0
C      1  0.4372110000000  0.5234570000000  0.4793570000000 1.0
C      1  0.4156050000000  0.4371930000000  0.5106990000000 1.0
C      1  0.4163530000000  0.5395080000000  0.5501980000000 1.0
C      1  0.4155070000000  0.5226440000000  0.4389210000000 1.0
C      1  0.5345660000000  0.5252110000000  0.4886740000000 1.0
C      1  0.5362670000000  0.4792530000000  0.4836430000000 1.0
C      1  0.5371100000000  0.4957570000000  0.5265090000000 1.0
C      1  0.5666330000000  0.4163670000000  0.4686370000000 1.0
C      1  0.5663370000000  0.5142590000000  0.5880680000000 1.0
C      1  0.5666540000000  0.5696830000000  0.4430160000000 1.0
C      1  0.4052510000000  0.5133130000000  0.5467880000000 1.0
C      1  0.4086060000000  0.5305100000000  0.4664480000000 1.0
C      1  0.4087930000000  0.4564900000000  0.4895930000000 1.0
C      1  0.6181890000000  0.5007150000000  0.5295330000000 1.0
C      1  0.6182550000000  0.5244850000000  0.4857250000000 1.0
C      1  0.6181590000000  0.4748770000000  0.4876030000000 1.0
C      1  0.5267680000000  0.5959870000000  0.4479260000000 1.0
C      1  0.5270210000000  0.4075030000000  0.4428990000000 1.0
C      1  0.5270040000000  0.4973320000000  0.6096840000000 1.0
C      1  0.6122590000000  0.5001920000000  0.5011180000000 1.0
END
