TITL C-3578199-7832-182 -2.65133335794898e-08 125000 -49.6052828752999 0 0 10 (D(inf)h) n - 1
REM
REM in /home/bkarasulu/work/CARBON/AIRSS/Generating-Clusters/EDIP-Nigel-Params/with-SteepDescent/Higher-Symm/SD-CG/HFTN-CG
REM
REM
REM
REM
REM
REM ./C.cell (12c818d87b63d06a65506943cc24bca4)
REM
REM compiler GCC version 9.2.1 20190827 (Red Hat 9.2.1-1)
REM options -cpp -mtune=generic -march=x86-64 -g -O0 -fpre-include=/usr/include/finclude/math-vector-fortran.h
REM seed -1759955202 -2065827150 531639800 1453802390 593605046 1251277518 -1873259688 -923910202 -1086836406 805437134 -1793830259 -634615627 -2094966395 437251142 1289323417 1004943518 -1027244665 -253861715 787493855 -2015917136 1125745020 1385779786 -1152571807 -1508571693 1477390251 -261203182 1556103356 -1866145087 -1498870714 36001643 1149021799 561971372 2124417381
REM
CELL 1.54180   50.00000   50.00000   50.00000   90.00000   90.00000   90.00000
LATT -1
SFAC C  
C      1  0.4955800000000  0.4340370000000  0.4978860000000 1.0
C      1  0.4955800000000  0.5659630000000  0.4978860000000 1.0
C      1  0.4955800000000  0.4076520000000  0.4978860000000 1.0
C      1  0.4955800000000  0.6179190000000  0.4978860000000 1.0
C      1  0.4955800000000  0.4604220000000  0.4978860000000 1.0
C      1  0.4955800000000  0.5923490000000  0.4978860000000 1.0
C      1  0.4955800000000  0.5131930000000  0.4978860000000 1.0
C      1  0.4955800000000  0.5395780000000  0.4978860000000 1.0
C      1  0.4955800000000  0.4868070000000  0.4978860000000 1.0
C      1  0.4955800000000  0.3820810000000  0.4978860000000 1.0
END
