TITL C-3577087-600-579 4.4592441758166e-08 125000 -609.494703478416 0 0 98 (C3) n - 1
REM
REM in /home/bkarasulu/work/CARBON/AIRSS/Generating-Clusters/EDIP-Nigel-Params/with-SteepDescent/Higher-Symm/SD-CG/HFTN-CG
REM
REM
REM
REM
REM
REM ./C.cell (12c818d87b63d06a65506943cc24bca4)
REM
REM compiler GCC version 9.2.1 20190827 (Red Hat 9.2.1-1)
REM options -cpp -mtune=generic -march=x86-64 -g -O0 -fpre-include=/usr/include/finclude/math-vector-fortran.h
REM seed -81916098 -308881594 1292868856 2024318230 -1521189127 -1178685961 154263125 1898780015 -1898462438 -1841947419 -1107278310 -540047136 1577532705 1282563214 -1402142164 -717776792 418463439 -1733108271 1156036190 -1843648031 -231690926 -307799027 -946578399 591760568 -53017112 2069759232 1138738387 1146578774 1516700445 1779494641 -543691246 822949319 -1307488592
REM
CELL 1.54180   50.00000   50.00000   50.00000   90.00000   90.00000   90.00000
LATT -1
SFAC C  
C      1  0.4814020000000  0.4171030000000  0.5239780000000 1.0
C      1  0.4885930000000  0.4168900000000  0.4728400000000 1.0
C      1  0.5292830000000  0.4167860000000  0.5046380000000 1.0
C      1  0.4582940000000  0.4494730000000  0.5646740000000 1.0
C      1  0.4650590000000  0.4489830000000  0.4321690000000 1.0
C      1  0.5764290000000  0.4486470000000  0.5042820000000 1.0
C      1  0.5531760000000  0.5152260000000  0.5686470000000 1.0
C      1  0.4145020000000  0.5157570000000  0.5117110000000 1.0
C      1  0.5331450000000  0.5148210000000  0.4200840000000 1.0
C      1  0.5602970000000  0.5133210000000  0.5370680000000 1.0
C      1  0.4382820000000  0.5139490000000  0.5336850000000 1.0
C      1  0.5022170000000  0.5132570000000  0.4297080000000 1.0
C      1  0.5104700000000  0.5374840000000  0.5803560000000 1.0
C      1  0.4258220000000  0.5375440000000  0.4686590000000 1.0
C      1  0.5648770000000  0.5367560000000  0.4512010000000 1.0
C      1  0.5648370000000  0.4413360000000  0.5301600000000 1.0
C      1  0.4416430000000  0.4420210000000  0.5417690000000 1.0
C      1  0.4931850000000  0.4413650000000  0.4292740000000 1.0
C      1  0.4625390000000  0.4397190000000  0.5188740000000 1.0
C      1  0.5025540000000  0.4393030000000  0.4588380000000 1.0
C      1  0.5345400000000  0.4393580000000  0.5235120000000 1.0
C      1  0.4488100000000  0.4515920000000  0.4732300000000 1.0
C      1  0.5490050000000  0.4510550000000  0.4696550000000 1.0
C      1  0.5020050000000  0.4516050000000  0.5582150000000 1.0
C      1  0.4951580000000  0.5868810000000  0.4704570000000 1.0
C      1  0.5288950000000  0.5868400000000  0.5098680000000 1.0
C      1  0.4778970000000  0.5871400000000  0.5193800000000 1.0
C      1  0.4930980000000  0.5698050000000  0.4457990000000 1.0
C      1  0.5511970000000  0.5697580000000  0.5205780000000 1.0
C      1  0.4573880000000  0.5702930000000  0.5335030000000 1.0
C      1  0.4060980000000  0.4691330000000  0.5013700000000 1.0
C      1  0.5460750000000  0.4681160000000  0.4184280000000 1.0
C      1  0.5479180000000  0.4686640000000  0.5811250000000 1.0
C      1  0.5627700000000  0.5581280000000  0.4718080000000 1.0
C      1  0.4937810000000  0.5588200000000  0.5680220000000 1.0
C      1  0.4449520000000  0.5587060000000  0.4601670000000 1.0
C      1  0.4580240000000  0.5247490000000  0.5125000000000 1.0
C      1  0.5107460000000  0.5242840000000  0.4572920000000 1.0
C      1  0.5321970000000  0.5244230000000  0.5305560000000 1.0
C      1  0.5439020000000  0.5407640000000  0.4293900000000 1.0
C      1  0.5398660000000  0.5412790000000  0.5730590000000 1.0
C      1  0.4174630000000  0.5416610000000  0.4977270000000 1.0
C      1  0.4683730000000  0.5515550000000  0.5540040000000 1.0
C      1  0.4697600000000  0.5511740000000  0.4452430000000 1.0
C      1  0.5632550000000  0.5508760000000  0.5008260000000 1.0
C      1  0.4161990000000  0.4943930000000  0.4913060000000 1.0
C      1  0.5498640000000  0.4934890000000  0.4319620000000 1.0
C      1  0.5344270000000  0.4940690000000  0.5773940000000 1.0
C      1  0.4654540000000  0.4791580000000  0.5560620000000 1.0
C      1  0.4690830000000  0.4787480000000  0.4423880000000 1.0
C      1  0.5657130000000  0.4784480000000  0.5023690000000 1.0
C      1  0.5378120000000  0.5563220000000  0.5459800000000 1.0
C      1  0.4420150000000  0.5566980000000  0.5093420000000 1.0
C      1  0.5216410000000  0.5560590000000  0.4446980000000 1.0
C      1  0.4692420000000  0.4748130000000  0.4730100000000 1.0
C      1  0.5390940000000  0.4744960000000  0.4872340000000 1.0
C      1  0.4918510000000  0.4749270000000  0.5406160000000 1.0
C      1  0.5375840000000  0.4417930000000  0.4257040000000 1.0
C      1  0.5457330000000  0.4422470000000  0.5703890000000 1.0
C      1  0.4163590000000  0.4427000000000  0.5051010000000 1.0
C      1  0.4974090000000  0.4635330000000  0.4783240000000 1.0
C      1  0.5203540000000  0.4635180000000  0.5090790000000 1.0
C      1  0.4822480000000  0.4637330000000  0.5135720000000 1.0
C      1  0.4862610000000  0.5247190000000  0.5238190000000 1.0
C      1  0.4868270000000  0.5245520000000  0.4760850000000 1.0
C      1  0.5278820000000  0.5244200000000  0.5004430000000 1.0
C      1  0.4489380000000  0.5732010000000  0.4852750000000 1.0
C      1  0.5391040000000  0.5726510000000  0.4625660000000 1.0
C      1  0.5136880000000  0.5730910000000  0.5520070000000 1.0
C      1  0.5324330000000  0.5074760000000  0.4750960000000 1.0
C      1  0.5058540000000  0.5078400000000  0.5405970000000 1.0
C      1  0.4624180000000  0.5078760000000  0.4848280000000 1.0
C      1  0.5607660000000  0.5093060000000  0.4625480000000 1.0
C      1  0.5025650000000  0.5099840000000  0.5713890000000 1.0
C      1  0.4374060000000  0.5099660000000  0.4665630000000 1.0
C      1  0.5078380000000  0.4643660000000  0.4162950000000 1.0
C      1  0.5688630000000  0.4645030000000  0.5491150000000 1.0
C      1  0.4233270000000  0.4652180000000  0.5355530000000 1.0
C      1  0.4735470000000  0.5870200000000  0.4903220000000 1.0
C      1  0.5224970000000  0.5867320000000  0.4812200000000 1.0
C      1  0.5059050000000  0.5869800000000  0.5281630000000 1.0
C      1  0.4811510000000  0.4320710000000  0.5588240000000 1.0
C      1  0.4586140000000  0.4318330000000  0.4550560000000 1.0
C      1  0.5597470000000  0.4314140000000  0.4874230000000 1.0
C      1  0.4964140000000  0.4852950000000  0.4332530000000 1.0
C      1  0.5599910000000  0.4852960000000  0.5305410000000 1.0
C      1  0.4439500000000  0.4859260000000  0.5369550000000 1.0
C      1  0.5777600000000  0.5036670000000  0.4888850000000 1.0
C      1  0.4712320000000  0.5045130000000  0.5729920000000 1.0
C      1  0.4516560000000  0.5041550000000  0.4386810000000 1.0
C      1  0.5756780000000  0.5253290000000  0.5102300000000 1.0
C      1  0.4538930000000  0.5261390000000  0.5603070000000 1.0
C      1  0.4714160000000  0.5255990000000  0.4297990000000 1.0
C      1  0.5316550000000  0.4352350000000  0.4531060000000 1.0
C      1  0.5249340000000  0.4356090000000  0.5516180000000 1.0
C      1  0.4429820000000  0.4358490000000  0.4965400000000 1.0
C      1  0.4997340000000  0.4121430000000  0.5005020000000 1.0
C      1  0.5003630000000  0.5322650000000  0.5000890000000 1.0
END
