TITL C-3577088-510-438 -1.88718536822113e-06 125000 -1104.50898207818 0 0 175 (C1) n - 1
REM
REM in /home/bkarasulu/work/CARBON/AIRSS/Generating-Clusters/EDIP-Nigel-Params/with-SteepDescent/Higher-Symm/SD-CG/HFTN-CG
REM
REM
REM
REM
REM
REM ./C.cell (12c818d87b63d06a65506943cc24bca4)
REM
REM compiler GCC version 9.2.1 20190827 (Red Hat 9.2.1-1)
REM options -cpp -mtune=generic -march=x86-64 -g -O0 -fpre-include=/usr/include/finclude/math-vector-fortran.h
REM seed -95702649 629695423 -699724570 563309390 -1947481216 -1775279501 -782802329 -151192116 1939315796 1364793236 1440633882 -1301722169 263893165 -762065501 791619305 1283195995 -488398974 -1537365013 1104093277 601587121 1562037761 -1929448169 1557827856 1000900115 2143796196 566127127 -1648869993 1942306159 -177163771 -1575525310 1393943505 -2086224449 -978734792
REM
CELL 1.54180   50.00000   50.00000   50.00000   90.00000   90.00000   90.00000
LATT -1
SFAC C  
C      1  0.4897090000000  0.4922400000000  0.3981140000000 1.0
C      1  0.3871720000000  0.4936830000000  0.4579700000000 1.0
C      1  0.4487480000000  0.4950170000000  0.5917260000000 1.0
C      1  0.5693630000000  0.4929720000000  0.5755270000000 1.0
C      1  0.5931740000000  0.4934420000000  0.4572270000000 1.0
C      1  0.5360080000000  0.5143070000000  0.4446940000000 1.0
C      1  0.4634730000000  0.5128420000000  0.4483180000000 1.0
C      1  0.4361410000000  0.5084940000000  0.5215010000000 1.0
C      1  0.5001850000000  0.5092450000000  0.5745500000000 1.0
C      1  0.5615240000000  0.5105670000000  0.5215110000000 1.0
C      1  0.3995740000000  0.5139220000000  0.4423970000000 1.0
C      1  0.4280130000000  0.5134850000000  0.5827810000000 1.0
C      1  0.5570890000000  0.5108280000000  0.5961990000000 1.0
C      1  0.6057690000000  0.5116000000000  0.4770010000000 1.0
C      1  0.5113240000000  0.5107320000000  0.3904200000000 1.0
C      1  0.5170260000000  0.4006830000000  0.5156710000000 1.0
C      1  0.5286090000000  0.4024170000000  0.4878970000000 1.0
C      1  0.5032530000000  0.4025920000000  0.4720380000000 1.0
C      1  0.4869250000000  0.4245520000000  0.4880570000000 1.0
C      1  0.4939990000000  0.4201490000000  0.5162630000000 1.0
C      1  0.5216890000000  0.5949740000000  0.5051700000000 1.0
C      1  0.5100210000000  0.6061010000000  0.4805010000000 1.0
C      1  0.4812340000000  0.5975560000000  0.4827970000000 1.0
C      1  0.4762020000000  0.6107470000000  0.5092100000000 1.0
C      1  0.5005140000000  0.6036210000000  0.5238960000000 1.0
C      1  0.5508980000000  0.5300040000000  0.4222060000000 1.0
C      1  0.4454150000000  0.5268880000000  0.4272870000000 1.0
C      1  0.4154680000000  0.5276820000000  0.5340190000000 1.0
C      1  0.5033000000000  0.5286700000000  0.5977070000000 1.0
C      1  0.5866390000000  0.5280880000000  0.5252730000000 1.0
C      1  0.4723080000000  0.5065220000000  0.4912050000000 1.0
C      1  0.4867090000000  0.5056360000000  0.5271650000000 1.0
C      1  0.5138980000000  0.5196400000000  0.5198360000000 1.0
C      1  0.5233650000000  0.5065300000000  0.4893230000000 1.0
C      1  0.4983690000000  0.5210200000000  0.4758450000000 1.0
C      1  0.4919310000000  0.5175170000000  0.4467210000000 1.0
C      1  0.4394590000000  0.5111040000000  0.4914420000000 1.0
C      1  0.4788490000000  0.5148360000000  0.5551970000000 1.0
C      1  0.5369170000000  0.5117440000000  0.5384520000000 1.0
C      1  0.5460350000000  0.5167940000000  0.4717160000000 1.0
C      1  0.5532240000000  0.5910030000000  0.4623420000000 1.0
C      1  0.4776120000000  0.5927610000000  0.4351210000000 1.0
C      1  0.4319360000000  0.5907700000000  0.4995010000000 1.0
C      1  0.4783370000000  0.5932540000000  0.5660550000000 1.0
C      1  0.5533010000000  0.5922290000000  0.5411680000000 1.0
C      1  0.5780320000000  0.4457600000000  0.4483400000000 1.0
C      1  0.4774260000000  0.4448360000000  0.4092980000000 1.0
C      1  0.4057640000000  0.4551170000000  0.5037940000000 1.0
C      1  0.4727740000000  0.4527360000000  0.5916900000000 1.0
C      1  0.5671400000000  0.4498420000000  0.5500420000000 1.0
C      1  0.5960830000000  0.5271940000000  0.5538280000000 1.0
C      1  0.5808490000000  0.5281690000000  0.4252230000000 1.0
C      1  0.4552030000000  0.5262780000000  0.3989430000000 1.0
C      1  0.3910010000000  0.5271820000000  0.5167630000000 1.0
C      1  0.4766720000000  0.5298050000000  0.6132020000000 1.0
C      1  0.4075370000000  0.4658270000000  0.4757530000000 1.0
C      1  0.4476290000000  0.4669020000000  0.5834000000000 1.0
C      1  0.5583920000000  0.4661760000000  0.5735530000000 1.0
C      1  0.5918660000000  0.4657890000000  0.4659700000000 1.0
C      1  0.4984680000000  0.4649460000000  0.4020420000000 1.0
C      1  0.4051980000000  0.5353540000000  0.4615260000000 1.0
C      1  0.4378570000000  0.5410340000000  0.5796380000000 1.0
C      1  0.5564540000000  0.5385500000000  0.5868480000000 1.0
C      1  0.5958450000000  0.5390650000000  0.4740840000000 1.0
C      1  0.5056280000000  0.5385340000000  0.3981630000000 1.0
C      1  0.5180070000000  0.4634150000000  0.4253870000000 1.0
C      1  0.4364240000000  0.4640190000000  0.4660080000000 1.0
C      1  0.4438180000000  0.4612590000000  0.5528180000000 1.0
C      1  0.5289420000000  0.4691430000000  0.5702130000000 1.0
C      1  0.5759910000000  0.4638090000000  0.4917580000000 1.0
C      1  0.5147390000000  0.4431850000000  0.5674090000000 1.0
C      1  0.5862350000000  0.4424260000000  0.5102340000000 1.0
C      1  0.5384950000000  0.4415490000000  0.4212480000000 1.0
C      1  0.4422600000000  0.4422260000000  0.4453930000000 1.0
C      1  0.4327540000000  0.4344340000000  0.5481830000000 1.0
C      1  0.5189570000000  0.4136620000000  0.5632560000000 1.0
C      1  0.5736280000000  0.4152570000000  0.5058440000000 1.0
C      1  0.5320200000000  0.4138400000000  0.4320020000000 1.0
C      1  0.4512460000000  0.4146290000000  0.4551160000000 1.0
C      1  0.4444740000000  0.4121020000000  0.5330750000000 1.0
C      1  0.5302420000000  0.5043910000000  0.6068940000000 1.0
C      1  0.6026950000000  0.5025860000000  0.5066780000000 1.0
C      1  0.5392710000000  0.5028580000000  0.4000250000000 1.0
C      1  0.4248280000000  0.5016430000000  0.4300020000000 1.0
C      1  0.4126080000000  0.5057860000000  0.5590220000000 1.0
C      1  0.5020100000000  0.4083410000000  0.4415910000000 1.0
C      1  0.4586640000000  0.4104910000000  0.4850360000000 1.0
C      1  0.4745290000000  0.4053570000000  0.5342270000000 1.0
C      1  0.5354260000000  0.4096010000000  0.5376510000000 1.0
C      1  0.5553930000000  0.4095520000000  0.4779490000000 1.0
C      1  0.5644460000000  0.5896440000000  0.4902950000000 1.0
C      1  0.5079750000000  0.5897710000000  0.4355740000000 1.0
C      1  0.4388470000000  0.5888790000000  0.4699090000000 1.0
C      1  0.4547190000000  0.5880930000000  0.5470910000000 1.0
C      1  0.5287510000000  0.5875730000000  0.5583160000000 1.0
C      1  0.5427950000000  0.5383240000000  0.5585270000000 1.0
C      1  0.5641420000000  0.5415060000000  0.4750480000000 1.0
C      1  0.4977750000000  0.5415190000000  0.4286380000000 1.0
C      1  0.4290540000000  0.5386730000000  0.4795100000000 1.0
C      1  0.4638150000000  0.5413230000000  0.5614590000000 1.0
C      1  0.4705010000000  0.4008720000000  0.4373250000000 1.0
C      1  0.4376060000000  0.4187760000000  0.5052740000000 1.0
C      1  0.4865740000000  0.4094990000000  0.5619640000000 1.0
C      1  0.5635950000000  0.4032920000000  0.5302410000000 1.0
C      1  0.5531350000000  0.4011020000000  0.4480950000000 1.0
C      1  0.6038040000000  0.4816520000000  0.5393260000000 1.0
C      1  0.5700090000000  0.4823560000000  0.4134310000000 1.0
C      1  0.4405940000000  0.4807630000000  0.4065080000000 1.0
C      1  0.3873320000000  0.4993240000000  0.5061780000000 1.0
C      1  0.4800550000000  0.4837820000000  0.6280200000000 1.0
C      1  0.4636910000000  0.5031090000000  0.6158640000000 1.0
C      1  0.5950140000000  0.4987330000000  0.5619060000000 1.0
C      1  0.5887310000000  0.4998940000000  0.4290700000000 1.0
C      1  0.4614140000000  0.4978420000000  0.3927140000000 1.0
C      1  0.4046470000000  0.4961550000000  0.4822750000000 1.0
C      1  0.4765450000000  0.3780460000000  0.5213910000000 1.0
C      1  0.5055540000000  0.3722870000000  0.5185230000000 1.0
C      1  0.5070430000000  0.3584340000000  0.4936350000000 1.0
C      1  0.4908090000000  0.3751170000000  0.4769540000000 1.0
C      1  0.4664270000000  0.3813700000000  0.4922130000000 1.0
C      1  0.4631500000000  0.6047490000000  0.4602140000000 1.0
C      1  0.4505230000000  0.6039810000000  0.5209230000000 1.0
C      1  0.5037410000000  0.6029010000000  0.5523030000000 1.0
C      1  0.5491510000000  0.6041030000000  0.5123340000000 1.0
C      1  0.5252400000000  0.6024540000000  0.4567140000000 1.0
C      1  0.5076710000000  0.5500830000000  0.5242840000000 1.0
C      1  0.5237360000000  0.5636170000000  0.5013850000000 1.0
C      1  0.5054600000000  0.5533070000000  0.4760540000000 1.0
C      1  0.4783070000000  0.5657620000000  0.4858100000000 1.0
C      1  0.4782590000000  0.5558510000000  0.5156430000000 1.0
C      1  0.4235380000000  0.4842650000000  0.5381710000000 1.0
C      1  0.5130430000000  0.4859410000000  0.5902260000000 1.0
C      1  0.5754370000000  0.4894480000000  0.5064470000000 1.0
C      1  0.5348200000000  0.4891300000000  0.4278680000000 1.0
C      1  0.4433500000000  0.4902990000000  0.4528410000000 1.0
C      1  0.4454420000000  0.5553600000000  0.4369340000000 1.0
C      1  0.4277190000000  0.5546480000000  0.5319560000000 1.0
C      1  0.5064860000000  0.5555110000000  0.5841980000000 1.0
C      1  0.5774240000000  0.5556450000000  0.5192770000000 1.0
C      1  0.5427460000000  0.5580450000000  0.4284740000000 1.0
C      1  0.5878260000000  0.5497410000000  0.4453560000000 1.0
C      1  0.4752900000000  0.5488540000000  0.3977900000000 1.0
C      1  0.3958880000000  0.5490200000000  0.4963940000000 1.0
C      1  0.4606610000000  0.5515720000000  0.5989410000000 1.0
C      1  0.5792180000000  0.5487210000000  0.5673150000000 1.0
C      1  0.4987370000000  0.4581930000000  0.4801390000000 1.0
C      1  0.4770030000000  0.4747610000000  0.4952900000000 1.0
C      1  0.4885030000000  0.4741430000000  0.5244550000000 1.0
C      1  0.5229100000000  0.4625050000000  0.5230800000000 1.0
C      1  0.5241780000000  0.4715310000000  0.4930480000000 1.0
C      1  0.5667440000000  0.4533750000000  0.4220590000000 1.0
C      1  0.4496480000000  0.4536980000000  0.4170580000000 1.0
C      1  0.3982220000000  0.4761710000000  0.5226390000000 1.0
C      1  0.4920540000000  0.4700760000000  0.6068080000000 1.0
C      1  0.5934310000000  0.4539890000000  0.5377560000000 1.0
C      1  0.4481180000000  0.5598210000000  0.4666150000000 1.0
C      1  0.4565580000000  0.5594250000000  0.5378330000000 1.0
C      1  0.5200060000000  0.5585240000000  0.5575650000000 1.0
C      1  0.5577610000000  0.5608540000000  0.4976410000000 1.0
C      1  0.5160030000000  0.5615030000000  0.4420220000000 1.0
C      1  0.5640300000000  0.5705080000000  0.4433140000000 1.0
C      1  0.4653520000000  0.5687940000000  0.4211030000000 1.0
C      1  0.4159920000000  0.5678120000000  0.5094770000000 1.0
C      1  0.4821240000000  0.5709130000000  0.5866980000000 1.0
C      1  0.5709860000000  0.5680260000000  0.5439450000000 1.0
C      1  0.5468660000000  0.4386770000000  0.5300180000000 1.0
C      1  0.5527790000000  0.4371490000000  0.4623920000000 1.0
C      1  0.4848690000000  0.4360750000000  0.4373620000000 1.0
C      1  0.4333380000000  0.4480900000000  0.5116600000000 1.0
C      1  0.4848660000000  0.4419720000000  0.5664440000000 1.0
C      1  0.4998400000000  0.4587190000000  0.4502130000000 1.0
C      1  0.4513940000000  0.4605920000000  0.4913200000000 1.0
C      1  0.4723760000000  0.4578510000000  0.5436520000000 1.0
C      1  0.5270310000000  0.4832420000000  0.5442830000000 1.0
C      1  0.5485770000000  0.4581760000000  0.4828390000000 1.0
END
