TITL C-3577090-796-592 -9.95306316244534e-07 125000 -99.1933426279664 0 0 17 (Cs) n - 1
REM
REM in /home/bkarasulu/work/CARBON/AIRSS/Generating-Clusters/EDIP-Nigel-Params/with-SteepDescent/Higher-Symm/SD-CG/HFTN-CG
REM
REM
REM
REM
REM
REM ./C.cell (12c818d87b63d06a65506943cc24bca4)
REM
REM compiler GCC version 9.2.1 20190827 (Red Hat 9.2.1-1)
REM options -cpp -mtune=generic -march=x86-64 -g -O0 -fpre-include=/usr/include/finclude/math-vector-fortran.h
REM seed -1542392766 -1029967586 -725587079 -1518681191 160578297 663326869 -1281450545 -1877402287 1248926069 674960293 1614192252 740050951 -1097310199 478641554 328509892 380605910 -351277914 -1650831893 -1492786276 -2033939981 -2097123351 819229249 1617223048 1714516882 1828475692 425697270 -45575677 -1570980397 -884368669 -270418144 -2134801212 1682202834 39779705
REM
CELL 1.54180   50.00000   50.00000   50.00000   90.00000   90.00000   90.00000
LATT -1
SFAC C  
C      1  0.5277640000000  0.5113260000000  0.5387000000000 1.0
C      1  0.5016890000000  0.4692970000000  0.5373090000000 1.0
C      1  0.4783670000000  0.5139990000000  0.5376500000000 1.0
C      1  0.5263350000000  0.5111290000000  0.4669140000000 1.0
C      1  0.5016210000000  0.4708570000000  0.4606500000000 1.0
C      1  0.4791270000000  0.5139720000000  0.4609790000000 1.0
C      1  0.5400330000000  0.5179130000000  0.5143750000000 1.0
C      1  0.5024150000000  0.4560420000000  0.5122160000000 1.0
C      1  0.4677540000000  0.5224780000000  0.5127240000000 1.0
C      1  0.5224980000000  0.5089160000000  0.4946140000000 1.0
C      1  0.4950570000000  0.4687690000000  0.4879510000000 1.0
C      1  0.4738310000000  0.5094550000000  0.4882610000000 1.0
C      1  0.5035980000000  0.5249830000000  0.5435690000000 1.0
C      1  0.5251690000000  0.4836360000000  0.5432530000000 1.0
C      1  0.4791340000000  0.4859400000000  0.5406270000000 1.0
C      1  0.5028860000000  0.4989770000000  0.4561890000000 1.0
C      1  0.4967760000000  0.4954400000000  0.5019310000000 1.0
END
