TITL C-3578206-1180-338 -1.21992066303069e-07 125000 -897.487904377327 0 0 144 (C1) n - 1
REM
REM in /home/bkarasulu/work/CARBON/AIRSS/Generating-Clusters/EDIP-Nigel-Params/with-SteepDescent/Higher-Symm/SD-CG/HFTN-CG
REM
REM
REM
REM
REM
REM ./C.cell (12c818d87b63d06a65506943cc24bca4)
REM
REM compiler GCC version 9.2.1 20190827 (Red Hat 9.2.1-1)
REM options -cpp -mtune=generic -march=x86-64 -g -O0 -fpre-include=/usr/include/finclude/math-vector-fortran.h
REM seed -388709345 -2013054812 -1949205672 32542948 1189882346 -412308622 511258142 1787023107 1100301034 -246914163 384962939 -1829127189 -1597431601 1958118185 1001978111 226044109 -510418761 -379682041 1875922428 157999159 250915436 -1583902539 -849047052 1615901044 1528223858 7039303 1342468600 1256864908 1177225424 -2120376439 -2105343213 -271113549 1008527189
REM
CELL 1.54180   50.00000   50.00000   50.00000   90.00000   90.00000   90.00000
LATT -1
SFAC C  
C      1  0.5417150000000  0.5732660000000  0.4292890000000 1.0
C      1  0.5470760000000  0.4246990000000  0.5713790000000 1.0
C      1  0.5419810000000  0.5740780000000  0.5714700000000 1.0
C      1  0.5384890000000  0.4326850000000  0.4309650000000 1.0
C      1  0.4496340000000  0.5784100000000  0.5447570000000 1.0
C      1  0.4616070000000  0.4414740000000  0.4570950000000 1.0
C      1  0.4599970000000  0.5620650000000  0.4527960000000 1.0
C      1  0.4526860000000  0.4311040000000  0.5366200000000 1.0
C      1  0.5595620000000  0.4454660000000  0.4448610000000 1.0
C      1  0.5617000000000  0.5601650000000  0.5566620000000 1.0
C      1  0.5655160000000  0.4406310000000  0.5566060000000 1.0
C      1  0.5599930000000  0.5584270000000  0.4449060000000 1.0
C      1  0.4581630000000  0.4376970000000  0.5860950000000 1.0
C      1  0.4610070000000  0.5569840000000  0.4062380000000 1.0
C      1  0.4600680000000  0.4427670000000  0.4091040000000 1.0
C      1  0.4684520000000  0.5569480000000  0.5842120000000 1.0
C      1  0.5234330000000  0.5271370000000  0.4136760000000 1.0
C      1  0.5274930000000  0.4705760000000  0.5920510000000 1.0
C      1  0.5233750000000  0.5230500000000  0.5915860000000 1.0
C      1  0.5237560000000  0.4757790000000  0.4128080000000 1.0
C      1  0.5918370000000  0.5281180000000  0.4849430000000 1.0
C      1  0.5890650000000  0.4741160000000  0.5157570000000 1.0
C      1  0.5873500000000  0.5280080000000  0.5166450000000 1.0
C      1  0.5925640000000  0.4740840000000  0.4842200000000 1.0
C      1  0.4811090000000  0.5294920000000  0.4550190000000 1.0
C      1  0.4882170000000  0.4686220000000  0.5460780000000 1.0
C      1  0.4833190000000  0.5259370000000  0.5379450000000 1.0
C      1  0.4825130000000  0.4737190000000  0.4533580000000 1.0
C      1  0.4211320000000  0.5828790000000  0.5102060000000 1.0
C      1  0.4293210000000  0.4187750000000  0.4882210000000 1.0
C      1  0.4327180000000  0.5847270000000  0.4848780000000 1.0
C      1  0.4148540000000  0.4174010000000  0.5121100000000 1.0
C      1  0.4766950000000  0.4363740000000  0.4313700000000 1.0
C      1  0.4699330000000  0.5784370000000  0.5662980000000 1.0
C      1  0.4709050000000  0.4309440000000  0.5616260000000 1.0
C      1  0.4696840000000  0.5737740000000  0.4279220000000 1.0
C      1  0.4664360000000  0.4569080000000  0.4904880000000 1.0
C      1  0.4559410000000  0.5477960000000  0.5210220000000 1.0
C      1  0.4512500000000  0.4581430000000  0.5174620000000 1.0
C      1  0.4667790000000  0.5348700000000  0.4856810000000 1.0
C      1  0.4840980000000  0.6009910000000  0.4650840000000 1.0
C      1  0.4923980000000  0.4041350000000  0.5311680000000 1.0
C      1  0.4912260000000  0.5954880000000  0.5267570000000 1.0
C      1  0.4816790000000  0.4051020000000  0.4716460000000 1.0
C      1  0.5714080000000  0.5159860000000  0.5816280000000 1.0
C      1  0.5714690000000  0.4863590000000  0.4166810000000 1.0
C      1  0.5711880000000  0.5172520000000  0.4170270000000 1.0
C      1  0.5738070000000  0.4852770000000  0.5810730000000 1.0
C      1  0.5632600000000  0.5714920000000  0.5283640000000 1.0
C      1  0.5643050000000  0.4373350000000  0.4726590000000 1.0
C      1  0.5658770000000  0.5678940000000  0.4720340000000 1.0
C      1  0.5689200000000  0.4305040000000  0.5298260000000 1.0
C      1  0.5470250000000  0.5174980000000  0.3972650000000 1.0
C      1  0.5526240000000  0.4832360000000  0.6047640000000 1.0
C      1  0.5499850000000  0.5142200000000  0.6045270000000 1.0
C      1  0.5472870000000  0.4862150000000  0.3967980000000 1.0
C      1  0.5229240000000  0.4212080000000  0.4743680000000 1.0
C      1  0.5260760000000  0.5586120000000  0.5280590000000 1.0
C      1  0.5259000000000  0.4381530000000  0.5292440000000 1.0
C      1  0.5229580000000  0.5730440000000  0.4731610000000 1.0
C      1  0.5184800000000  0.5680400000000  0.5568340000000 1.0
C      1  0.5208150000000  0.4161990000000  0.4451990000000 1.0
C      1  0.5180600000000  0.5735600000000  0.4440740000000 1.0
C      1  0.5224300000000  0.4312820000000  0.5589950000000 1.0
C      1  0.5443210000000  0.4093630000000  0.5112640000000 1.0
C      1  0.5545280000000  0.5921810000000  0.4826720000000 1.0
C      1  0.5504140000000  0.4142080000000  0.4825220000000 1.0
C      1  0.5450900000000  0.5925210000000  0.5103330000000 1.0
C      1  0.4509900000000  0.4692540000000  0.4160500000000 1.0
C      1  0.4595250000000  0.5325340000000  0.5737660000000 1.0
C      1  0.4506040000000  0.4646870000000  0.5816430000000 1.0
C      1  0.4507430000000  0.5314060000000  0.4149380000000 1.0
C      1  0.4282860000000  0.5155700000000  0.5335410000000 1.0
C      1  0.4248050000000  0.4862450000000  0.4610550000000 1.0
C      1  0.4236670000000  0.5157410000000  0.4603060000000 1.0
C      1  0.4215990000000  0.4865010000000  0.5373100000000 1.0
C      1  0.4101590000000  0.4404080000000  0.5266700000000 1.0
C      1  0.4193040000000  0.5616570000000  0.4713930000000 1.0
C      1  0.4178300000000  0.4407370000000  0.4716210000000 1.0
C      1  0.4134840000000  0.5598500000000  0.5245470000000 1.0
C      1  0.4198630000000  0.4397410000000  0.5535020000000 1.0
C      1  0.4312790000000  0.5594920000000  0.4451790000000 1.0
C      1  0.4330660000000  0.4426450000000  0.4471030000000 1.0
C      1  0.4261440000000  0.5599920000000  0.5506950000000 1.0
C      1  0.5285730000000  0.5254290000000  0.5624590000000 1.0
C      1  0.5307320000000  0.4850320000000  0.4408960000000 1.0
C      1  0.5301940000000  0.5169510000000  0.4414580000000 1.0
C      1  0.5321340000000  0.4744090000000  0.5628380000000 1.0
C      1  0.4351320000000  0.5326340000000  0.5568990000000 1.0
C      1  0.4283330000000  0.4694990000000  0.4361030000000 1.0
C      1  0.4279990000000  0.5321290000000  0.4351290000000 1.0
C      1  0.4277490000000  0.4668290000000  0.5616060000000 1.0
C      1  0.5623310000000  0.4833960000000  0.5277810000000 1.0
C      1  0.5720700000000  0.5154880000000  0.4676260000000 1.0
C      1  0.5722890000000  0.4872480000000  0.4675000000000 1.0
C      1  0.5612670000000  0.5164530000000  0.5282100000000 1.0
C      1  0.4763660000000  0.5093920000000  0.5779410000000 1.0
C      1  0.4744050000000  0.4851100000000  0.4260900000000 1.0
C      1  0.4738300000000  0.5170000000000  0.4268030000000 1.0
C      1  0.4767200000000  0.4783630000000  0.5751280000000 1.0
C      1  0.4959670000000  0.5870390000000  0.5549590000000 1.0
C      1  0.4911400000000  0.4129680000000  0.4430560000000 1.0
C      1  0.4934900000000  0.5896430000000  0.4379650000000 1.0
C      1  0.4967780000000  0.4152290000000  0.5603150000000 1.0
C      1  0.5576630000000  0.5295180000000  0.5574500000000 1.0
C      1  0.5600760000000  0.4752810000000  0.4429210000000 1.0
C      1  0.5596690000000  0.5280240000000  0.4433580000000 1.0
C      1  0.5606220000000  0.4709850000000  0.5570210000000 1.0
C      1  0.5004720000000  0.4796920000000  0.6009840000000 1.0
C      1  0.4972140000000  0.5168750000000  0.4048420000000 1.0
C      1  0.4973060000000  0.4863860000000  0.4043950000000 1.0
C      1  0.4973760000000  0.5094810000000  0.5989110000000 1.0
C      1  0.4628720000000  0.5817610000000  0.4765080000000 1.0
C      1  0.4651410000000  0.4101490000000  0.5192390000000 1.0
C      1  0.4648170000000  0.5822250000000  0.5153560000000 1.0
C      1  0.4591090000000  0.4134660000000  0.4903700000000 1.0
C      1  0.4652550000000  0.4797210000000  0.5322240000000 1.0
C      1  0.4738120000000  0.5070030000000  0.4925270000000 1.0
C      1  0.4659480000000  0.4840660000000  0.4767780000000 1.0
C      1  0.4693560000000  0.5058210000000  0.5204650000000 1.0
C      1  0.4938760000000  0.4524780000000  0.4993710000000 1.0
C      1  0.4948820000000  0.5519860000000  0.5229930000000 1.0
C      1  0.4948470000000  0.4426190000000  0.5263160000000 1.0
C      1  0.4901450000000  0.5524840000000  0.4943450000000 1.0
C      1  0.5901720000000  0.4432980000000  0.4844000000000 1.0
C      1  0.5878100000000  0.5592240000000  0.5159520000000 1.0
C      1  0.5909620000000  0.4430830000000  0.5156640000000 1.0
C      1  0.5898520000000  0.5587080000000  0.4852470000000 1.0
C      1  0.5031350000000  0.3913700000000  0.4862730000000 1.0
C      1  0.5147070000000  0.5965890000000  0.5085930000000 1.0
C      1  0.5148500000000  0.3991180000000  0.5116850000000 1.0
C      1  0.5069370000000  0.6066250000000  0.4824720000000 1.0
C      1  0.4216820000000  0.4653510000000  0.5145050000000 1.0
C      1  0.4229020000000  0.5348280000000  0.4831760000000 1.0
C      1  0.4158630000000  0.4682150000000  0.4837100000000 1.0
C      1  0.4159610000000  0.5328580000000  0.5121590000000 1.0
C      1  0.5148200000000  0.4827700000000  0.5397610000000 1.0
C      1  0.5102880000000  0.5271950000000  0.4616640000000 1.0
C      1  0.5117410000000  0.4720800000000  0.4603820000000 1.0
C      1  0.5132720000000  0.5144470000000  0.5388740000000 1.0
C      1  0.5322190000000  0.5280060000000  0.5165470000000 1.0
C      1  0.5183820000000  0.4531750000000  0.4832490000000 1.0
C      1  0.5167800000000  0.5446260000000  0.4848450000000 1.0
C      1  0.5324830000000  0.4678260000000  0.5159340000000 1.0
END
