TITL C-3578197-9521-609 0.000240378295196894 125000 -646.755660724599 0 0 105 (C1) n - 1
REM
REM in /home/bkarasulu/work/CARBON/AIRSS/Generating-Clusters/EDIP-Nigel-Params/with-SteepDescent/Higher-Symm/SD-CG/HFTN-CG
REM
REM
REM
REM
REM
REM ./C.cell (12c818d87b63d06a65506943cc24bca4)
REM
REM compiler GCC version 9.2.1 20190827 (Red Hat 9.2.1-1)
REM options -cpp -mtune=generic -march=x86-64 -g -O0 -fpre-include=/usr/include/finclude/math-vector-fortran.h
REM seed 408469418 -1935576382 759807564 -2015034603 1332274932 -891467891 2096461172 -1063496200 66440701 -1700469398 -1830049169 -709269592 -1195084985 1810173055 333878726 -886633500 -429337011 547706803 -1546664364 432025967 1701682534 -2107194395 1227007134 -1480821705 1252060661 1395107078 1658343159 -1912554451 -1500097767 1911436110 1695004899 -236038889 1856088865
REM
CELL 1.54180   50.00000   50.00000   50.00000   90.00000   90.00000   90.00000
LATT -1
SFAC C  
C      1  0.4157220000000  0.5147670000000  0.4559770000000 1.0
C      1  0.4247140000000  0.5383610000000  0.4678790000000 1.0
C      1  0.4162010000000  0.5429210000000  0.4940280000000 1.0
C      1  0.4266660000000  0.5434030000000  0.5198340000000 1.0
C      1  0.4194600000000  0.5230100000000  0.5372480000000 1.0
C      1  0.4307590000000  0.4998190000000  0.5479700000000 1.0
C      1  0.4198570000000  0.4755690000000  0.5388970000000 1.0
C      1  0.4278850000000  0.4524640000000  0.5250570000000 1.0
C      1  0.4224070000000  0.4513500000000  0.4953620000000 1.0
C      1  0.4131680000000  0.4767250000000  0.4837180000000 1.0
C      1  0.4231900000000  0.4876550000000  0.4574970000000 1.0
C      1  0.4729420000000  0.4752300000000  0.5338950000000 1.0
C      1  0.4579250000000  0.4501510000000  0.5259930000000 1.0
C      1  0.4593830000000  0.4458870000000  0.4947330000000 1.0
C      1  0.4714560000000  0.4690350000000  0.4699000000000 1.0
C      1  0.4535350000000  0.4872410000000  0.4519030000000 1.0
C      1  0.4663280000000  0.5178040000000  0.4495970000000 1.0
C      1  0.4541490000000  0.5422840000000  0.4648960000000 1.0
C      1  0.4685300000000  0.5368250000000  0.4922770000000 1.0
C      1  0.4561800000000  0.5463710000000  0.5191190000000 1.0
C      1  0.4727000000000  0.5285800000000  0.5391790000000 1.0
C      1  0.4610320000000  0.5001660000000  0.5492240000000 1.0
C      1  0.5388910000000  0.5658940000000  0.5517930000000 1.0
C      1  0.5391440000000  0.5313920000000  0.5858380000000 1.0
C      1  0.5389860000000  0.4838260000000  0.5888880000000 1.0
C      1  0.5391560000000  0.4426670000000  0.5581120000000 1.0
C      1  0.5437920000000  0.4212650000000  0.5161130000000 1.0
C      1  0.5384830000000  0.4192310000000  0.4674550000000 1.0
C      1  0.5324080000000  0.4456750000000  0.4248210000000 1.0
C      1  0.5311950000000  0.4887100000000  0.4036800000000 1.0
C      1  0.5345940000000  0.5367590000000  0.4163780000000 1.0
C      1  0.5365130000000  0.5656140000000  0.4537210000000 1.0
C      1  0.5396030000000  0.5685320000000  0.5031930000000 1.0
C      1  0.5118610000000  0.5223850000000  0.5783700000000 1.0
C      1  0.5140540000000  0.4931320000000  0.5748690000000 1.0
C      1  0.5113360000000  0.4423090000000  0.5461400000000 1.0
C      1  0.5135060000000  0.4281210000000  0.5181180000000 1.0
C      1  0.5106290000000  0.4218040000000  0.4739500000000 1.0
C      1  0.5038950000000  0.4496280000000  0.4255050000000 1.0
C      1  0.5020570000000  0.4890820000000  0.4052370000000 1.0
C      1  0.5063950000000  0.5429310000000  0.4171540000000 1.0
C      1  0.5098370000000  0.5734440000000  0.4519120000000 1.0
C      1  0.5125910000000  0.5795310000000  0.5057770000000 1.0
C      1  0.5104610000000  0.5638250000000  0.5471200000000 1.0
C      1  0.4979000000000  0.5227670000000  0.4490760000000 1.0
C      1  0.5146940000000  0.5331740000000  0.4743210000000 1.0
C      1  0.4976680000000  0.5449010000000  0.4965930000000 1.0
C      1  0.5020430000000  0.5330360000000  0.5258460000000 1.0
C      1  0.5247040000000  0.5125490000000  0.5282000000000 1.0
C      1  0.5187950000000  0.4895770000000  0.5449760000000 1.0
C      1  0.5026320000000  0.4692640000000  0.5316040000000 1.0
C      1  0.5103740000000  0.4551540000000  0.5033000000000 1.0
C      1  0.5219600000000  0.4588510000000  0.4753490000000 1.0
C      1  0.5017440000000  0.4717130000000  0.4573780000000 1.0
C      1  0.5118170000000  0.4972290000000  0.4418740000000 1.0
C      1  0.5491360000000  0.5555650000000  0.4308800000000 1.0
C      1  0.5455120000000  0.5553380000000  0.4784830000000 1.0
C      1  0.5530790000000  0.5596150000000  0.5274880000000 1.0
C      1  0.5488810000000  0.5557160000000  0.5758650000000 1.0
C      1  0.5568350000000  0.5071380000000  0.5838330000000 1.0
C      1  0.5474800000000  0.4593360000000  0.5788200000000 1.0
C      1  0.5574500000000  0.4383960000000  0.5363530000000 1.0
C      1  0.5541290000000  0.4162420000000  0.4905050000000 1.0
C      1  0.5451810000000  0.4413300000000  0.4504140000000 1.0
C      1  0.5438920000000  0.4636580000000  0.4066850000000 1.0
C      1  0.5412640000000  0.5091540000000  0.4210400000000 1.0
C      1  0.6192970000000  0.5089320000000  0.4784340000000 1.0
C      1  0.6081390000000  0.5313520000000  0.4870270000000 1.0
C      1  0.5928770000000  0.5439150000000  0.5047160000000 1.0
C      1  0.5789600000000  0.5463160000000  0.5283390000000 1.0
C      1  0.5841160000000  0.5274310000000  0.5482830000000 1.0
C      1  0.5752660000000  0.5040420000000  0.5608540000000 1.0
C      1  0.5828450000000  0.4781940000000  0.5524140000000 1.0
C      1  0.5811940000000  0.4555210000000  0.5358080000000 1.0
C      1  0.5996990000000  0.4521610000000  0.5157990000000 1.0
C      1  0.6147060000000  0.4616970000000  0.4961390000000 1.0
C      1  0.6219890000000  0.4828080000000  0.4819010000000 1.0
C      1  0.4670500000000  0.4344390000000  0.4527220000000 1.0
C      1  0.4596340000000  0.4741690000000  0.4250970000000 1.0
C      1  0.4622580000000  0.5207570000000  0.4115500000000 1.0
C      1  0.4655200000000  0.5634420000000  0.4353010000000 1.0
C      1  0.4724200000000  0.5856650000000  0.4788190000000 1.0
C      1  0.4669240000000  0.5742770000000  0.5265210000000 1.0
C      1  0.4693670000000  0.5507470000000  0.5698760000000 1.0
C      1  0.4691430000000  0.5014420000000  0.5785860000000 1.0
C      1  0.4800860000000  0.4538550000000  0.5785030000000 1.0
C      1  0.4696510000000  0.4249880000000  0.5398500000000 1.0
C      1  0.4686120000000  0.4167140000000  0.4934140000000 1.0
C      1  0.4753940000000  0.4492880000000  0.4301220000000 1.0
C      1  0.4731530000000  0.4938770000000  0.4074220000000 1.0
C      1  0.4774750000000  0.5448240000000  0.4165390000000 1.0
C      1  0.4822590000000  0.5753040000000  0.4550460000000 1.0
C      1  0.4838480000000  0.5857350000000  0.5044640000000 1.0
C      1  0.4824070000000  0.5702230000000  0.5522850000000 1.0
C      1  0.4829560000000  0.5279600000000  0.5823450000000 1.0
C      1  0.4881680000000  0.4799690000000  0.5852170000000 1.0
C      1  0.4880720000000  0.4327190000000  0.5620820000000 1.0
C      1  0.4856860000000  0.4118930000000  0.5177310000000 1.0
C      1  0.4829940000000  0.4158600000000  0.4680250000000 1.0
C      1  0.4203720000000  0.4975330000000  0.5010790000000 1.0
C      1  0.4697250000000  0.5073880000000  0.4924820000000 1.0
C      1  0.5389680000000  0.5058590000000  0.5046920000000 1.0
C      1  0.4475410000000  0.4965430000000  0.5046920000000 1.0
C      1  0.5198360000000  0.5061150000000  0.4845890000000 1.0
C      1  0.4950740000000  0.4953740000000  0.4931340000000 1.0
END
