TITL C-3577091-527-375 -6.43643184655386e-07 125000 -1095.8637218357 0 0 174 (C1) n - 1
REM
REM in /home/bkarasulu/work/CARBON/AIRSS/Generating-Clusters/EDIP-Nigel-Params/with-SteepDescent/Higher-Symm/SD-CG/HFTN-CG
REM
REM
REM
REM
REM
REM ./C.cell (12c818d87b63d06a65506943cc24bca4)
REM
REM compiler GCC version 9.2.1 20190827 (Red Hat 9.2.1-1)
REM options -cpp -mtune=generic -march=x86-64 -g -O0 -fpre-include=/usr/include/finclude/math-vector-fortran.h
REM seed 2003845924 1077792238 -1920640870 -1814952674 -1809308558 91754681 2095180527 -772760909 279398140 -1348872180 -472802581 -97644468 506180723 2127486665 67871581 -488575536 -2121348958 815540640 1612906226 -282885223 -36269805 106494003 1402979882 1312929304 -96408394 -977757186 1208356571 -1046930665 1390573806 1060722283 -1222214725 -468485457 664350054
REM
CELL 1.54180   50.00000   50.00000   50.00000   90.00000   90.00000   90.00000
LATT -1
SFAC C  
C      1  0.3906830000000  0.4941270000000  0.4729520000000 1.0
C      1  0.5432150000000  0.4531860000000  0.4117690000000 1.0
C      1  0.4750940000000  0.5104560000000  0.5244300000000 1.0
C      1  0.4704850000000  0.5938550000000  0.5513180000000 1.0
C      1  0.4186260000000  0.5104850000000  0.5030730000000 1.0
C      1  0.4989360000000  0.3839340000000  0.4987610000000 1.0
C      1  0.4141620000000  0.5398750000000  0.5080820000000 1.0
C      1  0.4172120000000  0.5423820000000  0.4595420000000 1.0
C      1  0.5461440000000  0.4355740000000  0.5783310000000 1.0
C      1  0.5510860000000  0.5821240000000  0.4850580000000 1.0
C      1  0.5838820000000  0.5026600000000  0.4301520000000 1.0
C      1  0.4775070000000  0.4579620000000  0.5095180000000 1.0
C      1  0.5516140000000  0.4767280000000  0.4784200000000 1.0
C      1  0.5035070000000  0.4006210000000  0.5232040000000 1.0
C      1  0.5278270000000  0.4080310000000  0.5394230000000 1.0
C      1  0.5888720000000  0.5086990000000  0.4921340000000 1.0
C      1  0.4760730000000  0.4885550000000  0.5462970000000 1.0
C      1  0.5012080000000  0.5537870000000  0.4837050000000 1.0
C      1  0.4548930000000  0.5193190000000  0.4645440000000 1.0
C      1  0.5592750000000  0.5141790000000  0.4191720000000 1.0
C      1  0.4262660000000  0.5710790000000  0.5498270000000 1.0
C      1  0.4945870000000  0.5088660000000  0.6006650000000 1.0
C      1  0.5998770000000  0.5323490000000  0.5070250000000 1.0
C      1  0.5292400000000  0.5921570000000  0.5025620000000 1.0
C      1  0.5034870000000  0.4579780000000  0.6170230000000 1.0
C      1  0.5318110000000  0.5121370000000  0.4612290000000 1.0
C      1  0.5655480000000  0.4375050000000  0.4576540000000 1.0
C      1  0.5540340000000  0.4122230000000  0.5238940000000 1.0
C      1  0.5139370000000  0.5431650000000  0.5346960000000 1.0
C      1  0.4857170000000  0.6075840000000  0.5077270000000 1.0
C      1  0.3909720000000  0.4834320000000  0.5004250000000 1.0
C      1  0.5936710000000  0.5546810000000  0.4883230000000 1.0
C      1  0.5041180000000  0.5911030000000  0.4386510000000 1.0
C      1  0.4429040000000  0.5311840000000  0.4167830000000 1.0
C      1  0.5446510000000  0.5316350000000  0.5047170000000 1.0
C      1  0.5540520000000  0.4876540000000  0.5217110000000 1.0
C      1  0.5570250000000  0.5430160000000  0.4207210000000 1.0
C      1  0.5910780000000  0.4585950000000  0.4954930000000 1.0
C      1  0.4900900000000  0.4804590000000  0.4511620000000 1.0
C      1  0.5889090000000  0.5056560000000  0.5525740000000 1.0
C      1  0.5665350000000  0.4755100000000  0.5623630000000 1.0
C      1  0.4000290000000  0.4697580000000  0.4538090000000 1.0
C      1  0.5735550000000  0.4319120000000  0.5663090000000 1.0
C      1  0.6077740000000  0.5000070000000  0.4703780000000 1.0
C      1  0.4485670000000  0.4188360000000  0.4484190000000 1.0
C      1  0.4557990000000  0.4750770000000  0.4042220000000 1.0
C      1  0.4252870000000  0.5521060000000  0.4308690000000 1.0
C      1  0.4541630000000  0.3907800000000  0.4546000000000 1.0
C      1  0.4721800000000  0.5624930000000  0.4284030000000 1.0
C      1  0.4944460000000  0.4947270000000  0.4760280000000 1.0
C      1  0.5214900000000  0.5893970000000  0.5328240000000 1.0
C      1  0.4894120000000  0.4793960000000  0.6053970000000 1.0
C      1  0.4682760000000  0.5419320000000  0.4053750000000 1.0
C      1  0.4464200000000  0.5460000000000  0.4692530000000 1.0
C      1  0.5642050000000  0.4505730000000  0.4855550000000 1.0
C      1  0.4417740000000  0.5891790000000  0.4612670000000 1.0
C      1  0.5493440000000  0.4792680000000  0.5858590000000 1.0
C      1  0.4578380000000  0.5117840000000  0.4363560000000 1.0
C      1  0.5256380000000  0.4755910000000  0.4052910000000 1.0
C      1  0.5745610000000  0.5735630000000  0.4991140000000 1.0
C      1  0.4701380000000  0.5258810000000  0.6096160000000 1.0
C      1  0.4508490000000  0.5020290000000  0.5045720000000 1.0
C      1  0.6069620000000  0.4594980000000  0.5438740000000 1.0
C      1  0.5561040000000  0.5618370000000  0.5632350000000 1.0
C      1  0.4371290000000  0.6009270000000  0.5097380000000 1.0
C      1  0.4501110000000  0.5043220000000  0.6030270000000 1.0
C      1  0.4959700000000  0.4287150000000  0.5750660000000 1.0
C      1  0.5462670000000  0.4169340000000  0.4534590000000 1.0
C      1  0.5003160000000  0.4079420000000  0.4498120000000 1.0
C      1  0.4909340000000  0.4083430000000  0.4187670000000 1.0
C      1  0.4613190000000  0.5519250000000  0.5833850000000 1.0
C      1  0.5972140000000  0.4407110000000  0.5226040000000 1.0
C      1  0.5480870000000  0.4388320000000  0.5102140000000 1.0
C      1  0.4702120000000  0.4384710000000  0.4589160000000 1.0
C      1  0.4783390000000  0.5715320000000  0.5677310000000 1.0
C      1  0.5216610000000  0.4293110000000  0.4424510000000 1.0
C      1  0.5394680000000  0.4777770000000  0.4518030000000 1.0
C      1  0.4859770000000  0.4366490000000  0.4866430000000 1.0
C      1  0.4249270000000  0.4253150000000  0.4690150000000 1.0
C      1  0.5174680000000  0.5285430000000  0.4929740000000 1.0
C      1  0.5046530000000  0.5180530000000  0.5185670000000 1.0
C      1  0.4667280000000  0.4251140000000  0.4170250000000 1.0
C      1  0.4594530000000  0.4212200000000  0.5415670000000 1.0
C      1  0.4442180000000  0.5902380000000  0.5373510000000 1.0
C      1  0.5148340000000  0.4595490000000  0.4525800000000 1.0
C      1  0.4985020000000  0.4688880000000  0.3951340000000 1.0
C      1  0.4263630000000  0.4775360000000  0.5395070000000 1.0
C      1  0.4869050000000  0.5852160000000  0.4176780000000 1.0
C      1  0.4522980000000  0.5629820000000  0.4957520000000 1.0
C      1  0.5162460000000  0.5348630000000  0.5644650000000 1.0
C      1  0.4662280000000  0.5276740000000  0.5654130000000 1.0
C      1  0.6025910000000  0.4870030000000  0.5337900000000 1.0
C      1  0.5075110000000  0.4792640000000  0.4971450000000 1.0
C      1  0.5469340000000  0.5564880000000  0.5201100000000 1.0
C      1  0.4409320000000  0.4283150000000  0.5195250000000 1.0
C      1  0.4942560000000  0.5140680000000  0.5708080000000 1.0
C      1  0.4069730000000  0.5579230000000  0.4848090000000 1.0
C      1  0.4044070000000  0.5203170000000  0.5500850000000 1.0
C      1  0.4788800000000  0.4019740000000  0.5364740000000 1.0
C      1  0.5438060000000  0.5075810000000  0.5918700000000 1.0
C      1  0.4620210000000  0.4668630000000  0.4533630000000 1.0
C      1  0.5842680000000  0.4850440000000  0.5105480000000 1.0
C      1  0.4511480000000  0.4719400000000  0.5038750000000 1.0
C      1  0.4115460000000  0.5117840000000  0.4599310000000 1.0
C      1  0.4435460000000  0.5094080000000  0.5746850000000 1.0
C      1  0.5692430000000  0.5558700000000  0.5393020000000 1.0
C      1  0.4173710000000  0.4542370000000  0.4738640000000 1.0
C      1  0.5065560000000  0.6035890000000  0.4882210000000 1.0
C      1  0.5226620000000  0.5454890000000  0.6124660000000 1.0
C      1  0.4430550000000  0.4689200000000  0.4762890000000 1.0
C      1  0.4789170000000  0.4920880000000  0.3896710000000 1.0
C      1  0.5174570000000  0.5257480000000  0.3996900000000 1.0
C      1  0.5178510000000  0.4574090000000  0.5446170000000 1.0
C      1  0.5854070000000  0.5424550000000  0.4614620000000 1.0
C      1  0.5348710000000  0.5813470000000  0.5585640000000 1.0
C      1  0.5999240000000  0.5187710000000  0.4490830000000 1.0
C      1  0.4446210000000  0.5741030000000  0.4353070000000 1.0
C      1  0.5362580000000  0.5032400000000  0.4039680000000 1.0
C      1  0.5468750000000  0.4616750000000  0.5358550000000 1.0
C      1  0.5904970000000  0.5349360000000  0.5357970000000 1.0
C      1  0.5244070000000  0.5708830000000  0.4397010000000 1.0
C      1  0.5602940000000  0.4595470000000  0.4369280000000 1.0
C      1  0.5288720000000  0.5505060000000  0.4162900000000 1.0
C      1  0.5221190000000  0.5175260000000  0.6100870000000 1.0
C      1  0.5481040000000  0.5748230000000  0.4562410000000 1.0
C      1  0.5119980000000  0.3899400000000  0.4721120000000 1.0
C      1  0.4313460000000  0.5550170000000  0.5739770000000 1.0
C      1  0.4874990000000  0.4611960000000  0.5393850000000 1.0
C      1  0.4729570000000  0.4418850000000  0.5595550000000 1.0
C      1  0.4633550000000  0.6077990000000  0.4676040000000 1.0
C      1  0.4520340000000  0.3904110000000  0.4826270000000 1.0
C      1  0.5357130000000  0.4888460000000  0.4987630000000 1.0
C      1  0.4915350000000  0.5985750000000  0.4637800000000 1.0
C      1  0.4892070000000  0.5084820000000  0.4312560000000 1.0
C      1  0.5175990000000  0.4256060000000  0.4126330000000 1.0
C      1  0.4482840000000  0.4836490000000  0.5586230000000 1.0
C      1  0.4167170000000  0.4900550000000  0.4376200000000 1.0
C      1  0.4593800000000  0.6154990000000  0.4965080000000 1.0
C      1  0.5118250000000  0.4526030000000  0.4818950000000 1.0
C      1  0.5447790000000  0.5255110000000  0.5676140000000 1.0
C      1  0.5355120000000  0.4058420000000  0.4784150000000 1.0
C      1  0.4651740000000  0.5362970000000  0.5361230000000 1.0
C      1  0.5445650000000  0.4550960000000  0.5994360000000 1.0
C      1  0.5188650000000  0.5825020000000  0.5816010000000 1.0
C      1  0.5103060000000  0.5288660000000  0.4427880000000 1.0
C      1  0.4984940000000  0.4360910000000  0.6017660000000 1.0
C      1  0.5141440000000  0.5551190000000  0.5875310000000 1.0
C      1  0.5588940000000  0.5128430000000  0.5422240000000 1.0
C      1  0.5895190000000  0.4566690000000  0.5682030000000 1.0
C      1  0.4198590000000  0.5273470000000  0.5719260000000 1.0
C      1  0.4531980000000  0.4605050000000  0.5767770000000 1.0
C      1  0.4752630000000  0.4525410000000  0.4090290000000 1.0
C      1  0.4086710000000  0.4994010000000  0.5308950000000 1.0
C      1  0.4719490000000  0.3769460000000  0.4963840000000 1.0
C      1  0.4828850000000  0.5691520000000  0.5032580000000 1.0
C      1  0.4367110000000  0.4127790000000  0.4938640000000 1.0
C      1  0.5234160000000  0.4277410000000  0.4959600000000 1.0
C      1  0.5594180000000  0.5204670000000  0.4804310000000 1.0
C      1  0.4462390000000  0.4842250000000  0.4315170000000 1.0
C      1  0.4885710000000  0.5458490000000  0.4567390000000 1.0
C      1  0.4036330000000  0.4567570000000  0.5002970000000 1.0
C      1  0.4227790000000  0.5856330000000  0.4853080000000 1.0
C      1  0.4941070000000  0.6019470000000  0.5351170000000 1.0
C      1  0.5867150000000  0.4743100000000  0.4368870000000 1.0
C      1  0.4609150000000  0.4757050000000  0.6023500000000 1.0
C      1  0.4883210000000  0.5181990000000  0.4026920000000 1.0
C      1  0.4230530000000  0.4526630000000  0.5225670000000 1.0
C      1  0.4776030000000  0.5171280000000  0.4809110000000 1.0
C      1  0.4394410000000  0.5499600000000  0.5210240000000 1.0
C      1  0.5781970000000  0.4220220000000  0.5382420000000 1.0
C      1  0.5679910000000  0.5577670000000  0.4436990000000 1.0
C      1  0.6022400000000  0.4722460000000  0.4626540000000 1.0
C      1  0.4873450000000  0.5581200000000  0.5329690000000 1.0
C      1  0.5221550000000  0.4313420000000  0.5596620000000 1.0
END
