TITL C-3577088-510-392 -8.45195687107776e-07 125000 -783.375484684815 0 0 128 (C1) n - 1
REM
REM in /home/bkarasulu/work/CARBON/AIRSS/Generating-Clusters/EDIP-Nigel-Params/with-SteepDescent/Higher-Symm/SD-CG/HFTN-CG
REM
REM
REM
REM
REM
REM ./C.cell (12c818d87b63d06a65506943cc24bca4)
REM
REM compiler GCC version 9.2.1 20190827 (Red Hat 9.2.1-1)
REM options -cpp -mtune=generic -march=x86-64 -g -O0 -fpre-include=/usr/include/finclude/math-vector-fortran.h
REM seed -231111832 -1888293575 814276175 -1897199525 1695609603 -2133538932 -375441550 1584289764 793719860 -1091372519 -1081442218 -1358542834 1913979679 -422147579 -1497365444 -2140285148 1969851929 -1702014236 1723474928 -1510102251 790961634 -2016708493 335049952 204541036 1200062404 -793578901 -69345119 -537342832 661537503 -1496808248 1271520695 -1584394724 -203520662
REM
CELL 1.54180   50.00000   50.00000   50.00000   90.00000   90.00000   90.00000
LATT -1
SFAC C  
C      1  0.4556250000000  0.5229040000000  0.4077650000000 1.0
C      1  0.5206620000000  0.5421870000000  0.4149900000000 1.0
C      1  0.5375900000000  0.4798450000000  0.4138500000000 1.0
C      1  0.4804260000000  0.4525140000000  0.4173920000000 1.0
C      1  0.4563030000000  0.4744440000000  0.5922780000000 1.0
C      1  0.5159590000000  0.4603580000000  0.5868280000000 1.0
C      1  0.5342740000000  0.5187150000000  0.5862580000000 1.0
C      1  0.4794390000000  0.5500180000000  0.5898980000000 1.0
C      1  0.5857800000000  0.4637820000000  0.4957720000000 1.0
C      1  0.4712140000000  0.4331660000000  0.4921910000000 1.0
C      1  0.4207090000000  0.5330430000000  0.4979030000000 1.0
C      1  0.5382970000000  0.5849780000000  0.4949720000000 1.0
C      1  0.5761240000000  0.5307500000000  0.5040650000000 1.0
C      1  0.4710690000000  0.5829840000000  0.5035950000000 1.0
C      1  0.4108670000000  0.4573870000000  0.5156510000000 1.0
C      1  0.5377170000000  0.4190380000000  0.5043510000000 1.0
C      1  0.5389230000000  0.4422840000000  0.5767730000000 1.0
C      1  0.4424010000000  0.4505480000000  0.5779250000000 1.0
C      1  0.4559610000000  0.5619700000000  0.5773900000000 1.0
C      1  0.5533340000000  0.5404790000000  0.5745680000000 1.0
C      1  0.5448420000000  0.5582080000000  0.4234540000000 1.0
C      1  0.4404090000000  0.5451640000000  0.4226340000000 1.0
C      1  0.4571880000000  0.4423680000000  0.4321360000000 1.0
C      1  0.5587550000000  0.4592520000000  0.4236760000000 1.0
C      1  0.5451430000000  0.4930330000000  0.5834390000000 1.0
C      1  0.4905410000000  0.4485170000000  0.5819490000000 1.0
C      1  0.4476070000000  0.5009760000000  0.5856490000000 1.0
C      1  0.5039410000000  0.5482500000000  0.5755050000000 1.0
C      1  0.5471110000000  0.5068280000000  0.4167740000000 1.0
C      1  0.4959730000000  0.5572600000000  0.4163810000000 1.0
C      1  0.4478750000000  0.4951650000000  0.4094830000000 1.0
C      1  0.5041630000000  0.4383810000000  0.4181240000000 1.0
C      1  0.5623180000000  0.4545220000000  0.5618070000000 1.0
C      1  0.4569910000000  0.4303230000000  0.5595340000000 1.0
C      1  0.4322940000000  0.5377470000000  0.5595000000000 1.0
C      1  0.5440990000000  0.5648090000000  0.5589200000000 1.0
C      1  0.5634330000000  0.5436410000000  0.4419070000000 1.0
C      1  0.4542280000000  0.5689110000000  0.4382690000000 1.0
C      1  0.4368630000000  0.4598190000000  0.4451960000000 1.0
C      1  0.5486650000000  0.4361950000000  0.4399200000000 1.0
C      1  0.4581690000000  0.5809130000000  0.5550280000000 1.0
C      1  0.5762200000000  0.5324050000000  0.5589570000000 1.0
C      1  0.5309360000000  0.4211720000000  0.5589350000000 1.0
C      1  0.4192490000000  0.4578240000000  0.5632000000000 1.0
C      1  0.4606590000000  0.4177030000000  0.4449850000000 1.0
C      1  0.5821740000000  0.4678790000000  0.4385250000000 1.0
C      1  0.5395990000000  0.5822210000000  0.4382530000000 1.0
C      1  0.4185280000000  0.5380720000000  0.4403070000000 1.0
C      1  0.5421700000000  0.5902240000000  0.4654170000000 1.0
C      1  0.5918060000000  0.4624730000000  0.4652320000000 1.0
C      1  0.4780520000000  0.4231320000000  0.4662490000000 1.0
C      1  0.4140180000000  0.5387850000000  0.4687120000000 1.0
C      1  0.5391300000000  0.4119850000000  0.5333880000000 1.0
C      1  0.5857740000000  0.5350330000000  0.5321660000000 1.0
C      1  0.4776190000000  0.5806850000000  0.5328630000000 1.0
C      1  0.4153770000000  0.4714660000000  0.5391870000000 1.0
C      1  0.4804250000000  0.5245350000000  0.3940230000000 1.0
C      1  0.5077820000000  0.5180480000000  0.3996220000000 1.0
C      1  0.5094090000000  0.4886370000000  0.4029930000000 1.0
C      1  0.4809230000000  0.4774680000000  0.4031340000000 1.0
C      1  0.4776170000000  0.4751950000000  0.6119340000000 1.0
C      1  0.5051400000000  0.4822250000000  0.6063550000000 1.0
C      1  0.5073110000000  0.5111320000000  0.5999180000000 1.0
C      1  0.4808870000000  0.5241630000000  0.6029460000000 1.0
C      1  0.4873240000000  0.5253780000000  0.4376970000000 1.0
C      1  0.5175640000000  0.5075270000000  0.4416290000000 1.0
C      1  0.5084250000000  0.4734670000000  0.4446760000000 1.0
C      1  0.4784120000000  0.4910940000000  0.4397910000000 1.0
C      1  0.4864340000000  0.4812360000000  0.5614990000000 1.0
C      1  0.5171010000000  0.4913660000000  0.5565170000000 1.0
C      1  0.5141770000000  0.5234440000000  0.5480680000000 1.0
C      1  0.4790860000000  0.5128510000000  0.5659510000000 1.0
C      1  0.5531180000000  0.4480070000000  0.5341780000000 1.0
C      1  0.4584220000000  0.4455160000000  0.5327560000000 1.0
C      1  0.4479760000000  0.5484430000000  0.5372670000000 1.0
C      1  0.5528010000000  0.5557130000000  0.5317610000000 1.0
C      1  0.5493490000000  0.5522540000000  0.4672200000000 1.0
C      1  0.4489850000000  0.5548590000000  0.4651200000000 1.0
C      1  0.4426230000000  0.4629700000000  0.4757000000000 1.0
C      1  0.5569810000000  0.4469370000000  0.4666150000000 1.0
C      1  0.5375870000000  0.4730550000000  0.4652630000000 1.0
C      1  0.4762520000000  0.4670040000000  0.4639540000000 1.0
C      1  0.4644200000000  0.5271290000000  0.4622360000000 1.0
C      1  0.5189730000000  0.5388430000000  0.4639000000000 1.0
C      1  0.5402340000000  0.5242010000000  0.5296090000000 1.0
C      1  0.4749270000000  0.5318750000000  0.5353960000000 1.0
C      1  0.4647230000000  0.4761390000000  0.5365150000000 1.0
C      1  0.5251490000000  0.4671920000000  0.5350630000000 1.0
C      1  0.5149240000000  0.5667740000000  0.5580470000000 1.0
C      1  0.5604320000000  0.4836810000000  0.5615980000000 1.0
C      1  0.4879260000000  0.4314570000000  0.5597550000000 1.0
C      1  0.4352800000000  0.5095570000000  0.5617010000000 1.0
C      1  0.5198990000000  0.4313200000000  0.4398090000000 1.0
C      1  0.5609820000000  0.5143520000000  0.4404560000000 1.0
C      1  0.4841270000000  0.5694040000000  0.4390370000000 1.0
C      1  0.4349650000000  0.4877200000000  0.4345160000000 1.0
C      1  0.5192360000000  0.4666710000000  0.4883790000000 1.0
C      1  0.4925580000000  0.4809750000000  0.4860690000000 1.0
C      1  0.4804620000000  0.5236980000000  0.4867910000000 1.0
C      1  0.5086310000000  0.5160120000000  0.4828630000000 1.0
C      1  0.5248510000000  0.5100770000000  0.5075590000000 1.0
C      1  0.4676390000000  0.5140280000000  0.5104750000000 1.0
C      1  0.4785530000000  0.4873120000000  0.5126340000000 1.0
C      1  0.5299640000000  0.4811700000000  0.5100460000000 1.0
C      1  0.5616010000000  0.4269100000000  0.4903980000000 1.0
C      1  0.4254070000000  0.4452910000000  0.4950100000000 1.0
C      1  0.4472620000000  0.5702170000000  0.4921570000000 1.0
C      1  0.5702070000000  0.5545330000000  0.4895190000000 1.0
C      1  0.5616140000000  0.5746490000000  0.5086900000000 1.0
C      1  0.4321410000000  0.5554360000000  0.5121460000000 1.0
C      1  0.4475790000000  0.4321100000000  0.5073080000000 1.0
C      1  0.5755460000000  0.4412340000000  0.5113890000000 1.0
C      1  0.4365320000000  0.4919560000000  0.5371420000000 1.0
C      1  0.5006340000000  0.5612310000000  0.5324760000000 1.0
C      1  0.5616190000000  0.4984740000000  0.5355030000000 1.0
C      1  0.4979580000000  0.4469660000000  0.5344570000000 1.0
C      1  0.4410690000000  0.5053460000000  0.4583720000000 1.0
C      1  0.5069910000000  0.4240790000000  0.4648420000000 1.0
C      1  0.5538720000000  0.5009380000000  0.4660860000000 1.0
C      1  0.4950450000000  0.5593110000000  0.4644790000000 1.0
C      1  0.5153340000000  0.5695890000000  0.5060050000000 1.0
C      1  0.5738000000000  0.4866870000000  0.5092830000000 1.0
C      1  0.4938730000000  0.4322920000000  0.5093330000000 1.0
C      1  0.4367860000000  0.5082120000000  0.5065720000000 1.0
C      1  0.5161010000000  0.4350790000000  0.4915000000000 1.0
C      1  0.5738380000000  0.5061240000000  0.4884720000000 1.0
C      1  0.4951560000000  0.5777160000000  0.4873240000000 1.0
C      1  0.4344750000000  0.4907800000000  0.4824210000000 1.0
END
