TITL C-3577077-324-31 1.28828957637756e-07 125000 -156.071798476 0 0 28 (C1) n - 1
REM
REM in /home/bkarasulu/work/CARBON/AIRSS/Generating-Clusters/EDIP-Nigel-Params/with-SteepDescent/Higher-Symm/SD-CG/HFTN-CG
REM
REM
REM
REM
REM
REM ./C.cell (12c818d87b63d06a65506943cc24bca4)
REM
REM compiler GCC version 9.2.1 20190827 (Red Hat 9.2.1-1)
REM options -cpp -mtune=generic -march=x86-64 -g -O0 -fpre-include=/usr/include/finclude/math-vector-fortran.h
REM seed 1828241363 190661286 1785789560 -386537271 227687498 -2107676020 1610262677 826068356 -1911004050 -2070282083 -1425183303 -733757062 -339630703 1390313540 740444258 -150961256 -796036118 2103225746 -1250487979 1617621909 356098518 1522364871 662679118 -668555361 1118085048 669031819 -1362791516 -1337504933 -737720546 1477177920 -2043438924 2130235574 -732910315
REM
CELL 1.54180   50.00000   50.00000   50.00000   90.00000   90.00000   90.00000
LATT -1
SFAC C  
C      1  0.5217640000000  0.5299390000000  0.4648690000000 1.0
C      1  0.5213650000000  0.4730530000000  0.5355190000000 1.0
C      1  0.5204550000000  0.4739820000000  0.4696190000000 1.0
C      1  0.5223690000000  0.5300770000000  0.5370480000000 1.0
C      1  0.4711130000000  0.4743150000000  0.4639030000000 1.0
C      1  0.4731930000000  0.5309050000000  0.5321400000000 1.0
C      1  0.4733430000000  0.5318120000000  0.4603840000000 1.0
C      1  0.4722530000000  0.4744540000000  0.5304790000000 1.0
C      1  0.4662170000000  0.4479080000000  0.5356590000000 1.0
C      1  0.4494710000000  0.5316270000000  0.4744820000000 1.0
C      1  0.4694360000000  0.5583070000000  0.5335330000000 1.0
C      1  0.4691160000000  0.4468090000000  0.4608520000000 1.0
C      1  0.5529340000000  0.5330980000000  0.4866760000000 1.0
C      1  0.5511330000000  0.4583760000000  0.5161530000000 1.0
C      1  0.5504820000000  0.4585950000000  0.4877800000000 1.0
C      1  0.5535430000000  0.5334400000000  0.5150710000000 1.0
C      1  0.5233190000000  0.4490570000000  0.4833000000000 1.0
C      1  0.5314740000000  0.5515430000000  0.5205100000000 1.0
C      1  0.5306790000000  0.5512040000000  0.4818280000000 1.0
C      1  0.5245130000000  0.4482420000000  0.5217910000000 1.0
C      1  0.4970410000000  0.4878290000000  0.5348020000000 1.0
C      1  0.4965830000000  0.5168030000000  0.4674460000000 1.0
C      1  0.4977100000000  0.5164080000000  0.5331640000000 1.0
C      1  0.4960320000000  0.4881430000000  0.4656190000000 1.0
C      1  0.4738640000000  0.4423190000000  0.5096530000000 1.0
C      1  0.4571600000000  0.5562200000000  0.4848450000000 1.0
C      1  0.4750770000000  0.5594590000000  0.5065080000000 1.0
C      1  0.4583610000000  0.4460770000000  0.4863660000000 1.0
END
