TITL C-3577076-40-298 -1.07938675011175e-06 125000 -567.532837713438 0 0 93 (C1) n - 1
REM
REM in /home/bkarasulu/work/CARBON/AIRSS/Generating-Clusters/EDIP-Nigel-Params/with-SteepDescent/Higher-Symm/SD-CG/HFTN-CG
REM
REM
REM
REM
REM
REM ./C.cell (12c818d87b63d06a65506943cc24bca4)
REM
REM compiler GCC version 9.2.1 20190827 (Red Hat 9.2.1-1)
REM options -cpp -mtune=generic -march=x86-64 -g -O0 -fpre-include=/usr/include/finclude/math-vector-fortran.h
REM seed -1315641942 479945952 1596284648 469093911 421757242 1645675084 -762206027 -2017028425 1670834413 -786582872 511347845 1943377036 668113024 -1558218937 138393258 -960093486 -1307613691 -1143960028 756940724 2073436252 570093580 -10123219 2015747597 1377700673 -261941754 -421511702 -1840141845 -1703788752 -1821447109 -1386794957 986698207 1370455490 -197659701
REM
CELL 1.54180   50.00000   50.00000   50.00000   90.00000   90.00000   90.00000
LATT -1
SFAC C  
C      1  0.4875180000000  0.4501540000000  0.4927040000000 1.0
C      1  0.5487410000000  0.5142020000000  0.4925290000000 1.0
C      1  0.4632100000000  0.5336440000000  0.4914640000000 1.0
C      1  0.5556070000000  0.4664950000000  0.5472070000000 1.0
C      1  0.5015390000000  0.5657450000000  0.5476910000000 1.0
C      1  0.4426190000000  0.4690210000000  0.5474050000000 1.0
C      1  0.5117680000000  0.5209220000000  0.4449130000000 1.0
C      1  0.4752140000000  0.4993380000000  0.4443770000000 1.0
C      1  0.5124900000000  0.4783440000000  0.4447680000000 1.0
C      1  0.5016130000000  0.5713800000000  0.4511960000000 1.0
C      1  0.4319820000000  0.4611320000000  0.4445940000000 1.0
C      1  0.5671520000000  0.4599400000000  0.4449260000000 1.0
C      1  0.5411170000000  0.4123920000000  0.4647540000000 1.0
C      1  0.5551250000000  0.5794730000000  0.4649530000000 1.0
C      1  0.4035040000000  0.5075060000000  0.4639640000000 1.0
C      1  0.5717290000000  0.4479350000000  0.4720260000000 1.0
C      1  0.5097900000000  0.5891300000000  0.4732840000000 1.0
C      1  0.4190700000000  0.4633650000000  0.4716280000000 1.0
C      1  0.5190820000000  0.5494880000000  0.5643510000000 1.0
C      1  0.4485330000000  0.4924330000000  0.5636950000000 1.0
C      1  0.5329110000000  0.4596680000000  0.5641320000000 1.0
C      1  0.4737310000000  0.4752730000000  0.4241430000000 1.0
C      1  0.5341180000000  0.4889590000000  0.4245130000000 1.0
C      1  0.4916570000000  0.5346390000000  0.4239430000000 1.0
C      1  0.4439760000000  0.4831780000000  0.4273780000000 1.0
C      1  0.5419630000000  0.4591950000000  0.4278310000000 1.0
C      1  0.5139510000000  0.5561310000000  0.4283090000000 1.0
C      1  0.4836860000000  0.4813430000000  0.4924050000000 1.0
C      1  0.5231970000000  0.4955440000000  0.4924970000000 1.0
C      1  0.4918550000000  0.5224130000000  0.4922550000000 1.0
C      1  0.5015620000000  0.5295190000000  0.5214910000000 1.0
C      1  0.4734300000000  0.4876420000000  0.5212830000000 1.0
C      1  0.5236280000000  0.4841000000000  0.5217150000000 1.0
C      1  0.4536450000000  0.4419900000000  0.4518020000000 1.0
C      1  0.5728820000000  0.4882600000000  0.4520370000000 1.0
C      1  0.4746650000000  0.5623590000000  0.4596950000000 1.0
C      1  0.4796100000000  0.4500990000000  0.4381680000000 1.0
C      1  0.5527980000000  0.5066900000000  0.4386820000000 1.0
C      1  0.4664790000000  0.5418790000000  0.4379020000000 1.0
C      1  0.4601680000000  0.4892670000000  0.5890310000000 1.0
C      1  0.5297920000000  0.4715420000000  0.5893500000000 1.0
C      1  0.5102110000000  0.5404750000000  0.5894280000000 1.0
C      1  0.5158390000000  0.4471520000000  0.4832780000000 1.0
C      1  0.5372960000000  0.5404000000000  0.4832560000000 1.0
C      1  0.4463310000000  0.5116590000000  0.4826090000000 1.0
C      1  0.4924830000000  0.4431250000000  0.5216680000000 1.0
C      1  0.5527360000000  0.5223990000000  0.5214580000000 1.0
C      1  0.4539350000000  0.5368740000000  0.5195870000000 1.0
C      1  0.4589830000000  0.4244970000000  0.5011500000000 1.0
C      1  0.5853560000000  0.5024520000000  0.5008020000000 1.0
C      1  0.4651980000000  0.5821080000000  0.5093120000000 1.0
C      1  0.4287140000000  0.4985740000000  0.5069840000000 1.0
C      1  0.5365320000000  0.4393520000000  0.5073110000000 1.0
C      1  0.5341300000000  0.5620930000000  0.5071810000000 1.0
C      1  0.5227100000000  0.4984530000000  0.5831060000000 1.0
C      1  0.4905230000000  0.5208560000000  0.5825740000000 1.0
C      1  0.4871090000000  0.4818590000000  0.5829830000000 1.0
C      1  0.4278420000000  0.5210780000000  0.4615720000000 1.0
C      1  0.5171470000000  0.4265140000000  0.4621850000000 1.0
C      1  0.5546590000000  0.5516540000000  0.4623120000000 1.0
C      1  0.5468240000000  0.5488820000000  0.5569220000000 1.0
C      1  0.4349920000000  0.5167230000000  0.5561770000000 1.0
C      1  0.5186360000000  0.4357530000000  0.5570740000000 1.0
C      1  0.4560100000000  0.5650600000000  0.5296060000000 1.0
C      1  0.4593400000000  0.4258900000000  0.5305340000000 1.0
C      1  0.5844060000000  0.5024630000000  0.5301540000000 1.0
C      1  0.5473160000000  0.4652260000000  0.5190600000000 1.0
C      1  0.5062850000000  0.5592350000000  0.5192080000000 1.0
C      1  0.4454110000000  0.4763250000000  0.5191110000000 1.0
C      1  0.4957540000000  0.4705170000000  0.5342460000000 1.0
C      1  0.5274850000000  0.5119260000000  0.5344860000000 1.0
C      1  0.4751040000000  0.5199620000000  0.5338940000000 1.0
C      1  0.5417900000000  0.5115540000000  0.5629310000000 1.0
C      1  0.4696960000000  0.5313090000000  0.5626570000000 1.0
C      1  0.4887160000000  0.4586390000000  0.5629460000000 1.0
C      1  0.5106780000000  0.5331160000000  0.4722930000000 1.0
C      1  0.4659630000000  0.4925260000000  0.4720260000000 1.0
C      1  0.5224800000000  0.4739070000000  0.4725630000000 1.0
C      1  0.4086180000000  0.4880160000000  0.4839490000000 1.0
C      1  0.5554510000000  0.4268180000000  0.4845320000000 1.0
C      1  0.5361940000000  0.5850210000000  0.4854060000000 1.0
C      1  0.4467490000000  0.4397790000000  0.4805390000000 1.0
C      1  0.5779660000000  0.4837660000000  0.4807670000000 1.0
C      1  0.4733740000000  0.5832840000000  0.4827100000000 1.0
C      1  0.5171790000000  0.4269170000000  0.5285870000000 1.0
C      1  0.5548260000000  0.5519300000000  0.5283080000000 1.0
C      1  0.4282980000000  0.5223900000000  0.5276520000000 1.0
C      1  0.5095610000000  0.4403670000000  0.4374290000000 1.0
C      1  0.5464040000000  0.5374600000000  0.4377150000000 1.0
C      1  0.4437640000000  0.5207560000000  0.4369900000000 1.0
C      1  0.4609260000000  0.4461950000000  0.5527630000000 1.0
C      1  0.5662650000000  0.4937120000000  0.5525120000000 1.0
C      1  0.4726980000000  0.5612730000000  0.5545060000000 1.0
END
