TITL C-3577089-586-594 6.3074863113495e-07 125000 -73.4767429689145 0 0 13 (C1) n - 1
REM
REM in /home/bkarasulu/work/CARBON/AIRSS/Generating-Clusters/EDIP-Nigel-Params/with-SteepDescent/Higher-Symm/SD-CG/HFTN-CG
REM
REM
REM
REM
REM
REM ./C.cell (12c818d87b63d06a65506943cc24bca4)
REM
REM compiler GCC version 9.2.1 20190827 (Red Hat 9.2.1-1)
REM options -cpp -mtune=generic -march=x86-64 -g -O0 -fpre-include=/usr/include/finclude/math-vector-fortran.h
REM seed -1279073145 -1473152347 -693732136 -1286748100 -190507459 -1688629446 -1354139698 -309716725 176220381 -2051768770 -1613606589 -1447267003 1483050218 282222205 2063942706 -1842902304 -1392631669 -2049942329 482647882 -1456012070 9570736 2090295005 1383672556 -530389950 -1990523334 185937540 883535705 1950277882 -1498880748 -820242570 257788459 -424995680 156077689
REM
CELL 1.54180   50.00000   50.00000   50.00000   90.00000   90.00000   90.00000
LATT -1
SFAC C  
C      1  0.5066190000000  0.5332570000000  0.5121580000000 1.0
C      1  0.4773450000000  0.5198420000000  0.5082760000000 1.0
C      1  0.4770130000000  0.4927340000000  0.5223120000000 1.0
C      1  0.4930280000000  0.4699210000000  0.5082060000000 1.0
C      1  0.5225310000000  0.4885540000000  0.5248690000000 1.0
C      1  0.5293400000000  0.5127340000000  0.5100200000000 1.0
C      1  0.5200770000000  0.4833680000000  0.4717440000000 1.0
C      1  0.5260720000000  0.5097630000000  0.4797760000000 1.0
C      1  0.5020560000000  0.5296360000000  0.4796750000000 1.0
C      1  0.4739310000000  0.5159080000000  0.4772950000000 1.0
C      1  0.4738980000000  0.4892500000000  0.4688820000000 1.0
C      1  0.4948170000000  0.4734660000000  0.4787980000000 1.0
C      1  0.4992060000000  0.4903970000000  0.5409420000000 1.0
END
