TITL C-3578197-9521-764 4.09796057422476e-05 125000 -459.340444864942 0 0 76 (C1) n - 1
REM
REM in /home/bkarasulu/work/CARBON/AIRSS/Generating-Clusters/EDIP-Nigel-Params/with-SteepDescent/Higher-Symm/SD-CG/HFTN-CG
REM
REM
REM
REM
REM
REM ./C.cell (12c818d87b63d06a65506943cc24bca4)
REM
REM compiler GCC version 9.2.1 20190827 (Red Hat 9.2.1-1)
REM options -cpp -mtune=generic -march=x86-64 -g -O0 -fpre-include=/usr/include/finclude/math-vector-fortran.h
REM seed 1109861689 93000831 184892836 -1382060274 -1858012559 -1502777899 -1003882393 -422767191 -964687579 -1258276687 561893993 1553650311 -726987720 1457518258 1683256368 -1606465112 570571034 -1741741294 947769609 1365985654 -1333242464 1916555848 -155608445 -243295119 2017342219 -1934849502 -1079823396 826968763 -1555825990 -476979274 596165479 1912994110 427256637
REM
CELL 1.54180   50.00000   50.00000   50.00000   90.00000   90.00000   90.00000
LATT -1
SFAC C  
C      1  0.4560020000000  0.5798160000000  0.5024040000000 1.0
C      1  0.5292970000000  0.5735830000000  0.5230230000000 1.0
C      1  0.5120900000000  0.5773470000000  0.4622010000000 1.0
C      1  0.5013750000000  0.5247580000000  0.4362760000000 1.0
C      1  0.4332510000000  0.5240740000000  0.5333710000000 1.0
C      1  0.5600370000000  0.5226030000000  0.5373090000000 1.0
C      1  0.5196270000000  0.5922990000000  0.5052180000000 1.0
C      1  0.5034110000000  0.5948470000000  0.4823040000000 1.0
C      1  0.4770410000000  0.5904490000000  0.4896400000000 1.0
C      1  0.5704630000000  0.4945290000000  0.5366850000000 1.0
C      1  0.4967570000000  0.4976120000000  0.4264470000000 1.0
C      1  0.4390110000000  0.4950830000000  0.5363110000000 1.0
C      1  0.5040820000000  0.4723030000000  0.4395370000000 1.0
C      1  0.4304680000000  0.4665220000000  0.5321080000000 1.0
C      1  0.5545740000000  0.4695590000000  0.5348130000000 1.0
C      1  0.4891430000000  0.4399790000000  0.5514760000000 1.0
C      1  0.5562970000000  0.4377700000000  0.4801490000000 1.0
C      1  0.4576290000000  0.4408640000000  0.4670450000000 1.0
C      1  0.5149430000000  0.4965530000000  0.4749040000000 1.0
C      1  0.4689700000000  0.4975280000000  0.5038760000000 1.0
C      1  0.5145100000000  0.4979950000000  0.5252060000000 1.0
C      1  0.5293950000000  0.4477020000000  0.4706540000000 1.0
C      1  0.4606280000000  0.4474380000000  0.4962900000000 1.0
C      1  0.5124020000000  0.4480130000000  0.5343250000000 1.0
C      1  0.4772260000000  0.5402080000000  0.4803800000000 1.0
C      1  0.4903240000000  0.5428850000000  0.5312960000000 1.0
C      1  0.5328600000000  0.5425260000000  0.4917650000000 1.0
C      1  0.4497450000000  0.4928890000000  0.5623020000000 1.0
C      1  0.5867290000000  0.4908190000000  0.5128130000000 1.0
C      1  0.4684300000000  0.4942160000000  0.4249200000000 1.0
C      1  0.5637300000000  0.5435890000000  0.4935660000000 1.0
C      1  0.4626580000000  0.5458990000000  0.4539160000000 1.0
C      1  0.4749200000000  0.5442580000000  0.5576070000000 1.0
C      1  0.4325530000000  0.4602980000000  0.5036080000000 1.0
C      1  0.5328320000000  0.4623150000000  0.5513130000000 1.0
C      1  0.5305910000000  0.4633230000000  0.4446940000000 1.0
C      1  0.4692790000000  0.4592290000000  0.5619320000000 1.0
C      1  0.5768250000000  0.4579940000000  0.4942980000000 1.0
C      1  0.4572770000000  0.4615970000000  0.4429570000000 1.0
C      1  0.5455140000000  0.5128230000000  0.4566600000000 1.0
C      1  0.4338560000000  0.5153350000000  0.4844640000000 1.0
C      1  0.5181150000000  0.5139470000000  0.5661930000000 1.0
C      1  0.4824890000000  0.5077940000000  0.4778490000000 1.0
C      1  0.4865440000000  0.5100130000000  0.5283720000000 1.0
C      1  0.5305560000000  0.5108720000000  0.4983860000000 1.0
C      1  0.5732050000000  0.5402240000000  0.5197970000000 1.0
C      1  0.4807480000000  0.5436070000000  0.4323630000000 1.0
C      1  0.4474200000000  0.5399130000000  0.5522810000000 1.0
C      1  0.5679600000000  0.5195190000000  0.4761790000000 1.0
C      1  0.4435910000000  0.5222520000000  0.4566160000000 1.0
C      1  0.4884430000000  0.5213220000000  0.5727000000000 1.0
C      1  0.5055500000000  0.4287170000000  0.4777030000000 1.0
C      1  0.4805660000000  0.4259580000000  0.5076120000000 1.0
C      1  0.5196090000000  0.4263710000000  0.5137300000000 1.0
C      1  0.4330190000000  0.4875340000000  0.4927960000000 1.0
C      1  0.5208530000000  0.4858290000000  0.5618790000000 1.0
C      1  0.5456720000000  0.4865050000000  0.4461570000000 1.0
C      1  0.5060530000000  0.4700280000000  0.5135270000000 1.0
C      1  0.5200600000000  0.4695020000000  0.4876260000000 1.0
C      1  0.4785280000000  0.4702950000000  0.5035280000000 1.0
C      1  0.5675140000000  0.4473690000000  0.5215460000000 1.0
C      1  0.4853710000000  0.4510000000000  0.4346120000000 1.0
C      1  0.4455720000000  0.4472700000000  0.5483830000000 1.0
C      1  0.5495650000000  0.4259970000000  0.5077660000000 1.0
C      1  0.4837640000000  0.4291730000000  0.4566300000000 1.0
C      1  0.4717990000000  0.4236480000000  0.5354450000000 1.0
C      1  0.4617880000000  0.4984320000000  0.4541250000000 1.0
C      1  0.4782760000000  0.4971060000000  0.5570070000000 1.0
C      1  0.5652610000000  0.4950180000000  0.4927170000000 1.0
C      1  0.4347130000000  0.5355220000000  0.5059720000000 1.0
C      1  0.5336290000000  0.5303990000000  0.5480890000000 1.0
C      1  0.5279000000000  0.5334610000000  0.4442930000000 1.0
C      1  0.4584000000000  0.5520160000000  0.5022980000000 1.0
C      1  0.5183320000000  0.5533390000000  0.5396930000000 1.0
C      1  0.5284760000000  0.5546050000000  0.4638490000000 1.0
C      1  0.5019800000000  0.5548080000000  0.4991470000000 1.0
END
