TITL C-3578201-9217-138 -5.14668022667662e-06 125000 -461.331187878538 0 0 77 (C1) n - 1
REM
REM in /home/bkarasulu/work/CARBON/AIRSS/Generating-Clusters/EDIP-Nigel-Params/with-SteepDescent/Higher-Symm/SD-CG/HFTN-CG
REM
REM
REM
REM
REM
REM ./C.cell (12c818d87b63d06a65506943cc24bca4)
REM
REM compiler GCC version 9.2.1 20190827 (Red Hat 9.2.1-1)
REM options -cpp -mtune=generic -march=x86-64 -g -O0 -fpre-include=/usr/include/finclude/math-vector-fortran.h
REM seed 925356892 -1909801005 37016229 266100206 -782124198 1801324250 713545516 93661530 -2033613451 -2104773289 -287513608 -1310247236 -319437576 -532793882 -1638581610 -1591583724 1932128778 -59078171 -1252286913 -453599242 1456645585 1381366703 787112720 -10802477 1510881350 -1523340955 -1380521628 2133081281 1671582613 -1943705933 833109171 1145214992 142393321
REM
CELL 1.54180   50.00000   50.00000   50.00000   90.00000   90.00000   90.00000
LATT -1
SFAC C  
C      1  0.4610060000000  0.5664150000000  0.5100800000000 1.0
C      1  0.4318010000000  0.4583130000000  0.5080550000000 1.0
C      1  0.5361210000000  0.4320500000000  0.5114540000000 1.0
C      1  0.5693660000000  0.5451330000000  0.5080380000000 1.0
C      1  0.5032000000000  0.5719910000000  0.5207580000000 1.0
C      1  0.4306040000000  0.5003610000000  0.5208400000000 1.0
C      1  0.4946930000000  0.4228050000000  0.5235540000000 1.0
C      1  0.5714810000000  0.4967560000000  0.5218090000000 1.0
C      1  0.4624580000000  0.4660230000000  0.4792740000000 1.0
C      1  0.5353820000000  0.4620530000000  0.4794840000000 1.0
C      1  0.5415870000000  0.5338540000000  0.4798100000000 1.0
C      1  0.4629410000000  0.5368340000000  0.4783350000000 1.0
C      1  0.5294530000000  0.4908630000000  0.4895960000000 1.0
C      1  0.5104460000000  0.5305070000000  0.4844920000000 1.0
C      1  0.4721400000000  0.5085660000000  0.4857650000000 1.0
C      1  0.4919820000000  0.4692640000000  0.4839020000000 1.0
C      1  0.4923630000000  0.5379220000000  0.4336100000000 1.0
C      1  0.4609360000000  0.4935230000000  0.4344220000000 1.0
C      1  0.5047400000000  0.4645990000000  0.4347900000000 1.0
C      1  0.5355120000000  0.5081030000000  0.4370440000000 1.0
C      1  0.4885870000000  0.4319770000000  0.5506210000000 1.0
C      1  0.5646960000000  0.4903900000000  0.5504860000000 1.0
C      1  0.5095110000000  0.5661930000000  0.5493600000000 1.0
C      1  0.4365580000000  0.5071460000000  0.5496340000000 1.0
C      1  0.5260950000000  0.4814810000000  0.4468040000000 1.0
C      1  0.5198730000000  0.5318970000000  0.4416120000000 1.0
C      1  0.4699860000000  0.5205680000000  0.4434210000000 1.0
C      1  0.4764890000000  0.4699730000000  0.4427660000000 1.0
C      1  0.4506270000000  0.5417690000000  0.5202050000000 1.0
C      1  0.4559570000000  0.4490220000000  0.5193400000000 1.0
C      1  0.5480320000000  0.4564370000000  0.5210890000000 1.0
C      1  0.5442880000000  0.5515450000000  0.5196300000000 1.0
C      1  0.5814590000000  0.5269130000000  0.4910040000000 1.0
C      1  0.4707110000000  0.5744730000000  0.4844740000000 1.0
C      1  0.4203390000000  0.4729110000000  0.4878050000000 1.0
C      1  0.5291310000000  0.4240710000000  0.4851320000000 1.0
C      1  0.4300510000000  0.5253660000000  0.5057470000000 1.0
C      1  0.4718500000000  0.4272320000000  0.5065440000000 1.0
C      1  0.5694550000000  0.4719050000000  0.5061890000000 1.0
C      1  0.5276890000000  0.5714590000000  0.5051390000000 1.0
C      1  0.5404220000000  0.5570360000000  0.4594130000000 1.0
C      1  0.4392930000000  0.5370260000000  0.4595000000000 1.0
C      1  0.4592540000000  0.4414590000000  0.4618080000000 1.0
C      1  0.5576010000000  0.4637170000000  0.4591630000000 1.0
C      1  0.4604410000000  0.4460630000000  0.5489650000000 1.0
C      1  0.5512880000000  0.4623270000000  0.5501330000000 1.0
C      1  0.5383800000000  0.5539960000000  0.5492050000000 1.0
C      1  0.4474370000000  0.5365480000000  0.5494160000000 1.0
C      1  0.5012400000000  0.4609790000000  0.5575730000000 1.0
C      1  0.5362300000000  0.5033520000000  0.5572590000000 1.0
C      1  0.4979100000000  0.5372960000000  0.5564340000000 1.0
C      1  0.4653610000000  0.4967650000000  0.5567170000000 1.0
C      1  0.4799320000000  0.4961780000000  0.5304320000000 1.0
C      1  0.5026850000000  0.4750370000000  0.5312520000000 1.0
C      1  0.5237630000000  0.5071960000000  0.5303390000000 1.0
C      1  0.4969550000000  0.5227880000000  0.5300250000000 1.0
C      1  0.4712480000000  0.4690520000000  0.5675970000000 1.0
C      1  0.5279410000000  0.4722090000000  0.5676190000000 1.0
C      1  0.5281820000000  0.5306450000000  0.5679170000000 1.0
C      1  0.4710420000000  0.5284470000000  0.5678370000000 1.0
C      1  0.4926830000000  0.5670160000000  0.4672280000000 1.0
C      1  0.4206790000000  0.4925620000000  0.4674730000000 1.0
C      1  0.5064830000000  0.4305870000000  0.4685680000000 1.0
C      1  0.5760110000000  0.5078450000000  0.4705500000000 1.0
C      1  0.5103720000000  0.4377890000000  0.4414020000000 1.0
C      1  0.5609630000000  0.5143500000000  0.4475090000000 1.0
C      1  0.4871500000000  0.5649390000000  0.4394910000000 1.0
C      1  0.4346010000000  0.4889490000000  0.4431380000000 1.0
C      1  0.4221130000000  0.5207240000000  0.4765110000000 1.0
C      1  0.4782830000000  0.4249810000000  0.4770350000000 1.0
C      1  0.5758740000000  0.4787370000000  0.4767590000000 1.0
C      1  0.5209780000000  0.5726760000000  0.4753070000000 1.0
C      1  0.5450690000000  0.5090210000000  0.5087520000000 1.0
C      1  0.4930440000000  0.5438210000000  0.5076560000000 1.0
C      1  0.4589980000000  0.4917390000000  0.5081910000000 1.0
C      1  0.5053870000000  0.4554700000000  0.5085560000000 1.0
C      1  0.5018760000000  0.5011210000000  0.4783080000000 1.0
END
