TITL C-3577087-600-169 -2.94682331700545e-06 125000 -315.502492340977 0 0 53 (C1) n - 1
REM
REM in /home/bkarasulu/work/CARBON/AIRSS/Generating-Clusters/EDIP-Nigel-Params/with-SteepDescent/Higher-Symm/SD-CG/HFTN-CG
REM
REM
REM
REM
REM
REM ./C.cell (12c818d87b63d06a65506943cc24bca4)
REM
REM compiler GCC version 9.2.1 20190827 (Red Hat 9.2.1-1)
REM options -cpp -mtune=generic -march=x86-64 -g -O0 -fpre-include=/usr/include/finclude/math-vector-fortran.h
REM seed 2000278608 -723420610 1736432945 930868990 -2077265977 1195693423 1364913469 157973020 -1702557902 266748283 -1184294240 59630725 151387091 -1804465905 1850211540 -1010811809 801267426 1815287944 -1593470938 -1430115123 506493514 -1770915330 1824482583 -1546949148 812566277 -1925085911 545069529 266234733 1045795665 205446198 -745143198 -196113738 -2117647307
REM
CELL 1.54180   50.00000   50.00000   50.00000   90.00000   90.00000   90.00000
LATT -1
SFAC C  
C      1  0.4833680000000  0.5659260000000  0.5236650000000 1.0
C      1  0.5579960000000  0.4860850000000  0.5188190000000 1.0
C      1  0.4450560000000  0.4538220000000  0.5243810000000 1.0
C      1  0.4865940000000  0.5532440000000  0.4813600000000 1.0
C      1  0.5675880000000  0.4830070000000  0.4759770000000 1.0
C      1  0.4595070000000  0.4632940000000  0.4807150000000 1.0
C      1  0.5343300000000  0.4466090000000  0.5189800000000 1.0
C      1  0.4363640000000  0.5024110000000  0.5197290000000 1.0
C      1  0.5317910000000  0.5521460000000  0.5192620000000 1.0
C      1  0.5340410000000  0.4467410000000  0.4830830000000 1.0
C      1  0.4362960000000  0.5028650000000  0.4810770000000 1.0
C      1  0.5340920000000  0.5542920000000  0.4809330000000 1.0
C      1  0.4911590000000  0.4529680000000  0.4521420000000 1.0
C      1  0.4633510000000  0.5308560000000  0.4510270000000 1.0
C      1  0.5453800000000  0.5160400000000  0.4518010000000 1.0
C      1  0.4889280000000  0.4551470000000  0.5460750000000 1.0
C      1  0.4670240000000  0.5286510000000  0.5472980000000 1.0
C      1  0.5419380000000  0.5152930000000  0.5477690000000 1.0
C      1  0.4834990000000  0.5149950000000  0.4873770000000 1.0
C      1  0.5119040000000  0.5083780000000  0.4791280000000 1.0
C      1  0.4960900000000  0.4665270000000  0.4935120000000 1.0
C      1  0.4805730000000  0.5018080000000  0.5146380000000 1.0
C      1  0.5248790000000  0.5031300000000  0.5073840000000 1.0
C      1  0.5039160000000  0.4838850000000  0.5157200000000 1.0
C      1  0.4791690000000  0.4802560000000  0.4449490000000 1.0
C      1  0.4916390000000  0.5291000000000  0.4412500000000 1.0
C      1  0.5273470000000  0.4925080000000  0.4450840000000 1.0
C      1  0.4771960000000  0.4805400000000  0.5579890000000 1.0
C      1  0.4957270000000  0.5264460000000  0.5552680000000 1.0
C      1  0.5276230000000  0.4888830000000  0.5575370000000 1.0
C      1  0.5627350000000  0.5110840000000  0.4751620000000 1.0
C      1  0.4712670000000  0.4376260000000  0.4721670000000 1.0
C      1  0.4585680000000  0.5490000000000  0.4754690000000 1.0
C      1  0.5635540000000  0.5132070000000  0.5259670000000 1.0
C      1  0.4718410000000  0.4448940000000  0.5236800000000 1.0
C      1  0.4618440000000  0.5475960000000  0.5253570000000 1.0
C      1  0.4333930000000  0.4742010000000  0.4858160000000 1.0
C      1  0.5093180000000  0.5701780000000  0.4863600000000 1.0
C      1  0.5623920000000  0.4567420000000  0.4857770000000 1.0
C      1  0.4282210000000  0.4738190000000  0.5140430000000 1.0
C      1  0.5094430000000  0.5727230000000  0.5153080000000 1.0
C      1  0.5614820000000  0.4580010000000  0.5155530000000 1.0
C      1  0.5146910000000  0.4658290000000  0.4699130000000 1.0
C      1  0.4632450000000  0.5049370000000  0.4664540000000 1.0
C      1  0.5229370000000  0.5327440000000  0.4623900000000 1.0
C      1  0.5162650000000  0.4659020000000  0.5368600000000 1.0
C      1  0.4618930000000  0.5013840000000  0.5369140000000 1.0
C      1  0.5203980000000  0.5263890000000  0.5300040000000 1.0
C      1  0.4829090000000  0.4311660000000  0.4995280000000 1.0
C      1  0.4470480000000  0.5350690000000  0.5008850000000 1.0
C      1  0.5581550000000  0.5300080000000  0.5002710000000 1.0
C      1  0.5002150000000  0.4988170000000  0.5665380000000 1.0
C      1  0.4995470000000  0.5006340000000  0.4373530000000 1.0
END
