TITL C-3578197-9521-502 -7.52147655743154e-07 125000 -1050.36444443373 0 0 170 (C1) n - 1
REM
REM in /home/bkarasulu/work/CARBON/AIRSS/Generating-Clusters/EDIP-Nigel-Params/with-SteepDescent/Higher-Symm/SD-CG/HFTN-CG
REM
REM
REM
REM
REM
REM ./C.cell (12c818d87b63d06a65506943cc24bca4)
REM
REM compiler GCC version 9.2.1 20190827 (Red Hat 9.2.1-1)
REM options -cpp -mtune=generic -march=x86-64 -g -O0 -fpre-include=/usr/include/finclude/math-vector-fortran.h
REM seed 1012298047 143996083 1095012571 1532962650 1442160290 2080541178 -553394953 787089087 -1384904296 1862255697 -728603117 707644608 145117243 -1123272481 629342523 1692246225 -1269001398 1580284972 619369302 -1702797847 93378323 524323472 -1015377172 645026869 2061649636 2101759637 1190948610 818721362 1141869746 2130566921 812489561 -1216326012 1742061329
REM
CELL 1.54180   50.00000   50.00000   50.00000   90.00000   90.00000   90.00000
LATT -1
SFAC C  
C      1  0.4600230000000  0.4905490000000  0.5127580000000 1.0
C      1  0.4839890000000  0.4935260000000  0.4633690000000 1.0
C      1  0.5462810000000  0.4860340000000  0.4873900000000 1.0
C      1  0.5153330000000  0.4934400000000  0.5310980000000 1.0
C      1  0.5272550000000  0.5073640000000  0.5063280000000 1.0
C      1  0.5132540000000  0.5102580000000  0.4551490000000 1.0
C      1  0.4733010000000  0.5084270000000  0.4879920000000 1.0
C      1  0.4838490000000  0.5103380000000  0.5367260000000 1.0
C      1  0.5604830000000  0.4982480000000  0.5425450000000 1.0
C      1  0.4641500000000  0.4987910000000  0.5578600000000 1.0
C      1  0.4364390000000  0.4975530000000  0.4569880000000 1.0
C      1  0.5367730000000  0.4971720000000  0.4409420000000 1.0
C      1  0.4395560000000  0.5028640000000  0.5386390000000 1.0
C      1  0.5343200000000  0.5031160000000  0.5528230000000 1.0
C      1  0.5590820000000  0.4999030000000  0.4622250000000 1.0
C      1  0.4613810000000  0.5024610000000  0.4412820000000 1.0
C      1  0.5484610000000  0.4171810000000  0.5633250000000 1.0
C      1  0.4374050000000  0.4203870000000  0.5472120000000 1.0
C      1  0.4534820000000  0.4161410000000  0.4351210000000 1.0
C      1  0.5647700000000  0.4191350000000  0.4529610000000 1.0
C      1  0.4525620000000  0.5843620000000  0.5652350000000 1.0
C      1  0.5624700000000  0.5761140000000  0.5476420000000 1.0
C      1  0.5473830000000  0.5778930000000  0.4383430000000 1.0
C      1  0.4335520000000  0.5812980000000  0.4541990000000 1.0
C      1  0.5345020000000  0.5848640000000  0.5814510000000 1.0
C      1  0.4187900000000  0.5860760000000  0.5364430000000 1.0
C      1  0.4646900000000  0.5840430000000  0.4225810000000 1.0
C      1  0.5837200000000  0.5834440000000  0.4652880000000 1.0
C      1  0.4653560000000  0.4162040000000  0.5815080000000 1.0
C      1  0.5826900000000  0.4156500000000  0.5344660000000 1.0
C      1  0.5365050000000  0.4140710000000  0.4190800000000 1.0
C      1  0.4202140000000  0.4152150000000  0.4646060000000 1.0
C      1  0.4223380000000  0.4377910000000  0.5298030000000 1.0
C      1  0.4704900000000  0.4330380000000  0.4184360000000 1.0
C      1  0.5800560000000  0.4367310000000  0.4701120000000 1.0
C      1  0.5325600000000  0.4349850000000  0.5803790000000 1.0
C      1  0.5794340000000  0.5581570000000  0.5318970000000 1.0
C      1  0.5301070000000  0.5595610000000  0.4224940000000 1.0
C      1  0.4174210000000  0.5628440000000  0.4710270000000 1.0
C      1  0.4699380000000  0.5662640000000  0.5806640000000 1.0
C      1  0.5845590000000  0.4875260000000  0.4495730000000 1.0
C      1  0.5661620000000  0.4908530000000  0.5980860000000 1.0
C      1  0.4146120000000  0.4882000000000  0.5496260000000 1.0
C      1  0.4509540000000  0.4916640000000  0.4129730000000 1.0
C      1  0.4140450000000  0.5006660000000  0.4369920000000 1.0
C      1  0.4296460000000  0.5022900000000  0.5918780000000 1.0
C      1  0.5826280000000  0.5051320000000  0.5612080000000 1.0
C      1  0.5636290000000  0.5049370000000  0.4140680000000 1.0
C      1  0.5761590000000  0.4272190000000  0.5590310000000 1.0
C      1  0.4410050000000  0.4290590000000  0.5751790000000 1.0
C      1  0.4258770000000  0.4262350000000  0.4393490000000 1.0
C      1  0.5604950000000  0.4278060000000  0.4249560000000 1.0
C      1  0.4248220000000  0.5745940000000  0.5615080000000 1.0
C      1  0.5572120000000  0.5693960000000  0.5760070000000 1.0
C      1  0.5758110000000  0.5706650000000  0.4416030000000 1.0
C      1  0.4391520000000  0.5726750000000  0.4265510000000 1.0
C      1  0.4051330000000  0.4822030000000  0.4967240000000 1.0
C      1  0.5005910000000  0.4812600000000  0.4055150000000 1.0
C      1  0.5963690000000  0.4852080000000  0.5005640000000 1.0
C      1  0.5078930000000  0.4868550000000  0.5840710000000 1.0
C      1  0.5936330000000  0.5157920000000  0.4983360000000 1.0
C      1  0.4952550000000  0.5191140000000  0.4097210000000 1.0
C      1  0.4063110000000  0.5201250000000  0.5039710000000 1.0
C      1  0.4950030000000  0.5140780000000  0.5854680000000 1.0
C      1  0.4658380000000  0.5165570000000  0.5921060000000 1.0
C      1  0.4012380000000  0.5153130000000  0.4769610000000 1.0
C      1  0.5218410000000  0.5133370000000  0.4032010000000 1.0
C      1  0.6043920000000  0.5154910000000  0.5243040000000 1.0
C      1  0.5348270000000  0.4824320000000  0.5961160000000 1.0
C      1  0.6097990000000  0.4763460000000  0.4758650000000 1.0
C      1  0.4726370000000  0.4776050000000  0.3953850000000 1.0
C      1  0.3918800000000  0.4759670000000  0.5220340000000 1.0
C      1  0.4926700000000  0.3926110000000  0.5470330000000 1.0
C      1  0.4542370000000  0.3930030000000  0.4927030000000 1.0
C      1  0.5087590000000  0.3916260000000  0.4540360000000 1.0
C      1  0.5472910000000  0.3929020000000  0.5079760000000 1.0
C      1  0.5087920000000  0.6069470000000  0.5445000000000 1.0
C      1  0.5495000000000  0.6065430000000  0.4925540000000 1.0
C      1  0.4931060000000  0.6062580000000  0.4562550000000 1.0
C      1  0.4526560000000  0.6091350000000  0.5079230000000 1.0
C      1  0.4325570000000  0.4138070000000  0.4895740000000 1.0
C      1  0.5115340000000  0.4115570000000  0.4314760000000 1.0
C      1  0.5687770000000  0.4140580000000  0.5105410000000 1.0
C      1  0.4903390000000  0.4130910000000  0.5692910000000 1.0
C      1  0.5712850000000  0.5856580000000  0.4901000000000 1.0
C      1  0.4900840000000  0.5865500000000  0.4340580000000 1.0
C      1  0.4300320000000  0.5892580000000  0.5111200000000 1.0
C      1  0.5108200000000  0.5869160000000  0.5668090000000 1.0
C      1  0.4819620000000  0.3907810000000  0.4660160000000 1.0
C      1  0.5361340000000  0.3906330000000  0.4810070000000 1.0
C      1  0.5190660000000  0.3912320000000  0.5343350000000 1.0
C      1  0.4657900000000  0.3918810000000  0.5195630000000 1.0
C      1  0.5202140000000  0.6070770000000  0.4674540000000 1.0
C      1  0.4641980000000  0.6092160000000  0.4810370000000 1.0
C      1  0.4814210000000  0.6099840000000  0.5337300000000 1.0
C      1  0.5377940000000  0.6083240000000  0.5192670000000 1.0
C      1  0.5301500000000  0.5343710000000  0.5221200000000 1.0
C      1  0.4690380000000  0.5370190000000  0.5315990000000 1.0
C      1  0.4645530000000  0.5340900000000  0.4741240000000 1.0
C      1  0.5274900000000  0.5322980000000  0.4699380000000 1.0
C      1  0.4716830000000  0.4661260000000  0.5278260000000 1.0
C      1  0.5283160000000  0.4654450000000  0.5303120000000 1.0
C      1  0.5308220000000  0.4644990000000  0.4722260000000 1.0
C      1  0.4712420000000  0.4655030000000  0.4665930000000 1.0
C      1  0.4660460000000  0.4151790000000  0.4626140000000 1.0
C      1  0.5375710000000  0.4155060000000  0.4656010000000 1.0
C      1  0.5342630000000  0.4160430000000  0.5365280000000 1.0
C      1  0.4646660000000  0.4169630000000  0.5347430000000 1.0
C      1  0.5353070000000  0.5818810000000  0.4659630000000 1.0
C      1  0.4616230000000  0.5838850000000  0.4661350000000 1.0
C      1  0.4644380000000  0.5862800000000  0.5371980000000 1.0
C      1  0.5366860000000  0.5821810000000  0.5323910000000 1.0
C      1  0.4690430000000  0.4399750000000  0.5144850000000 1.0
C      1  0.4853400000000  0.4391250000000  0.4661900000000 1.0
C      1  0.5327390000000  0.4383760000000  0.4854570000000 1.0
C      1  0.5142370000000  0.4395490000000  0.5333390000000 1.0
C      1  0.5333330000000  0.5608520000000  0.5100640000000 1.0
C      1  0.5146030000000  0.5592250000000  0.4700410000000 1.0
C      1  0.4650320000000  0.5608360000000  0.4868920000000 1.0
C      1  0.4833430000000  0.5626180000000  0.5327200000000 1.0
C      1  0.4938330000000  0.5622550000000  0.5630040000000 1.0
C      1  0.4333930000000  0.5631300000000  0.4967350000000 1.0
C      1  0.5045650000000  0.5606590000000  0.4386090000000 1.0
C      1  0.5657160000000  0.5596790000000  0.5049190000000 1.0
C      1  0.5064710000000  0.4383200000000  0.5652620000000 1.0
C      1  0.5642460000000  0.4397290000000  0.4949250000000 1.0
C      1  0.4951560000000  0.4367330000000  0.4348260000000 1.0
C      1  0.4374580000000  0.4397960000000  0.5045340000000 1.0
C      1  0.4401130000000  0.5429820000000  0.4259210000000 1.0
C      1  0.5773190000000  0.5413810000000  0.4441990000000 1.0
C      1  0.5507460000000  0.5404000000000  0.5778450000000 1.0
C      1  0.4246240000000  0.5445410000000  0.5612330000000 1.0
C      1  0.5552910000000  0.4575910000000  0.4239980000000 1.0
C      1  0.4256820000000  0.4562820000000  0.4421770000000 1.0
C      1  0.4446740000000  0.4590610000000  0.5759080000000 1.0
C      1  0.5741100000000  0.4570570000000  0.5563760000000 1.0
C      1  0.5050320000000  0.5348460000000  0.5669410000000 1.0
C      1  0.4244220000000  0.5398290000000  0.5128760000000 1.0
C      1  0.4882790000000  0.5372370000000  0.4305500000000 1.0
C      1  0.5717030000000  0.5337440000000  0.4915330000000 1.0
C      1  0.4927960000000  0.4636530000000  0.5739270000000 1.0
C      1  0.5682130000000  0.4704180000000  0.5044180000000 1.0
C      1  0.5079030000000  0.4625170000000  0.4274390000000 1.0
C      1  0.4296580000000  0.4660150000000  0.4917040000000 1.0
C      1  0.4217010000000  0.4787470000000  0.5771860000000 1.0
C      1  0.4233380000000  0.4767860000000  0.4194090000000 1.0
C      1  0.5764600000000  0.4785400000000  0.4218790000000 1.0
C      1  0.5863820000000  0.4764470000000  0.5756630000000 1.0
C      1  0.5720150000000  0.5212320000000  0.5856380000000 1.0
C      1  0.5805490000000  0.5267190000000  0.4205970000000 1.0
C      1  0.4148680000000  0.5278440000000  0.4247440000000 1.0
C      1  0.4239530000000  0.5300260000000  0.5868290000000 1.0
C      1  0.5471080000000  0.4571060000000  0.5917620000000 1.0
C      1  0.4005490000000  0.4541510000000  0.5377910000000 1.0
C      1  0.4582270000000  0.4542650000000  0.4039450000000 1.0
C      1  0.6005020000000  0.4542430000000  0.4609220000000 1.0
C      1  0.4580360000000  0.5447030000000  0.5958690000000 1.0
C      1  0.5957810000000  0.5359890000000  0.5417680000000 1.0
C      1  0.5391620000000  0.5351880000000  0.4089290000000 1.0
C      1  0.4059310000000  0.5379760000000  0.4599910000000 1.0
C      1  0.4390480000000  0.5331020000000  0.5367510000000 1.0
C      1  0.4628760000000  0.5319860000000  0.4432900000000 1.0
C      1  0.5588020000000  0.5296530000000  0.4661250000000 1.0
C      1  0.5312190000000  0.5316600000000  0.5549070000000 1.0
C      1  0.5582870000000  0.4705780000000  0.5331780000000 1.0
C      1  0.5324900000000  0.4678700000000  0.4416560000000 1.0
C      1  0.4411500000000  0.4692640000000  0.4652780000000 1.0
C      1  0.4682680000000  0.4693520000000  0.5586380000000 1.0
C      1  0.4991060000000  0.4348460000000  0.4979600000000 1.0
C      1  0.4958480000000  0.5649270000000  0.4998700000000 1.0
END
