TITL C-3578207-9274-469 -1.41643286841048e-06 125000 -379.764348032925 0 0 63 (C1) n - 1
REM
REM in /home/bkarasulu/work/CARBON/AIRSS/Generating-Clusters/EDIP-Nigel-Params/with-SteepDescent/Higher-Symm/SD-CG/HFTN-CG
REM
REM
REM
REM
REM
REM ./C.cell (12c818d87b63d06a65506943cc24bca4)
REM
REM compiler GCC version 9.2.1 20190827 (Red Hat 9.2.1-1)
REM options -cpp -mtune=generic -march=x86-64 -g -O0 -fpre-include=/usr/include/finclude/math-vector-fortran.h
REM seed 1569518020 -1555416943 -1157286842 -370329381 1705083612 627666648 1759795773 557645295 -1656532216 -1277133928 -291644046 1563451772 -1772315771 -151082205 176167539 -277290216 -95692951 -1567521898 -748306833 1690425572 819198909 -1766104121 -2009072866 -2119907076 1512149330 -1476148926 -1122831497 1153608816 1058315341 209185071 1668532561 1893564107 -1265400718
REM
CELL 1.54180   50.00000   50.00000   50.00000   90.00000   90.00000   90.00000
LATT -1
SFAC C  
C      1  0.4669370000000  0.5666160000000  0.5107380000000 1.0
C      1  0.5130800000000  0.5670780000000  0.5292750000000 1.0
C      1  0.5238970000000  0.5623270000000  0.5031330000000 1.0
C      1  0.5060690000000  0.5629990000000  0.4803480000000 1.0
C      1  0.4773370000000  0.5618400000000  0.4842470000000 1.0
C      1  0.5226530000000  0.5023560000000  0.5128360000000 1.0
C      1  0.5217210000000  0.5018590000000  0.4841300000000 1.0
C      1  0.4940780000000  0.5027690000000  0.4754610000000 1.0
C      1  0.4772180000000  0.5036750000000  0.4995190000000 1.0
C      1  0.4953460000000  0.5034560000000  0.5228660000000 1.0
C      1  0.5840840000000  0.5172730000000  0.4961110000000 1.0
C      1  0.5248010000000  0.5165470000000  0.4244140000000 1.0
C      1  0.4373920000000  0.5118700000000  0.4524380000000 1.0
C      1  0.4372570000000  0.5148440000000  0.5464820000000 1.0
C      1  0.5309970000000  0.5129060000000  0.5738020000000 1.0
C      1  0.4738430000000  0.4448240000000  0.4990350000000 1.0
C      1  0.4878960000000  0.4423640000000  0.5269820000000 1.0
C      1  0.5165910000000  0.4360860000000  0.5207480000000 1.0
C      1  0.5213520000000  0.4452080000000  0.4915710000000 1.0
C      1  0.5051480000000  0.4305980000000  0.4713820000000 1.0
C      1  0.5063210000000  0.4967250000000  0.5705820000000 1.0
C      1  0.5719910000000  0.4921450000000  0.5128220000000 1.0
C      1  0.5405950000000  0.4965770000000  0.4393670000000 1.0
C      1  0.4571880000000  0.4904110000000  0.4445590000000 1.0
C      1  0.4354130000000  0.4937400000000  0.5252440000000 1.0
C      1  0.5004890000000  0.4480680000000  0.4485960000000 1.0
C      1  0.4384120000000  0.4535580000000  0.4858730000000 1.0
C      1  0.4666430000000  0.4567070000000  0.5557380000000 1.0
C      1  0.5346080000000  0.4473650000000  0.5401270000000 1.0
C      1  0.5474840000000  0.4563540000000  0.4817540000000 1.0
C      1  0.4312790000000  0.5064830000000  0.4786470000000 1.0
C      1  0.4620000000000  0.5121810000000  0.5582650000000 1.0
C      1  0.5487110000000  0.5031410000000  0.5550780000000 1.0
C      1  0.5714340000000  0.5016340000000  0.4755820000000 1.0
C      1  0.4995560000000  0.5058050000000  0.4250760000000 1.0
C      1  0.5509990000000  0.5581900000000  0.4999430000000 1.0
C      1  0.5165810000000  0.5579450000000  0.4552510000000 1.0
C      1  0.4603070000000  0.5565640000000  0.4630280000000 1.0
C      1  0.4419970000000  0.5585330000000  0.5197030000000 1.0
C      1  0.5257410000000  0.5595470000000  0.5526270000000 1.0
C      1  0.5206120000000  0.4623100000000  0.5605420000000 1.0
C      1  0.5674570000000  0.4628860000000  0.5029530000000 1.0
C      1  0.5243940000000  0.4615470000000  0.4381700000000 1.0
C      1  0.4550330000000  0.4662580000000  0.4651780000000 1.0
C      1  0.4532580000000  0.4691920000000  0.5328160000000 1.0
C      1  0.4837780000000  0.5030100000000  0.4478730000000 1.0
C      1  0.4476040000000  0.5057660000000  0.5011340000000 1.0
C      1  0.4885230000000  0.5090680000000  0.5507790000000 1.0
C      1  0.5477310000000  0.5015700000000  0.5273670000000 1.0
C      1  0.5446730000000  0.5064470000000  0.4666640000000 1.0
C      1  0.5489290000000  0.4611090000000  0.4529600000000 1.0
C      1  0.4720130000000  0.4545900000000  0.4443910000000 1.0
C      1  0.4346120000000  0.4568910000000  0.5141480000000 1.0
C      1  0.4927880000000  0.4605270000000  0.5672640000000 1.0
C      1  0.5592630000000  0.4536330000000  0.5281620000000 1.0
C      1  0.5275570000000  0.5404430000000  0.5713260000000 1.0
C      1  0.5726240000000  0.5425060000000  0.4990550000000 1.0
C      1  0.5256190000000  0.5421770000000  0.4355000000000 1.0
C      1  0.4461690000000  0.5382120000000  0.4493980000000 1.0
C      1  0.4317530000000  0.5403430000000  0.5366560000000 1.0
C      1  0.4995080000000  0.4677880000000  0.5002470000000 1.0
C      1  0.4859840000000  0.5716440000000  0.5299540000000 1.0
C      1  0.4812490000000  0.4216190000000  0.4830260000000 1.0
END
