TITL C-3577076-40-419 4.09042705529796e-07 125000 -818.856646090444 0 0 135 (C1) n - 1
REM
REM in /home/bkarasulu/work/CARBON/AIRSS/Generating-Clusters/EDIP-Nigel-Params/with-SteepDescent/Higher-Symm/SD-CG/HFTN-CG
REM
REM
REM
REM
REM
REM ./C.cell (12c818d87b63d06a65506943cc24bca4)
REM
REM compiler GCC version 9.2.1 20190827 (Red Hat 9.2.1-1)
REM options -cpp -mtune=generic -march=x86-64 -g -O0 -fpre-include=/usr/include/finclude/math-vector-fortran.h
REM seed 1018715288 1670883719 -1184623346 809454298 1117750575 1181729465 -1023317521 -916865301 -1890597305 1404569693 21262187 121116379 -1695399548 -1369632306 954120346 -1192625414 1257982413 -20493262 1433068487 -1564900515 434833150 1216899103 521615188 413991122 908677487 2100452376 -475446739 1069727754 -1293578261 1330529590 -1603257229 1914566129 1364792566
REM
CELL 1.54180   50.00000   50.00000   50.00000   90.00000   90.00000   90.00000
LATT -1
SFAC C  
C      1  0.3983530000000  0.4726770000000  0.4741630000000 1.0
C      1  0.6013030000000  0.5238240000000  0.4739020000000 1.0
C      1  0.3978090000000  0.5233530000000  0.5238660000000 1.0
C      1  0.5999690000000  0.4769960000000  0.5222280000000 1.0
C      1  0.4778110000000  0.3954550000000  0.4747010000000 1.0
C      1  0.5244730000000  0.6002270000000  0.4747190000000 1.0
C      1  0.5227760000000  0.4003620000000  0.5258190000000 1.0
C      1  0.4786780000000  0.6023590000000  0.5247360000000 1.0
C      1  0.5303620000000  0.5886840000000  0.5015920000000 1.0
C      1  0.4693790000000  0.4093450000000  0.5000920000000 1.0
C      1  0.5300860000000  0.4096980000000  0.4985280000000 1.0
C      1  0.4712400000000  0.5897700000000  0.4986230000000 1.0
C      1  0.5892410000000  0.5297780000000  0.5003530000000 1.0
C      1  0.4111050000000  0.4698890000000  0.5003130000000 1.0
C      1  0.4103640000000  0.5315950000000  0.4979640000000 1.0
C      1  0.5874940000000  0.4707390000000  0.4956760000000 1.0
C      1  0.5230740000000  0.5581660000000  0.5725870000000 1.0
C      1  0.4766170000000  0.4436620000000  0.5700210000000 1.0
C      1  0.5254840000000  0.4458900000000  0.4413210000000 1.0
C      1  0.4782140000000  0.5586960000000  0.4267290000000 1.0
C      1  0.5569050000000  0.5225820000000  0.5710290000000 1.0
C      1  0.4425930000000  0.4786570000000  0.5698470000000 1.0
C      1  0.4437000000000  0.5223870000000  0.4333460000000 1.0
C      1  0.5587460000000  0.4806870000000  0.4255500000000 1.0
C      1  0.4267860000000  0.4992970000000  0.4434550000000 1.0
C      1  0.5772380000000  0.5033310000000  0.4329200000000 1.0
C      1  0.4232160000000  0.4999090000000  0.5633000000000 1.0
C      1  0.5783030000000  0.5025920000000  0.5629010000000 1.0
C      1  0.5078000000000  0.4206480000000  0.4391540000000 1.0
C      1  0.4999500000000  0.5781140000000  0.4339690000000 1.0
C      1  0.4980920000000  0.4245600000000  0.5636320000000 1.0
C      1  0.5035890000000  0.5800630000000  0.5648550000000 1.0
C      1  0.5329080000000  0.4993820000000  0.5345980000000 1.0
C      1  0.4725530000000  0.5025340000000  0.5223050000000 1.0
C      1  0.5317910000000  0.5012000000000  0.4626320000000 1.0
C      1  0.4660620000000  0.5011020000000  0.4643850000000 1.0
C      1  0.4998110000000  0.5335220000000  0.5373230000000 1.0
C      1  0.5011330000000  0.4724240000000  0.5204710000000 1.0
C      1  0.4992490000000  0.5310190000000  0.4669120000000 1.0
C      1  0.4967300000000  0.4700260000000  0.4676650000000 1.0
C      1  0.4399510000000  0.4173510000000  0.5388540000000 1.0
C      1  0.5609230000000  0.5781440000000  0.5401360000000 1.0
C      1  0.4407090000000  0.5810820000000  0.4602110000000 1.0
C      1  0.5641130000000  0.4103160000000  0.4626250000000 1.0
C      1  0.4226500000000  0.4401980000000  0.5395410000000 1.0
C      1  0.5832390000000  0.5598950000000  0.5392190000000 1.0
C      1  0.5751010000000  0.4365900000000  0.4578050000000 1.0
C      1  0.4182820000000  0.5631130000000  0.4608030000000 1.0
C      1  0.4325870000000  0.4747480000000  0.4316240000000 1.0
C      1  0.5679320000000  0.5287480000000  0.4246510000000 1.0
C      1  0.4283280000000  0.5249920000000  0.5741560000000 1.0
C      1  0.5717000000000  0.4767610000000  0.5707140000000 1.0
C      1  0.4833900000000  0.4268140000000  0.4275750000000 1.0
C      1  0.5254120000000  0.5696020000000  0.4247910000000 1.0
C      1  0.5232610000000  0.4298610000000  0.5742100000000 1.0
C      1  0.4776130000000  0.5739540000000  0.5729960000000 1.0
C      1  0.6019270000000  0.4850760000000  0.4744790000000 1.0
C      1  0.3963450000000  0.5196130000000  0.4762420000000 1.0
C      1  0.6044600000000  0.5152980000000  0.5205970000000 1.0
C      1  0.3961290000000  0.4849140000000  0.5206990000000 1.0
C      1  0.4860100000000  0.6031640000000  0.4770320000000 1.0
C      1  0.5163040000000  0.3919820000000  0.4795830000000 1.0
C      1  0.5171430000000  0.6049070000000  0.5219970000000 1.0
C      1  0.4843740000000  0.3969100000000  0.5220710000000 1.0
C      1  0.5239000000000  0.4551280000000  0.5192350000000 1.0
C      1  0.4733960000000  0.5472200000000  0.5298530000000 1.0
C      1  0.5231700000000  0.5467890000000  0.4735180000000 1.0
C      1  0.4713230000000  0.4530410000000  0.4696290000000 1.0
C      1  0.4544030000000  0.5251780000000  0.5233460000000 1.0
C      1  0.5460830000000  0.4733680000000  0.5267560000000 1.0
C      1  0.5460500000000  0.5251270000000  0.4723100000000 1.0
C      1  0.4513930000000  0.4758540000000  0.4717580000000 1.0
C      1  0.4622030000000  0.4836910000000  0.5908020000000 1.0
C      1  0.5293540000000  0.5092450000000  0.5771200000000 1.0
C      1  0.4693890000000  0.5118470000000  0.4224070000000 1.0
C      1  0.5307100000000  0.4901880000000  0.4199320000000 1.0
C      1  0.4818630000000  0.4631180000000  0.5908760000000 1.0
C      1  0.5092110000000  0.5324390000000  0.5802740000000 1.0
C      1  0.5119130000000  0.4692160000000  0.4261970000000 1.0
C      1  0.4891150000000  0.5322750000000  0.4186370000000 1.0
C      1  0.4127390000000  0.5019280000000  0.5361850000000 1.0
C      1  0.5861750000000  0.4993450000000  0.5348920000000 1.0
C      1  0.4034540000000  0.4974420000000  0.4614330000000 1.0
C      1  0.5860600000000  0.5036780000000  0.4606420000000 1.0
C      1  0.5005560000000  0.4149010000000  0.5365070000000 1.0
C      1  0.5005570000000  0.5877230000000  0.5368600000000 1.0
C      1  0.5006260000000  0.4098380000000  0.4649780000000 1.0
C      1  0.5027510000000  0.5859990000000  0.4619900000000 1.0
C      1  0.4382460000000  0.4837140000000  0.4976290000000 1.0
C      1  0.5608090000000  0.5166890000000  0.4987310000000 1.0
C      1  0.4376430000000  0.5175840000000  0.4991470000000 1.0
C      1  0.5599400000000  0.4838600000000  0.4991970000000 1.0
C      1  0.4809880000000  0.4377870000000  0.4963510000000 1.0
C      1  0.5156440000000  0.5613500000000  0.5001560000000 1.0
C      1  0.5160400000000  0.4378000000000  0.4959580000000 1.0
C      1  0.4828350000000  0.5615880000000  0.5018680000000 1.0
C      1  0.5192300000000  0.4994890000000  0.3946980000000 1.0
C      1  0.4762550000000  0.4942880000000  0.3998980000000 1.0
C      1  0.5183660000000  0.4961750000000  0.6037580000000 1.0
C      1  0.4708020000000  0.5076050000000  0.6028030000000 1.0
C      1  0.5019080000000  0.5224230000000  0.3942870000000 1.0
C      1  0.4940880000000  0.4718570000000  0.4030450000000 1.0
C      1  0.4967620000000  0.5187030000000  0.6050850000000 1.0
C      1  0.5064490000000  0.4707030000000  0.6018050000000 1.0
C      1  0.5593730000000  0.4604500000000  0.5517290000000 1.0
C      1  0.4396240000000  0.5480200000000  0.5663690000000 1.0
C      1  0.5601040000000  0.5410670000000  0.4489330000000 1.0
C      1  0.4429620000000  0.4500980000000  0.4311610000000 1.0
C      1  0.4610040000000  0.5610540000000  0.5545850000000 1.0
C      1  0.5460220000000  0.4393340000000  0.5636130000000 1.0
C      1  0.5383700000000  0.5623310000000  0.4490620000000 1.0
C      1  0.4640720000000  0.4381610000000  0.4441330000000 1.0
C      1  0.5813970000000  0.4421100000000  0.4872450000000 1.0
C      1  0.4153970000000  0.5605980000000  0.4900230000000 1.0
C      1  0.5861020000000  0.5582970000000  0.5098780000000 1.0
C      1  0.4175890000000  0.4417660000000  0.5101470000000 1.0
C      1  0.4425080000000  0.5853530000000  0.4898060000000 1.0
C      1  0.5594150000000  0.4127180000000  0.4909820000000 1.0
C      1  0.5588450000000  0.5824220000000  0.5104610000000 1.0
C      1  0.4407470000000  0.4132100000000  0.5097040000000 1.0
C      1  0.5223830000000  0.5429400000000  0.5220000000000 1.0
C      1  0.4763990000000  0.4558490000000  0.5201920000000 1.0
C      1  0.5222030000000  0.4551160000000  0.4709890000000 1.0
C      1  0.4759210000000  0.5431620000000  0.4787310000000 1.0
C      1  0.5431540000000  0.5230540000000  0.5216730000000 1.0
C      1  0.4567800000000  0.4776220000000  0.5204400000000 1.0
C      1  0.4537790000000  0.5248940000000  0.4761100000000 1.0
C      1  0.5409780000000  0.4775030000000  0.4764100000000 1.0
C      1  0.4515050000000  0.5533540000000  0.4434220000000 1.0
C      1  0.5561550000000  0.4543140000000  0.4418510000000 1.0
C      1  0.4496120000000  0.4516670000000  0.5548960000000 1.0
C      1  0.5495340000000  0.5505350000000  0.5555060000000 1.0
C      1  0.5023590000000  0.5048470000000  0.4508480000000 1.0
C      1  0.5053870000000  0.5045600000000  0.5461860000000 1.0
C      1  0.4927410000000  0.4942900000000  0.4901540000000 1.0
END
