TITL C-3577089-586-383 -4.53116583497475e-06 125000 -807.535630125903 0 0 129 (C1) n - 1
REM
REM in /home/bkarasulu/work/CARBON/AIRSS/Generating-Clusters/EDIP-Nigel-Params/with-SteepDescent/Higher-Symm/SD-CG/HFTN-CG
REM
REM
REM
REM
REM
REM ./C.cell (12c818d87b63d06a65506943cc24bca4)
REM
REM compiler GCC version 9.2.1 20190827 (Red Hat 9.2.1-1)
REM options -cpp -mtune=generic -march=x86-64 -g -O0 -fpre-include=/usr/include/finclude/math-vector-fortran.h
REM seed 202374473 -183919387 299131640 872992317 281382172 -440763603 1365689047 1285693616 -1451420411 -1277399964 -10184690 1228299958 -1131073742 -1259708490 -1657235261 -509757245 -269508006 1827253300 1559696790 -1168697530 -196594001 -303593317 1966517010 550109366 -1163701126 779482876 -1466858127 1245687531 -113868558 -1924327988 1028535061 -1661663093 1714951968
REM
CELL 1.54180   50.00000   50.00000   50.00000   90.00000   90.00000   90.00000
LATT -1
SFAC C  
C      1  0.4660960000000  0.5805920000000  0.5684790000000 1.0
C      1  0.4565390000000  0.4647350000000  0.5914830000000 1.0
C      1  0.4630210000000  0.4029290000000  0.4974720000000 1.0
C      1  0.4588550000000  0.4790540000000  0.4095530000000 1.0
C      1  0.4611480000000  0.5878980000000  0.4509710000000 1.0
C      1  0.5279880000000  0.4191720000000  0.5694010000000 1.0
C      1  0.5391130000000  0.5294610000000  0.5809130000000 1.0
C      1  0.5368280000000  0.5824350000000  0.4990520000000 1.0
C      1  0.5259700000000  0.5285210000000  0.4003740000000 1.0
C      1  0.5380680000000  0.4328300000000  0.4545390000000 1.0
C      1  0.4837480000000  0.5491750000000  0.4183490000000 1.0
C      1  0.4876710000000  0.5927890000000  0.5233470000000 1.0
C      1  0.4864490000000  0.5081450000000  0.5890640000000 1.0
C      1  0.4877750000000  0.4155900000000  0.5350750000000 1.0
C      1  0.4867480000000  0.4455990000000  0.4369840000000 1.0
C      1  0.5265250000000  0.4573870000000  0.4152360000000 1.0
C      1  0.5345760000000  0.4033790000000  0.5236050000000 1.0
C      1  0.5300260000000  0.4893300000000  0.6007360000000 1.0
C      1  0.5327640000000  0.5949510000000  0.5437440000000 1.0
C      1  0.5284390000000  0.5685110000000  0.4244340000000 1.0
C      1  0.4786870000000  0.5974240000000  0.5497420000000 1.0
C      1  0.4752990000000  0.4843680000000  0.6012230000000 1.0
C      1  0.4785150000000  0.3925060000000  0.5188740000000 1.0
C      1  0.4788300000000  0.4599480000000  0.4140110000000 1.0
C      1  0.4738910000000  0.5752040000000  0.4281170000000 1.0
C      1  0.5164480000000  0.4089730000000  0.5446800000000 1.0
C      1  0.5162190000000  0.5125180000000  0.5939460000000 1.0
C      1  0.5179250000000  0.5945740000000  0.5201880000000 1.0
C      1  0.5124080000000  0.5503280000000  0.4107910000000 1.0
C      1  0.5164620000000  0.4409340000000  0.4351360000000 1.0
C      1  0.4939870000000  0.4761210000000  0.5458560000000 1.0
C      1  0.4966380000000  0.4364990000000  0.5160390000000 1.0
C      1  0.5056050000000  0.5055780000000  0.4481920000000 1.0
C      1  0.4838620000000  0.5369000000000  0.4827500000000 1.0
C      1  0.4831900000000  0.5461390000000  0.5313060000000 1.0
C      1  0.4956330000000  0.5041800000000  0.5382760000000 1.0
C      1  0.4969450000000  0.5546840000000  0.5038430000000 1.0
C      1  0.5052190000000  0.5157860000000  0.4761670000000 1.0
C      1  0.5054150000000  0.4534240000000  0.4760190000000 1.0
C      1  0.5121090000000  0.4597070000000  0.5296190000000 1.0
C      1  0.5709800000000  0.5486400000000  0.4845370000000 1.0
C      1  0.5751270000000  0.5309990000000  0.5430460000000 1.0
C      1  0.5709200000000  0.4724420000000  0.5398140000000 1.0
C      1  0.5759120000000  0.4513310000000  0.4819970000000 1.0
C      1  0.5805770000000  0.5015540000000  0.4450950000000 1.0
C      1  0.4261530000000  0.4551730000000  0.4871130000000 1.0
C      1  0.4202880000000  0.4729240000000  0.5433930000000 1.0
C      1  0.4256590000000  0.5320470000000  0.5392880000000 1.0
C      1  0.4282320000000  0.5475350000000  0.4831440000000 1.0
C      1  0.4224920000000  0.4975100000000  0.4440310000000 1.0
C      1  0.5344370000000  0.5261630000000  0.5291050000000 1.0
C      1  0.5457320000000  0.4996530000000  0.5169160000000 1.0
C      1  0.5232330000000  0.4799640000000  0.5092090000000 1.0
C      1  0.5478220000000  0.4847220000000  0.4686180000000 1.0
C      1  0.5314840000000  0.5284650000000  0.4823590000000 1.0
C      1  0.4628440000000  0.4646380000000  0.5095420000000 1.0
C      1  0.4712060000000  0.5181710000000  0.5295450000000 1.0
C      1  0.4615720000000  0.5239560000000  0.4986260000000 1.0
C      1  0.4472720000000  0.5023120000000  0.4791490000000 1.0
C      1  0.4662220000000  0.4831090000000  0.4648450000000 1.0
C      1  0.4771490000000  0.5921590000000  0.4747120000000 1.0
C      1  0.4815390000000  0.5550180000000  0.5792270000000 1.0
C      1  0.4677730000000  0.4401920000000  0.5793770000000 1.0
C      1  0.4785120000000  0.4134040000000  0.4740400000000 1.0
C      1  0.4705300000000  0.5027060000000  0.3992670000000 1.0
C      1  0.5286240000000  0.4153500000000  0.4775550000000 1.0
C      1  0.5233260000000  0.4459680000000  0.5833150000000 1.0
C      1  0.5325970000000  0.5597120000000  0.5752420000000 1.0
C      1  0.5282460000000  0.5854090000000  0.4705260000000 1.0
C      1  0.5235740000000  0.5014670000000  0.3954580000000 1.0
C      1  0.4661340000000  0.5235790000000  0.4194330000000 1.0
C      1  0.4661850000000  0.5861420000000  0.5016360000000 1.0
C      1  0.4668470000000  0.5279450000000  0.5776110000000 1.0
C      1  0.4620190000000  0.4366960000000  0.5503390000000 1.0
C      1  0.4657750000000  0.4345220000000  0.4558440000000 1.0
C      1  0.5377530000000  0.4834990000000  0.4155820000000 1.0
C      1  0.5468630000000  0.4129530000000  0.5000230000000 1.0
C      1  0.5419330000000  0.4711910000000  0.5830980000000 1.0
C      1  0.5481620000000  0.5741640000000  0.5547350000000 1.0
C      1  0.5420080000000  0.5703450000000  0.4490240000000 1.0
C      1  0.4690430000000  0.5518930000000  0.4588140000000 1.0
C      1  0.4597020000000  0.5593410000000  0.5468450000000 1.0
C      1  0.4669020000000  0.4664500000000  0.5404560000000 1.0
C      1  0.4538570000000  0.4273320000000  0.5079250000000 1.0
C      1  0.4810150000000  0.4892770000000  0.4394540000000 1.0
C      1  0.5329780000000  0.4632630000000  0.4865030000000 1.0
C      1  0.5344470000000  0.4490560000000  0.5466640000000 1.0
C      1  0.5146370000000  0.5229230000000  0.5513460000000 1.0
C      1  0.5263950000000  0.5454310000000  0.5058470000000 1.0
C      1  0.5342280000000  0.4990530000000  0.4426480000000 1.0
C      1  0.5688890000000  0.4737530000000  0.4372270000000 1.0
C      1  0.5610470000000  0.5492620000000  0.4568580000000 1.0
C      1  0.5594310000000  0.5557950000000  0.5336260000000 1.0
C      1  0.5555670000000  0.4854750000000  0.5607570000000 1.0
C      1  0.5552510000000  0.4416580000000  0.5017870000000 1.0
C      1  0.4422320000000  0.5198400000000  0.4387260000000 1.0
C      1  0.4382030000000  0.4492970000000  0.4600320000000 1.0
C      1  0.4275210000000  0.4446110000000  0.5388410000000 1.0
C      1  0.4499760000000  0.5156590000000  0.5518200000000 1.0
C      1  0.4435170000000  0.5636850000000  0.5035460000000 1.0
C      1  0.5655040000000  0.4478660000000  0.4544170000000 1.0
C      1  0.5625880000000  0.5248790000000  0.4406810000000 1.0
C      1  0.5632280000000  0.5680600000000  0.5057810000000 1.0
C      1  0.5600300000000  0.5145720000000  0.5637180000000 1.0
C      1  0.5596390000000  0.4475880000000  0.5312420000000 1.0
C      1  0.4423830000000  0.5410530000000  0.4583810000000 1.0
C      1  0.4311440000000  0.4701530000000  0.4415140000000 1.0
C      1  0.4282050000000  0.4371240000000  0.5102070000000 1.0
C      1  0.4455240000000  0.4848480000000  0.5538300000000 1.0
C      1  0.4343210000000  0.5594470000000  0.5310330000000 1.0
C      1  0.5883640000000  0.5253140000000  0.4917180000000 1.0
C      1  0.5889600000000  0.5165170000000  0.5209240000000 1.0
C      1  0.5831640000000  0.4877340000000  0.5178470000000 1.0
C      1  0.5862120000000  0.4778600000000  0.4896790000000 1.0
C      1  0.5926360000000  0.5009950000000  0.4723400000000 1.0
C      1  0.4064190000000  0.4764290000000  0.4906740000000 1.0
C      1  0.4160300000000  0.4883450000000  0.5173500000000 1.0
C      1  0.4087610000000  0.5176150000000  0.5191490000000 1.0
C      1  0.4086560000000  0.5267700000000  0.4904600000000 1.0
C      1  0.4093520000000  0.5011070000000  0.4724760000000 1.0
C      1  0.4939780000000  0.4550530000000  0.5845220000000 1.0
C      1  0.4965540000000  0.4968910000000  0.3901860000000 1.0
C      1  0.5011040000000  0.5771860000000  0.4730640000000 1.0
C      1  0.5066630000000  0.5521410000000  0.5617210000000 1.0
C      1  0.5022470000000  0.4267810000000  0.4871260000000 1.0
C      1  0.5004140000000  0.4939270000000  0.4957890000000 1.0
C      1  0.4836180000000  0.4722300000000  0.4862900000000 1.0
C      1  0.4450870000000  0.4896620000000  0.5079310000000 1.0
C      1  0.5531770000000  0.5087640000000  0.4884890000000 1.0
END
