TITL C-3578203-1966-578 -1.17983190697268e-06 125000 -210.831957407645 0 0 48 (Oh) n - 1
REM
REM in /home/bkarasulu/work/CARBON/AIRSS/Generating-Clusters/EDIP-Nigel-Params/with-SteepDescent/Higher-Symm/SD-CG/HFTN-CG
REM
REM
REM
REM
REM
REM ./C.cell (12c818d87b63d06a65506943cc24bca4)
REM
REM compiler GCC version 9.2.1 20190827 (Red Hat 9.2.1-1)
REM options -cpp -mtune=generic -march=x86-64 -g -O0 -fpre-include=/usr/include/finclude/math-vector-fortran.h
REM seed -651561138 737661428 -1156455178 -1346358061 1698078736 -1644845435 -1685693183 1660956619 -631788140 478373273 1913277525 717877271 2016390684 38993442 -897579339 1238637320 -1849071455 -1658685370 995389097 -188619364 -2095882872 -1851241336 -2101146908 1083208591 -1913070403 15753809 1484766864 -1729935827 169878349 -1432388117 -1839647245 1857019955 392872445
REM
CELL 1.54180   50.00000   50.00000   50.00000   90.00000   90.00000   90.00000
LATT -1
SFAC C  
C      1  0.5350620000000  0.5000000000000  0.4305430000000 1.0
C      1  0.5000000000000  0.4305430000000  0.5350620000000 1.0
C      1  0.4305430000000  0.5350620000000  0.5000000000000 1.0
C      1  0.4649380000000  0.5000000000000  0.4305430000000 1.0
C      1  0.5350620000000  0.5000000000000  0.5694570000000 1.0
C      1  0.4649380000000  0.5000000000000  0.5694570000000 1.0
C      1  0.5000000000000  0.5694570000000  0.5350620000000 1.0
C      1  0.5000000000000  0.5694570000000  0.4649380000000 1.0
C      1  0.5000000000000  0.4305430000000  0.4649380000000 1.0
C      1  0.5694570000000  0.4649380000000  0.5000000000000 1.0
C      1  0.4305430000000  0.4649380000000  0.5000000000000 1.0
C      1  0.5694570000000  0.5350620000000  0.5000000000000 1.0
C      1  0.5000000000000  0.5350620000000  0.4305430000000 1.0
C      1  0.4305430000000  0.5000000000000  0.5350620000000 1.0
C      1  0.5350620000000  0.4305430000000  0.5000000000000 1.0
C      1  0.5000000000000  0.4649380000000  0.4305430000000 1.0
C      1  0.5000000000000  0.5350620000000  0.5694570000000 1.0
C      1  0.5000000000000  0.4649380000000  0.5694570000000 1.0
C      1  0.5694570000000  0.5000000000000  0.5350620000000 1.0
C      1  0.5694570000000  0.5000000000000  0.4649380000000 1.0
C      1  0.4305430000000  0.5000000000000  0.4649380000000 1.0
C      1  0.4649380000000  0.5694570000000  0.5000000000000 1.0
C      1  0.4649380000000  0.4305430000000  0.5000000000000 1.0
C      1  0.5350620000000  0.5694570000000  0.5000000000000 1.0
C      1  0.4548790000000  0.5000000000000  0.4770910000000 1.0
C      1  0.5000000000000  0.4770910000000  0.4548790000000 1.0
C      1  0.4770910000000  0.4548790000000  0.5000000000000 1.0
C      1  0.5451210000000  0.5000000000000  0.4770910000000 1.0
C      1  0.4548790000000  0.5000000000000  0.5229090000000 1.0
C      1  0.5451210000000  0.5000000000000  0.5229090000000 1.0
C      1  0.5000000000000  0.5229090000000  0.4548790000000 1.0
C      1  0.5000000000000  0.5229090000000  0.5451210000000 1.0
C      1  0.5000000000000  0.4770910000000  0.5451210000000 1.0
C      1  0.5229090000000  0.5451210000000  0.5000000000000 1.0
C      1  0.4770910000000  0.5451210000000  0.5000000000000 1.0
C      1  0.5229090000000  0.4548790000000  0.5000000000000 1.0
C      1  0.5000000000000  0.4548790000000  0.4770910000000 1.0
C      1  0.4770910000000  0.5000000000000  0.4548790000000 1.0
C      1  0.4548790000000  0.4770910000000  0.5000000000000 1.0
C      1  0.5000000000000  0.5451210000000  0.4770910000000 1.0
C      1  0.5000000000000  0.4548790000000  0.5229090000000 1.0
C      1  0.5000000000000  0.5451210000000  0.5229090000000 1.0
C      1  0.5229090000000  0.5000000000000  0.4548790000000 1.0
C      1  0.5229090000000  0.5000000000000  0.5451210000000 1.0
C      1  0.4770910000000  0.5000000000000  0.5451210000000 1.0
C      1  0.5451210000000  0.5229090000000  0.5000000000000 1.0
C      1  0.5451210000000  0.4770910000000  0.5000000000000 1.0
C      1  0.4548790000000  0.5229090000000  0.5000000000000 1.0
END
