TITL C-3578198-8939-711 -1.19443006642904e-06 125000 -675.781334465526 0 0 109 (C1) n - 1
REM
REM in /home/bkarasulu/work/CARBON/AIRSS/Generating-Clusters/EDIP-Nigel-Params/with-SteepDescent/Higher-Symm/SD-CG/HFTN-CG
REM
REM
REM
REM
REM
REM ./C.cell (12c818d87b63d06a65506943cc24bca4)
REM
REM compiler GCC version 9.2.1 20190827 (Red Hat 9.2.1-1)
REM options -cpp -mtune=generic -march=x86-64 -g -O0 -fpre-include=/usr/include/finclude/math-vector-fortran.h
REM seed -1752798271 1324369649 -647815015 -1179413079 989572236 173217561 56885094 -271563428 -201712321 1883130941 41167537 1635501863 1055865138 1897860235 -904019973 -322146802 1783518974 859630514 1415283083 569499378 -1879403816 -590742523 -1698450988 -2009253049 -509445349 -1650190573 977516653 1780390987 -117202871 -197891000 188636894 963948101 -1755958715
REM
CELL 1.54180   50.00000   50.00000   50.00000   90.00000   90.00000   90.00000
LATT -1
SFAC C  
C      1  0.5505280000000  0.4280730000000  0.5247370000000 1.0
C      1  0.5513550000000  0.5029160000000  0.5739210000000 1.0
C      1  0.5492410000000  0.5712260000000  0.5189860000000 1.0
C      1  0.5509750000000  0.5388790000000  0.4367290000000 1.0
C      1  0.5521340000000  0.4583680000000  0.4418710000000 1.0
C      1  0.4481030000000  0.4314650000000  0.5307670000000 1.0
C      1  0.4476280000000  0.5002490000000  0.5731880000000 1.0
C      1  0.4477420000000  0.5719970000000  0.5177950000000 1.0
C      1  0.4483070000000  0.5384040000000  0.4340820000000 1.0
C      1  0.4457910000000  0.4577340000000  0.4437460000000 1.0
C      1  0.4844510000000  0.4915090000000  0.5449800000000 1.0
C      1  0.4818550000000  0.5386330000000  0.5205520000000 1.0
C      1  0.4830140000000  0.5317590000000  0.4668760000000 1.0
C      1  0.4833330000000  0.4800300000000  0.4587880000000 1.0
C      1  0.4839480000000  0.4534580000000  0.5065810000000 1.0
C      1  0.5153860000000  0.4913530000000  0.5450130000000 1.0
C      1  0.5134970000000  0.5393670000000  0.5210100000000 1.0
C      1  0.5142830000000  0.5317450000000  0.4674640000000 1.0
C      1  0.5150950000000  0.4801330000000  0.4584890000000 1.0
C      1  0.5150250000000  0.4532400000000  0.5049040000000 1.0
C      1  0.4251340000000  0.5620370000000  0.5305590000000 1.0
C      1  0.4272140000000  0.5502850000000  0.4477250000000 1.0
C      1  0.4289930000000  0.4826640000000  0.4416270000000 1.0
C      1  0.4253550000000  0.4344990000000  0.5150240000000 1.0
C      1  0.4328460000000  0.4787880000000  0.5584850000000 1.0
C      1  0.5722060000000  0.5611310000000  0.5311950000000 1.0
C      1  0.5725070000000  0.5489890000000  0.4509270000000 1.0
C      1  0.5689180000000  0.4838040000000  0.4437120000000 1.0
C      1  0.5732350000000  0.4270430000000  0.5088990000000 1.0
C      1  0.5730560000000  0.4871610000000  0.5668400000000 1.0
C      1  0.4699380000000  0.5398050000000  0.4927530000000 1.0
C      1  0.4683860000000  0.5072580000000  0.4573230000000 1.0
C      1  0.4683780000000  0.4640230000000  0.4813250000000 1.0
C      1  0.4730280000000  0.4671530000000  0.5318550000000 1.0
C      1  0.4688980000000  0.5160230000000  0.5362580000000 1.0
C      1  0.5251390000000  0.5404860000000  0.4937240000000 1.0
C      1  0.5302830000000  0.5072890000000  0.4592790000000 1.0
C      1  0.5271240000000  0.4622620000000  0.4792080000000 1.0
C      1  0.5281870000000  0.4690100000000  0.5272420000000 1.0
C      1  0.5294610000000  0.5169590000000  0.5349050000000 1.0
C      1  0.4452090000000  0.5068780000000  0.4776840000000 1.0
C      1  0.4222660000000  0.4465530000000  0.4900970000000 1.0
C      1  0.4383010000000  0.4846340000000  0.5300420000000 1.0
C      1  0.4243140000000  0.5347310000000  0.5365600000000 1.0
C      1  0.4250240000000  0.5516140000000  0.4754330000000 1.0
C      1  0.5528370000000  0.5089780000000  0.4807400000000 1.0
C      1  0.5720370000000  0.4452960000000  0.4877370000000 1.0
C      1  0.5736350000000  0.4711980000000  0.5439140000000 1.0
C      1  0.5734320000000  0.5343260000000  0.5389110000000 1.0
C      1  0.5719140000000  0.5483310000000  0.4786970000000 1.0
C      1  0.5154440000000  0.4300290000000  0.5609870000000 1.0
C      1  0.5127740000000  0.5386240000000  0.5817340000000 1.0
C      1  0.5129690000000  0.5913300000000  0.4888220000000 1.0
C      1  0.5126120000000  0.5179770000000  0.4108720000000 1.0
C      1  0.5102160000000  0.4190330000000  0.4539980000000 1.0
C      1  0.4887690000000  0.4361230000000  0.5583320000000 1.0
C      1  0.4849240000000  0.5374360000000  0.5810170000000 1.0
C      1  0.4852250000000  0.5909770000000  0.4882180000000 1.0
C      1  0.4861280000000  0.5161710000000  0.4175720000000 1.0
C      1  0.4844640000000  0.4282960000000  0.4602300000000 1.0
C      1  0.5493880000000  0.5270380000000  0.5552820000000 1.0
C      1  0.5465920000000  0.5602900000000  0.4908060000000 1.0
C      1  0.5541590000000  0.5076660000000  0.4289700000000 1.0
C      1  0.5481420000000  0.4442680000000  0.4692290000000 1.0
C      1  0.5492060000000  0.4534490000000  0.5417250000000 1.0
C      1  0.4481520000000  0.5258580000000  0.5546540000000 1.0
C      1  0.4503710000000  0.5614080000000  0.4890960000000 1.0
C      1  0.4442860000000  0.5058350000000  0.4268070000000 1.0
C      1  0.4418610000000  0.4384140000000  0.4690100000000 1.0
C      1  0.4475380000000  0.4514820000000  0.5569130000000 1.0
C      1  0.4120020000000  0.4741750000000  0.4895790000000 1.0
C      1  0.4132060000000  0.4889270000000  0.5156420000000 1.0
C      1  0.4144090000000  0.5182850000000  0.5136280000000 1.0
C      1  0.4122970000000  0.5270160000000  0.4852480000000 1.0
C      1  0.4190850000000  0.4936050000000  0.4676900000000 1.0
C      1  0.5816590000000  0.4722700000000  0.4930780000000 1.0
C      1  0.5794390000000  0.4858250000000  0.5192580000000 1.0
C      1  0.5805960000000  0.5154010000000  0.5176170000000 1.0
C      1  0.5870050000000  0.5254570000000  0.4901690000000 1.0
C      1  0.5776450000000  0.4926160000000  0.4717680000000 1.0
C      1  0.5317650000000  0.5510870000000  0.5634870000000 1.0
C      1  0.5315280000000  0.5776700000000  0.4705890000000 1.0
C      1  0.5300730000000  0.4958590000000  0.4163910000000 1.0
C      1  0.5314710000000  0.4186070000000  0.4741130000000 1.0
C      1  0.5336890000000  0.4519130000000  0.5677780000000 1.0
C      1  0.4652600000000  0.5504550000000  0.5635810000000 1.0
C      1  0.4674250000000  0.5772950000000  0.4693440000000 1.0
C      1  0.4695290000000  0.4925850000000  0.4158190000000 1.0
C      1  0.4655770000000  0.4202630000000  0.4810060000000 1.0
C      1  0.4731060000000  0.4550330000000  0.5740110000000 1.0
C      1  0.5248560000000  0.5520150000000  0.4478410000000 1.0
C      1  0.5245810000000  0.4687950000000  0.4321940000000 1.0
C      1  0.5248890000000  0.4246460000000  0.5084360000000 1.0
C      1  0.5258550000000  0.4861580000000  0.5732810000000 1.0
C      1  0.5235890000000  0.5648420000000  0.5346020000000 1.0
C      1  0.4741750000000  0.5518950000000  0.4463620000000 1.0
C      1  0.4737840000000  0.4670730000000  0.4334930000000 1.0
C      1  0.4731860000000  0.4257520000000  0.5120760000000 1.0
C      1  0.4759760000000  0.4867830000000  0.5735240000000 1.0
C      1  0.4728330000000  0.5647030000000  0.5337240000000 1.0
C      1  0.5006820000000  0.5024220000000  0.5868680000000 1.0
C      1  0.4999590000000  0.4469300000000  0.4301960000000 1.0
C      1  0.5010750000000  0.4160040000000  0.5279070000000 1.0
C      1  0.4983040000000  0.5827460000000  0.5235830000000 1.0
C      1  0.5004660000000  0.5505520000000  0.4279550000000 1.0
C      1  0.4588310000000  0.4893160000000  0.4971730000000 1.0
C      1  0.5397300000000  0.5010280000000  0.5075760000000 1.0
C      1  0.5119990000000  0.4986080000000  0.4986710000000 1.0
C      1  0.4858700000000  0.4994380000000  0.4998170000000 1.0
END
