TITL C-3577086-586-26 -2.32259151611443e-06 125000 -357.223829649404 0 0 62 (D3) n - 1
REM
REM in /home/bkarasulu/work/CARBON/AIRSS/Generating-Clusters/EDIP-Nigel-Params/with-SteepDescent/Higher-Symm/SD-CG/HFTN-CG
REM
REM
REM
REM
REM
REM ./C.cell (12c818d87b63d06a65506943cc24bca4)
REM
REM compiler GCC version 9.2.1 20190827 (Red Hat 9.2.1-1)
REM options -cpp -mtune=generic -march=x86-64 -g -O0 -fpre-include=/usr/include/finclude/math-vector-fortran.h
REM seed 508859963 758501164 -1018576727 280912340 -253837861 255112356 1033497060 -609237292 -866473104 1372677427 -1832230789 -569316979 1259849607 2118812606 -1351434263 2132482219 1475678584 -410969287 282227722 187953850 -1998972307 1454726574 -1336806857 -559614682 -245831976 -519338684 728401381 1969583299 -360297489 -317755890 842921783 -2108898845 -1284283057
REM
CELL 1.54180   50.00000   50.00000   50.00000   90.00000   90.00000   90.00000
LATT -1
SFAC C  
C      1  0.5275440000000  0.4573710000000  0.4455720000000 1.0
C      1  0.5337110000000  0.4574780000000  0.5513890000000 1.0
C      1  0.4389870000000  0.4576260000000  0.5038210000000 1.0
C      1  0.4716340000000  0.5391160000000  0.4460760000000 1.0
C      1  0.4677190000000  0.5392450000000  0.5520000000000 1.0
C      1  0.5614100000000  0.5389890000000  0.5024280000000 1.0
C      1  0.4920600000000  0.5302640000000  0.4285260000000 1.0
C      1  0.5663760000000  0.5302190000000  0.5289250000000 1.0
C      1  0.4422700000000  0.5305000000000  0.5430840000000 1.0
C      1  0.5067490000000  0.4661850000000  0.4284410000000 1.0
C      1  0.4345850000000  0.4664540000000  0.5303970000000 1.0
C      1  0.5589640000000  0.4662030000000  0.5419140000000 1.0
C      1  0.5522420000000  0.4475170000000  0.4892650000000 1.0
C      1  0.4835000000000  0.4477330000000  0.5509670000000 1.0
C      1  0.4644360000000  0.4476710000000  0.4605830000000 1.0
C      1  0.4478700000000  0.5490690000000  0.4902620000000 1.0
C      1  0.5179090000000  0.5489880000000  0.5504890000000 1.0
C      1  0.5350470000000  0.5488480000000  0.4597200000000 1.0
C      1  0.5171280000000  0.4654830000000  0.5169190000000 1.0
C      1  0.4771480000000  0.4655570000000  0.5066670000000 1.0
C      1  0.5060160000000  0.4654620000000  0.4771690000000 1.0
C      1  0.4835650000000  0.5311630000000  0.5172030000000 1.0
C      1  0.5233180000000  0.5310650000000  0.5061030000000 1.0
C      1  0.4938290000000  0.5310950000000  0.4772250000000 1.0
C      1  0.4246900000000  0.5042060000000  0.4880910000000 1.0
C      1  0.5484180000000  0.5038890000000  0.4408910000000 1.0
C      1  0.5274310000000  0.5040820000000  0.5716420000000 1.0
C      1  0.5753700000000  0.4923740000000  0.4865010000000 1.0
C      1  0.4506660000000  0.4925890000000  0.4419430000000 1.0
C      1  0.4744300000000  0.4926860000000  0.5722180000000 1.0
C      1  0.4525830000000  0.5120560000000  0.5212120000000 1.0
C      1  0.5058050000000  0.5118600000000  0.4484580000000 1.0
C      1  0.5422010000000  0.5118760000000  0.5309260000000 1.0
C      1  0.5481880000000  0.4845980000000  0.5202260000000 1.0
C      1  0.4934310000000  0.4846330000000  0.4486200000000 1.0
C      1  0.4587960000000  0.4848010000000  0.5318430000000 1.0
C      1  0.5296450000000  0.4406370000000  0.5049630000000 1.0
C      1  0.4811890000000  0.4407610000000  0.5235730000000 1.0
C      1  0.4893000000000  0.4406860000000  0.4723030000000 1.0
C      1  0.4707960000000  0.5559830000000  0.5054610000000 1.0
C      1  0.5196370000000  0.5558990000000  0.5230360000000 1.0
C      1  0.5104370000000  0.5558600000000  0.4719510000000 1.0
C      1  0.5523080000000  0.5133600000000  0.5602920000000 1.0
C      1  0.4221020000000  0.5135870000000  0.5152770000000 1.0
C      1  0.5261890000000  0.5132630000000  0.4250230000000 1.0
C      1  0.4493170000000  0.4833830000000  0.5614200000000 1.0
C      1  0.5785360000000  0.4830540000000  0.5136470000000 1.0
C      1  0.4725530000000  0.4831800000000  0.4256270000000 1.0
C      1  0.5426160000000  0.4787540000000  0.4558110000000 1.0
C      1  0.5173550000000  0.4789250000000  0.5592470000000 1.0
C      1  0.4404070000000  0.4790060000000  0.4856510000000 1.0
C      1  0.4567830000000  0.5177560000000  0.4566800000000 1.0
C      1  0.4842390000000  0.5178150000000  0.5595560000000 1.0
C      1  0.5596040000000  0.5175690000000  0.4843410000000 1.0
C      1  0.5530200000000  0.5269430000000  0.4586610000000 1.0
C      1  0.5097920000000  0.5271570000000  0.5666610000000 1.0
C      1  0.4378750000000  0.5272070000000  0.4752240000000 1.0
C      1  0.4464440000000  0.4695750000000  0.4598580000000 1.0
C      1  0.4919590000000  0.4695990000000  0.5669150000000 1.0
C      1  0.5619150000000  0.4693450000000  0.4739690000000 1.0
C      1  0.5000240000000  0.4308920000000  0.5002910000000 1.0
C      1  0.5003110000000  0.5657160000000  0.5001380000000 1.0
END
