TITL C-3578201-9217-612 -2.83663047658007e-06 125000 -1011.26415755323 0 0 163 (C1) n - 1
REM
REM in /home/bkarasulu/work/CARBON/AIRSS/Generating-Clusters/EDIP-Nigel-Params/with-SteepDescent/Higher-Symm/SD-CG/HFTN-CG
REM
REM
REM
REM
REM
REM ./C.cell (12c818d87b63d06a65506943cc24bca4)
REM
REM compiler GCC version 9.2.1 20190827 (Red Hat 9.2.1-1)
REM options -cpp -mtune=generic -march=x86-64 -g -O0 -fpre-include=/usr/include/finclude/math-vector-fortran.h
REM seed -640089435 1104368511 351101659 1605127347 386534549 1156713678 606342113 426922200 -1688171719 -1248183982 980004662 -1035893374 94121254 -345703043 -1797100914 903951039 -1990602093 1718931854 -1799073612 930104827 899077890 -327810497 -114323515 1403756474 918877767 -1672106754 271615616 -322966898 965409291 -803776730 -409886103 -1476145286 -518888410
REM
CELL 1.54180   50.00000   50.00000   50.00000   90.00000   90.00000   90.00000
LATT -1
SFAC C  
C      1  0.4901730000000  0.4397590000000  0.5258580000000 1.0
C      1  0.4908330000000  0.5586760000000  0.4715470000000 1.0
C      1  0.4889450000000  0.5603810000000  0.5318920000000 1.0
C      1  0.4904940000000  0.4413460000000  0.4740700000000 1.0
C      1  0.5499910000000  0.4344550000000  0.5685630000000 1.0
C      1  0.5509600000000  0.5673930000000  0.4290440000000 1.0
C      1  0.5538470000000  0.5654970000000  0.5690620000000 1.0
C      1  0.5510110000000  0.4305530000000  0.4280750000000 1.0
C      1  0.5103730000000  0.4024540000000  0.4350390000000 1.0
C      1  0.5134970000000  0.5954370000000  0.5592050000000 1.0
C      1  0.5164930000000  0.5998720000000  0.4323860000000 1.0
C      1  0.5132190000000  0.4014830000000  0.5658800000000 1.0
C      1  0.4357860000000  0.5101380000000  0.5272170000000 1.0
C      1  0.4358650000000  0.4898760000000  0.4829530000000 1.0
C      1  0.4355460000000  0.4815640000000  0.5318450000000 1.0
C      1  0.4360580000000  0.5159930000000  0.4965700000000 1.0
C      1  0.4301460000000  0.4564590000000  0.5708940000000 1.0
C      1  0.4342550000000  0.5324600000000  0.4322700000000 1.0
C      1  0.4313860000000  0.5383190000000  0.5647330000000 1.0
C      1  0.4355300000000  0.4736180000000  0.4364160000000 1.0
C      1  0.5556880000000  0.5389480000000  0.4407110000000 1.0
C      1  0.5579610000000  0.4626580000000  0.5674080000000 1.0
C      1  0.5549140000000  0.4596400000000  0.4325690000000 1.0
C      1  0.5598040000000  0.5366430000000  0.5674170000000 1.0
C      1  0.4183500000000  0.4320450000000  0.5574720000000 1.0
C      1  0.4188200000000  0.5560700000000  0.4429150000000 1.0
C      1  0.4187440000000  0.5630570000000  0.5536950000000 1.0
C      1  0.4236040000000  0.4487300000000  0.4475010000000 1.0
C      1  0.4718310000000  0.5160710000000  0.4038340000000 1.0
C      1  0.4635380000000  0.4792130000000  0.6000580000000 1.0
C      1  0.4678590000000  0.4858210000000  0.3964760000000 1.0
C      1  0.4644560000000  0.5185580000000  0.5964810000000 1.0
C      1  0.5056910000000  0.4461500000000  0.4194500000000 1.0
C      1  0.5050060000000  0.5539800000000  0.5809470000000 1.0
C      1  0.5042000000000  0.5570450000000  0.4207410000000 1.0
C      1  0.5012490000000  0.4436840000000  0.5806500000000 1.0
C      1  0.4925020000000  0.4472530000000  0.3930360000000 1.0
C      1  0.4940030000000  0.5549880000000  0.6083130000000 1.0
C      1  0.4916560000000  0.5562480000000  0.3939680000000 1.0
C      1  0.4890660000000  0.4423720000000  0.6079540000000 1.0
C      1  0.5100110000000  0.5278400000000  0.4299270000000 1.0
C      1  0.5024200000000  0.4727000000000  0.5720770000000 1.0
C      1  0.5137120000000  0.4744540000000  0.4283910000000 1.0
C      1  0.5064440000000  0.5234760000000  0.5714440000000 1.0
C      1  0.4472950000000  0.5442390000000  0.5889340000000 1.0
C      1  0.4567630000000  0.4662610000000  0.4176870000000 1.0
C      1  0.4477320000000  0.4506940000000  0.5939300000000 1.0
C      1  0.4516310000000  0.5401630000000  0.4100080000000 1.0
C      1  0.5099520000000  0.4832090000000  0.6000390000000 1.0
C      1  0.5175530000000  0.5176120000000  0.4020020000000 1.0
C      1  0.5108610000000  0.5130130000000  0.6000180000000 1.0
C      1  0.5167920000000  0.4866870000000  0.4010070000000 1.0
C      1  0.4345130000000  0.5731510000000  0.5109920000000 1.0
C      1  0.4538190000000  0.4345820000000  0.4861340000000 1.0
C      1  0.4484700000000  0.4357430000000  0.5163170000000 1.0
C      1  0.4405000000000  0.5654520000000  0.4828690000000 1.0
C      1  0.4802260000000  0.3969190000000  0.5275710000000 1.0
C      1  0.4710070000000  0.6018470000000  0.4699750000000 1.0
C      1  0.4810360000000  0.5867920000000  0.5193390000000 1.0
C      1  0.4783400000000  0.3991370000000  0.4751590000000 1.0
C      1  0.4748540000000  0.5129570000000  0.5675690000000 1.0
C      1  0.4916540000000  0.4871780000000  0.4430890000000 1.0
C      1  0.4731020000000  0.4832640000000  0.5704330000000 1.0
C      1  0.4826740000000  0.5134190000000  0.4331560000000 1.0
C      1  0.4410730000000  0.4121780000000  0.5602670000000 1.0
C      1  0.4378370000000  0.5793170000000  0.4382890000000 1.0
C      1  0.4410740000000  0.5832320000000  0.5562830000000 1.0
C      1  0.4404690000000  0.4246730000000  0.4407440000000 1.0
C      1  0.5083800000000  0.3967670000000  0.5374520000000 1.0
C      1  0.5078750000000  0.6030950000000  0.4593560000000 1.0
C      1  0.5069720000000  0.6024790000000  0.5307220000000 1.0
C      1  0.5059240000000  0.4011840000000  0.4638020000000 1.0
C      1  0.5694160000000  0.5462390000000  0.4662290000000 1.0
C      1  0.5824140000000  0.4438710000000  0.5263350000000 1.0
C      1  0.5748720000000  0.4472840000000  0.4700000000000 1.0
C      1  0.5938440000000  0.5585520000000  0.5152950000000 1.0
C      1  0.5304150000000  0.5183870000000  0.5514510000000 1.0
C      1  0.5447180000000  0.4892890000000  0.4550470000000 1.0
C      1  0.5413260000000  0.4893110000000  0.5452710000000 1.0
C      1  0.5318700000000  0.5214210000000  0.4511020000000 1.0
C      1  0.5486370000000  0.5176320000000  0.3953650000000 1.0
C      1  0.5375460000000  0.4775280000000  0.6080180000000 1.0
C      1  0.5476830000000  0.4865030000000  0.3923550000000 1.0
C      1  0.5380810000000  0.5189200000000  0.6086800000000 1.0
C      1  0.5238080000000  0.4778470000000  0.4767200000000 1.0
C      1  0.5195930000000  0.5274890000000  0.5247840000000 1.0
C      1  0.5207590000000  0.5267640000000  0.4801640000000 1.0
C      1  0.5203870000000  0.4797600000000  0.5234380000000 1.0
C      1  0.5552300000000  0.5655570000000  0.4839150000000 1.0
C      1  0.5696590000000  0.4240900000000  0.5108570000000 1.0
C      1  0.5558930000000  0.4323700000000  0.4859350000000 1.0
C      1  0.5708170000000  0.5721620000000  0.5075020000000 1.0
C      1  0.4876640000000  0.4334540000000  0.4409380000000 1.0
C      1  0.4863300000000  0.5675750000000  0.5620880000000 1.0
C      1  0.4878070000000  0.5715780000000  0.4419530000000 1.0
C      1  0.4860790000000  0.4281840000000  0.5585360000000 1.0
C      1  0.4156850000000  0.4649350000000  0.5189280000000 1.0
C      1  0.4088440000000  0.5291890000000  0.4861510000000 1.0
C      1  0.4056140000000  0.5321020000000  0.5161100000000 1.0
C      1  0.4156470000000  0.4702890000000  0.4904380000000 1.0
C      1  0.5940390000000  0.5072810000000  0.4618640000000 1.0
C      1  0.5683710000000  0.4914840000000  0.5301740000000 1.0
C      1  0.5712070000000  0.4933330000000  0.4712790000000 1.0
C      1  0.5764260000000  0.5151170000000  0.5178740000000 1.0
C      1  0.5255390000000  0.5761950000000  0.4192090000000 1.0
C      1  0.5247080000000  0.4254120000000  0.5789960000000 1.0
C      1  0.5244820000000  0.4232820000000  0.4191140000000 1.0
C      1  0.5271580000000  0.5743490000000  0.5763320000000 1.0
C      1  0.4149040000000  0.5546280000000  0.4727050000000 1.0
C      1  0.4128170000000  0.4378730000000  0.5288080000000 1.0
C      1  0.4098840000000  0.4500710000000  0.4721000000000 1.0
C      1  0.4131400000000  0.5593200000000  0.5249540000000 1.0
C      1  0.4742430000000  0.4677320000000  0.4851340000000 1.0
C      1  0.4720740000000  0.5367700000000  0.5258050000000 1.0
C      1  0.4667390000000  0.5375690000000  0.4755300000000 1.0
C      1  0.4733580000000  0.4656140000000  0.5174080000000 1.0
C      1  0.5946170000000  0.5323830000000  0.5052470000000 1.0
C      1  0.5802050000000  0.4698950000000  0.4855900000000 1.0
C      1  0.5743970000000  0.4679360000000  0.5141110000000 1.0
C      1  0.5924490000000  0.5319090000000  0.4754060000000 1.0
C      1  0.5562020000000  0.5145550000000  0.5871660000000 1.0
C      1  0.5639390000000  0.4822210000000  0.4164800000000 1.0
C      1  0.5547580000000  0.4842260000000  0.5867100000000 1.0
C      1  0.5662820000000  0.5190830000000  0.4193280000000 1.0
C      1  0.4495900000000  0.4706380000000  0.5542940000000 1.0
C      1  0.4566110000000  0.5209880000000  0.4499650000000 1.0
C      1  0.4537400000000  0.5257850000000  0.5462590000000 1.0
C      1  0.4411770000000  0.4953380000000  0.4556450000000 1.0
C      1  0.5230590000000  0.4474570000000  0.4874260000000 1.0
C      1  0.5176430000000  0.5556540000000  0.5208990000000 1.0
C      1  0.5239750000000  0.5556680000000  0.4906930000000 1.0
C      1  0.5178170000000  0.4502630000000  0.5173200000000 1.0
C      1  0.4880750000000  0.5277910000000  0.6132050000000 1.0
C      1  0.4930160000000  0.4745710000000  0.3855800000000 1.0
C      1  0.4877190000000  0.4699450000000  0.6154270000000 1.0
C      1  0.4938820000000  0.5289660000000  0.3869100000000 1.0
C      1  0.4599130000000  0.5703900000000  0.5756700000000 1.0
C      1  0.4624030000000  0.4365200000000  0.4242510000000 1.0
C      1  0.4608100000000  0.4252280000000  0.5783640000000 1.0
C      1  0.4609850000000  0.5670410000000  0.4244270000000 1.0
C      1  0.4944360000000  0.4874760000000  0.4724200000000 1.0
C      1  0.4921670000000  0.5165020000000  0.5162280000000 1.0
C      1  0.4919670000000  0.5165220000000  0.4854360000000 1.0
C      1  0.4916530000000  0.4885540000000  0.5274960000000 1.0
C      1  0.4508930000000  0.4116890000000  0.4673680000000 1.0
C      1  0.4516500000000  0.5894010000000  0.5282010000000 1.0
C      1  0.4451440000000  0.5895160000000  0.4654450000000 1.0
C      1  0.4542320000000  0.4112670000000  0.5333600000000 1.0
C      1  0.5620400000000  0.5849960000000  0.5507850000000 1.0
C      1  0.5572290000000  0.4098100000000  0.4459530000000 1.0
C      1  0.5593070000000  0.4133430000000  0.5527850000000 1.0
C      1  0.5599340000000  0.5898400000000  0.4436530000000 1.0
C      1  0.5286180000000  0.3998800000000  0.5153040000000 1.0
C      1  0.5288890000000  0.6026250000000  0.4811010000000 1.0
C      1  0.5297310000000  0.5973320000000  0.5117260000000 1.0
C      1  0.5275950000000  0.3974790000000  0.4842960000000 1.0
C      1  0.5532450000000  0.4062510000000  0.4733340000000 1.0
C      1  0.5564730000000  0.5904210000000  0.5239330000000 1.0
C      1  0.5540430000000  0.5916900000000  0.4709950000000 1.0
C      1  0.5552100000000  0.4051130000000  0.5263090000000 1.0
C      1  0.4853460000000  0.4094750000000  0.5019180000000 1.0
C      1  0.4822500000000  0.5824780000000  0.4886330000000 1.0
C      1  0.5303060000000  0.4941440000000  0.4992280000000 1.0
END
