TITL C-3578205-846-589 -1.06439828747671e-06 125000 -943.322569220965 0 0 151 (C1) n - 1
REM
REM in /home/bkarasulu/work/CARBON/AIRSS/Generating-Clusters/EDIP-Nigel-Params/with-SteepDescent/Higher-Symm/SD-CG/HFTN-CG
REM
REM
REM
REM
REM
REM ./C.cell (12c818d87b63d06a65506943cc24bca4)
REM
REM compiler GCC version 9.2.1 20190827 (Red Hat 9.2.1-1)
REM options -cpp -mtune=generic -march=x86-64 -g -O0 -fpre-include=/usr/include/finclude/math-vector-fortran.h
REM seed -1940723332 790742195 -1563732641 1880053966 -980028161 -1046381532 141961779 -740637482 -1243547635 -2035938837 2012986788 2029289551 1063236783 -2137608245 -410359758 -1669063437 511084542 45012274 691830623 -1439809711 -1432472847 1771520692 1171200951 -537093074 1709903562 269892517 -601729970 1991281638 1117580593 187420852 -263583008 969129896 -721878105
REM
CELL 1.54180   50.00000   50.00000   50.00000   90.00000   90.00000   90.00000
LATT -1
SFAC C  
C      1  0.4888850000000  0.4774960000000  0.4023850000000 1.0
C      1  0.4140720000000  0.4565660000000  0.5518930000000 1.0
C      1  0.5885340000000  0.4767300000000  0.5536840000000 1.0
C      1  0.4993630000000  0.5260620000000  0.5846200000000 1.0
C      1  0.4088220000000  0.5360110000000  0.4316190000000 1.0
C      1  0.5887180000000  0.5343270000000  0.4551960000000 1.0
C      1  0.4318680000000  0.4882110000000  0.5378730000000 1.0
C      1  0.5824390000000  0.5061250000000  0.5576170000000 1.0
C      1  0.4954560000000  0.5061100000000  0.4034370000000 1.0
C      1  0.4055760000000  0.5097980000000  0.4436850000000 1.0
C      1  0.5647980000000  0.5069080000000  0.4698580000000 1.0
C      1  0.5078150000000  0.4977350000000  0.5846850000000 1.0
C      1  0.4202460000000  0.5198220000000  0.4929090000000 1.0
C      1  0.5474320000000  0.5356770000000  0.5785690000000 1.0
C      1  0.5401240000000  0.5317810000000  0.4082830000000 1.0
C      1  0.4116450000000  0.4643310000000  0.4982780000000 1.0
C      1  0.5553560000000  0.4785860000000  0.4287530000000 1.0
C      1  0.5525400000000  0.4721510000000  0.5882470000000 1.0
C      1  0.5918880000000  0.4887310000000  0.5055390000000 1.0
C      1  0.4417660000000  0.4916570000000  0.4135500000000 1.0
C      1  0.4578200000000  0.4869360000000  0.5859790000000 1.0
C      1  0.5932930000000  0.5166170000000  0.5114100000000 1.0
C      1  0.4527860000000  0.5129720000000  0.5742930000000 1.0
C      1  0.4503980000000  0.5196050000000  0.4111410000000 1.0
C      1  0.5716570000000  0.4583600000000  0.5701810000000 1.0
C      1  0.5331950000000  0.4842040000000  0.4115840000000 1.0
C      1  0.4185380000000  0.4490330000000  0.5221050000000 1.0
C      1  0.5630660000000  0.5320240000000  0.4266740000000 1.0
C      1  0.5196260000000  0.5449820000000  0.5767060000000 1.0
C      1  0.4042330000000  0.5109890000000  0.4716700000000 1.0
C      1  0.4792630000000  0.5227340000000  0.4843010000000 1.0
C      1  0.5142930000000  0.5098910000000  0.5245690000000 1.0
C      1  0.5087830000000  0.5155980000000  0.4808460000000 1.0
C      1  0.4834410000000  0.4786990000000  0.5096570000000 1.0
C      1  0.5019010000000  0.4637220000000  0.4493730000000 1.0
C      1  0.5320310000000  0.4698640000000  0.5174720000000 1.0
C      1  0.5290450000000  0.4398250000000  0.4151070000000 1.0
C      1  0.4482420000000  0.4471720000000  0.5240020000000 1.0
C      1  0.5550560000000  0.4440960000000  0.5495560000000 1.0
C      1  0.5100190000000  0.5569330000000  0.5506900000000 1.0
C      1  0.4306980000000  0.5689550000000  0.4765300000000 1.0
C      1  0.5482120000000  0.5497210000000  0.4472660000000 1.0
C      1  0.4827890000000  0.4715040000000  0.5384980000000 1.0
C      1  0.5477300000000  0.4507830000000  0.5036110000000 1.0
C      1  0.4859080000000  0.4381700000000  0.4577140000000 1.0
C      1  0.4773710000000  0.5527130000000  0.4909250000000 1.0
C      1  0.5245800000000  0.5403240000000  0.4939310000000 1.0
C      1  0.4873800000000  0.5200060000000  0.5292720000000 1.0
C      1  0.5141320000000  0.4398690000000  0.6072640000000 1.0
C      1  0.5653660000000  0.4418100000000  0.4575710000000 1.0
C      1  0.4003680000000  0.4418750000000  0.4526840000000 1.0
C      1  0.5057830000000  0.5691870000000  0.4029290000000 1.0
C      1  0.5834340000000  0.5686820000000  0.5601420000000 1.0
C      1  0.4331800000000  0.5552260000000  0.5242160000000 1.0
C      1  0.5520670000000  0.5390570000000  0.4773840000000 1.0
C      1  0.4593110000000  0.5652280000000  0.4716260000000 1.0
C      1  0.4821990000000  0.5443080000000  0.5437770000000 1.0
C      1  0.5697350000000  0.4432130000000  0.5219880000000 1.0
C      1  0.4552100000000  0.4664060000000  0.5468820000000 1.0
C      1  0.5113090000000  0.4646310000000  0.4188120000000 1.0
C      1  0.5875890000000  0.5625370000000  0.4890560000000 1.0
C      1  0.4413150000000  0.5678960000000  0.4291340000000 1.0
C      1  0.4646640000000  0.5645450000000  0.5819310000000 1.0
C      1  0.5769110000000  0.4135440000000  0.5185230000000 1.0
C      1  0.4440000000000  0.4389610000000  0.5790360000000 1.0
C      1  0.4614830000000  0.4396860000000  0.4152230000000 1.0
C      1  0.5287050000000  0.5904290000000  0.5236100000000 1.0
C      1  0.5125830000000  0.5796100000000  0.4627570000000 1.0
C      1  0.4624760000000  0.5910280000000  0.5261900000000 1.0
C      1  0.5281100000000  0.4171210000000  0.4725930000000 1.0
C      1  0.5012590000000  0.4211420000000  0.5474350000000 1.0
C      1  0.4522720000000  0.4150460000000  0.4851960000000 1.0
C      1  0.4673290000000  0.5674840000000  0.4445270000000 1.0
C      1  0.4411230000000  0.5728740000000  0.5681110000000 1.0
C      1  0.5625620000000  0.5671590000000  0.5013870000000 1.0
C      1  0.4739360000000  0.4409950000000  0.5761690000000 1.0
C      1  0.4589650000000  0.4360240000000  0.4440720000000 1.0
C      1  0.5689700000000  0.3979130000000  0.4950570000000 1.0
C      1  0.5847940000000  0.4601870000000  0.4669520000000 1.0
C      1  0.4085030000000  0.4611830000000  0.4345940000000 1.0
C      1  0.4902190000000  0.4557330000000  0.6076390000000 1.0
C      1  0.5991310000000  0.5504520000000  0.5467050000000 1.0
C      1  0.4270300000000  0.5348250000000  0.5423290000000 1.0
C      1  0.4850420000000  0.5519360000000  0.3964990000000 1.0
C      1  0.4186750000000  0.5675900000000  0.4491480000000 1.0
C      1  0.4844100000000  0.5845420000000  0.5788890000000 1.0
C      1  0.5864740000000  0.5676510000000  0.4596040000000 1.0
C      1  0.4298450000000  0.4245050000000  0.5573190000000 1.0
C      1  0.4858150000000  0.4253190000000  0.4102750000000 1.0
C      1  0.5720880000000  0.4004710000000  0.5430020000000 1.0
C      1  0.5385230000000  0.5915750000000  0.4618570000000 1.0
C      1  0.4507500000000  0.6028310000000  0.5034690000000 1.0
C      1  0.5158430000000  0.6040570000000  0.5442050000000 1.0
C      1  0.5256460000000  0.4079360000000  0.5471040000000 1.0
C      1  0.4434790000000  0.4034060000000  0.5098920000000 1.0
C      1  0.5051270000000  0.4150160000000  0.4525210000000 1.0
C      1  0.4620150000000  0.4584420000000  0.4989190000000 1.0
C      1  0.5301860000000  0.4638960000000  0.5467180000000 1.0
C      1  0.5254040000000  0.4688960000000  0.4663930000000 1.0
C      1  0.4698300000000  0.5070490000000  0.5080080000000 1.0
C      1  0.5195780000000  0.5112200000000  0.4502980000000 1.0
C      1  0.5394790000000  0.5228140000000  0.5318560000000 1.0
C      1  0.5408750000000  0.4448000000000  0.4752460000000 1.0
C      1  0.4745550000000  0.4346620000000  0.4856610000000 1.0
C      1  0.5018470000000  0.4520550000000  0.5512390000000 1.0
C      1  0.5312690000000  0.5520150000000  0.5276370000000 1.0
C      1  0.4645300000000  0.5607170000000  0.5219920000000 1.0
C      1  0.5057890000000  0.5629180000000  0.4860740000000 1.0
C      1  0.5567840000000  0.4486470000000  0.4291990000000 1.0
C      1  0.3967230000000  0.4521260000000  0.4781170000000 1.0
C      1  0.5378350000000  0.4541870000000  0.6036670000000 1.0
C      1  0.5661220000000  0.5563800000000  0.5777900000000 1.0
C      1  0.4220890000000  0.5485970000000  0.4975770000000 1.0
C      1  0.5290600000000  0.5573090000000  0.4138180000000 1.0
C      1  0.4205420000000  0.5796240000000  0.5355160000000 1.0
C      1  0.5720620000000  0.5877140000000  0.5436560000000 1.0
C      1  0.4983560000000  0.5925250000000  0.4164020000000 1.0
C      1  0.4144250000000  0.4177270000000  0.4520270000000 1.0
C      1  0.5743100000000  0.4140560000000  0.4602630000000 1.0
C      1  0.5094120000000  0.4154080000000  0.5937930000000 1.0
C      1  0.4417820000000  0.4163520000000  0.4573760000000 1.0
C      1  0.4894590000000  0.4158350000000  0.5735710000000 1.0
C      1  0.5516800000000  0.3985830000000  0.4706310000000 1.0
C      1  0.4422870000000  0.5940070000000  0.5481310000000 1.0
C      1  0.4915390000000  0.5839300000000  0.4422830000000 1.0
C      1  0.5565740000000  0.5871300000000  0.5206810000000 1.0
C      1  0.5977530000000  0.5237120000000  0.5390570000000 1.0
C      1  0.4755480000000  0.5260350000000  0.3992780000000 1.0
C      1  0.4311480000000  0.5116480000000  0.5557530000000 1.0
C      1  0.5843180000000  0.4854320000000  0.4784170000000 1.0
C      1  0.4856550000000  0.4799610000000  0.5927950000000 1.0
C      1  0.4185880000000  0.4867840000000  0.4303740000000 1.0
C      1  0.5511160000000  0.4150970000000  0.5546050000000 1.0
C      1  0.5105600000000  0.4170360000000  0.4224310000000 1.0
C      1  0.4487920000000  0.4183720000000  0.5333530000000 1.0
C      1  0.5592390000000  0.5772900000000  0.4486330000000 1.0
C      1  0.5055120000000  0.5839660000000  0.5605610000000 1.0
C      1  0.4299680000000  0.5956960000000  0.4873600000000 1.0
C      1  0.5948000000000  0.5341900000000  0.4877160000000 1.0
C      1  0.4321760000000  0.5421100000000  0.4154740000000 1.0
C      1  0.4729000000000  0.5362760000000  0.5730020000000 1.0
C      1  0.5898030000000  0.4669260000000  0.5254130000000 1.0
C      1  0.4357250000000  0.4668680000000  0.5827160000000 1.0
C      1  0.4618690000000  0.4695750000000  0.4090410000000 1.0
C      1  0.5216750000000  0.5105090000000  0.4180740000000 1.0
C      1  0.4384700000000  0.4993930000000  0.5073870000000 1.0
C      1  0.5512850000000  0.5133070000000  0.5588980000000 1.0
C      1  0.5348080000000  0.4881790000000  0.5697360000000 1.0
C      1  0.4378120000000  0.4749560000000  0.4892380000000 1.0
C      1  0.5422560000000  0.4913450000000  0.4544110000000 1.0
C      1  0.5130220000000  0.4881730000000  0.5037930000000 1.0
END
