TITL C-3578205-846-224 -1.54371055697241e-06 125000 -196.919364088471 0 0 32 (Oh) n - 1
REM
REM in /home/bkarasulu/work/CARBON/AIRSS/Generating-Clusters/EDIP-Nigel-Params/with-SteepDescent/Higher-Symm/SD-CG/HFTN-CG
REM
REM
REM
REM
REM
REM ./C.cell (12c818d87b63d06a65506943cc24bca4)
REM
REM compiler GCC version 9.2.1 20190827 (Red Hat 9.2.1-1)
REM options -cpp -mtune=generic -march=x86-64 -g -O0 -fpre-include=/usr/include/finclude/math-vector-fortran.h
REM seed 68348874 -1456748500 -1332774904 -541994427 -1482846133 1741631003 -1270112255 401563150 -898020367 1456306193 313953385 -1174903559 592564415 1100157869 -934719211 -1926308942 986025370 110413415 1847545819 932336851 -457981041 -737888817 -525884419 -1973941525 924042217 -804738398 1165133879 -1875945422 -1767464453 1171843239 -1840892898 1792027700 3837298
REM
CELL 1.54180   50.00000   50.00000   50.00000   90.00000   90.00000   90.00000
LATT -1
SFAC C  
C      1  0.5041210000000  0.5538120000000  0.5155940000000 1.0
C      1  0.5538120000000  0.4958790000000  0.5155940000000 1.0
C      1  0.4958790000000  0.4461880000000  0.5155940000000 1.0
C      1  0.4461880000000  0.5041210000000  0.5155940000000 1.0
C      1  0.5041210000000  0.5538120000000  0.4844060000000 1.0
C      1  0.5538120000000  0.4958790000000  0.4844060000000 1.0
C      1  0.4958790000000  0.4461880000000  0.4844060000000 1.0
C      1  0.4461880000000  0.5041210000000  0.4844060000000 1.0
C      1  0.5263380000000  0.4528940000000  0.5155940000000 1.0
C      1  0.4528940000000  0.4736620000000  0.5155940000000 1.0
C      1  0.4736620000000  0.5471060000000  0.5155940000000 1.0
C      1  0.5471060000000  0.5263380000000  0.5155940000000 1.0
C      1  0.5263380000000  0.4528940000000  0.4844060000000 1.0
C      1  0.4528940000000  0.4736620000000  0.4844060000000 1.0
C      1  0.4736620000000  0.5471060000000  0.4844060000000 1.0
C      1  0.5471060000000  0.5263380000000  0.4844060000000 1.0
C      1  0.4814180000000  0.5118770000000  0.5516670000000 1.0
C      1  0.5118770000000  0.5185820000000  0.5516670000000 1.0
C      1  0.5185820000000  0.4881230000000  0.5516670000000 1.0
C      1  0.4881230000000  0.4814180000000  0.5516670000000 1.0
C      1  0.4814180000000  0.5118770000000  0.4483330000000 1.0
C      1  0.5118770000000  0.5185820000000  0.4483330000000 1.0
C      1  0.5185820000000  0.4881230000000  0.4483330000000 1.0
C      1  0.4881230000000  0.4814180000000  0.4483330000000 1.0
C      1  0.5190840000000  0.5298590000000  0.4749420000000 1.0
C      1  0.5298590000000  0.4809160000000  0.4749420000000 1.0
C      1  0.4809160000000  0.4701410000000  0.4749420000000 1.0
C      1  0.4701410000000  0.5190840000000  0.4749420000000 1.0
C      1  0.5190840000000  0.5298590000000  0.5250580000000 1.0
C      1  0.5298590000000  0.4809160000000  0.5250580000000 1.0
C      1  0.4809160000000  0.4701410000000  0.5250580000000 1.0
C      1  0.4701410000000  0.5190840000000  0.5250580000000 1.0
END
