TITL C-3578207-9274-192 -2.69619422187804e-06 125000 -857.480779125526 0 0 139 (C1) n - 1
REM
REM in /home/bkarasulu/work/CARBON/AIRSS/Generating-Clusters/EDIP-Nigel-Params/with-SteepDescent/Higher-Symm/SD-CG/HFTN-CG
REM
REM
REM
REM
REM
REM ./C.cell (12c818d87b63d06a65506943cc24bca4)
REM
REM compiler GCC version 9.2.1 20190827 (Red Hat 9.2.1-1)
REM options -cpp -mtune=generic -march=x86-64 -g -O0 -fpre-include=/usr/include/finclude/math-vector-fortran.h
REM seed 329151681 -726076461 -138856566 -1058834384 -350555336 879768691 -1895852521 34985935 1510146708 70974718 61642641 -2077812152 -369118924 -165097538 -1471530534 -57748091 -913026721 457459206 -247587125 853086321 1456661916 1110365215 -1799814850 -333477272 1495094955 -1373838384 -284957804 -434166793 -454892686 -42997196 677044107 -1521174705 1117908494
REM
CELL 1.54180   50.00000   50.00000   50.00000   90.00000   90.00000   90.00000
LATT -1
SFAC C  
C      1  0.4645850000000  0.4111930000000  0.5072470000000 1.0
C      1  0.4824300000000  0.4706330000000  0.5722650000000 1.0
C      1  0.4706360000000  0.5598470000000  0.5430210000000 1.0
C      1  0.4993930000000  0.5721700000000  0.4532520000000 1.0
C      1  0.4759590000000  0.4664720000000  0.4012680000000 1.0
C      1  0.5344540000000  0.4091810000000  0.5089060000000 1.0
C      1  0.5176380000000  0.4633520000000  0.5725710000000 1.0
C      1  0.5276930000000  0.5620230000000  0.5440230000000 1.0
C      1  0.5283060000000  0.5748520000000  0.4530650000000 1.0
C      1  0.5033280000000  0.4660250000000  0.3889880000000 1.0
C      1  0.5610860000000  0.5152780000000  0.5662010000000 1.0
C      1  0.5529720000000  0.5683440000000  0.5275980000000 1.0
C      1  0.5434220000000  0.5487550000000  0.4581030000000 1.0
C      1  0.5348140000000  0.4725540000000  0.4515390000000 1.0
C      1  0.5528330000000  0.4291790000000  0.5190570000000 1.0
C      1  0.4484090000000  0.4982790000000  0.5644920000000 1.0
C      1  0.4458930000000  0.5711910000000  0.5233860000000 1.0
C      1  0.4564680000000  0.5304120000000  0.4571450000000 1.0
C      1  0.4394500000000  0.4411190000000  0.4484020000000 1.0
C      1  0.4409890000000  0.4268570000000  0.5185480000000 1.0
C      1  0.3797800000000  0.4734070000000  0.4551300000000 1.0
C      1  0.3754350000000  0.4536470000000  0.5056590000000 1.0
C      1  0.3818930000000  0.4943910000000  0.5389740000000 1.0
C      1  0.3798930000000  0.5419890000000  0.5122460000000 1.0
C      1  0.3850270000000  0.5266330000000  0.4610970000000 1.0
C      1  0.6121400000000  0.4776250000000  0.4617310000000 1.0
C      1  0.6210170000000  0.4576780000000  0.5094380000000 1.0
C      1  0.6243760000000  0.4981290000000  0.5445080000000 1.0
C      1  0.6207340000000  0.5447640000000  0.5177450000000 1.0
C      1  0.6148470000000  0.5306280000000  0.4646310000000 1.0
C      1  0.6046850000000  0.4953780000000  0.5638890000000 1.0
C      1  0.6022210000000  0.5623440000000  0.5295730000000 1.0
C      1  0.5934030000000  0.5416980000000  0.4507840000000 1.0
C      1  0.5863180000000  0.4706460000000  0.4536640000000 1.0
C      1  0.5978560000000  0.4437060000000  0.5144650000000 1.0
C      1  0.4029370000000  0.4879080000000  0.5558660000000 1.0
C      1  0.3968290000000  0.5627140000000  0.5196980000000 1.0
C      1  0.4082470000000  0.5365500000000  0.4498290000000 1.0
C      1  0.3984480000000  0.4630000000000  0.4375420000000 1.0
C      1  0.3920330000000  0.4330680000000  0.5138530000000 1.0
C      1  0.4603390000000  0.4536720000000  0.4977160000000 1.0
C      1  0.4823710000000  0.4793940000000  0.5387040000000 1.0
C      1  0.4707750000000  0.5301580000000  0.5375260000000 1.0
C      1  0.4732020000000  0.5386990000000  0.4883330000000 1.0
C      1  0.4755820000000  0.4935710000000  0.4736720000000 1.0
C      1  0.5086570000000  0.4647010000000  0.4971060000000 1.0
C      1  0.5246400000000  0.4608360000000  0.5434540000000 1.0
C      1  0.5140530000000  0.5338690000000  0.5281270000000 1.0
C      1  0.5333780000000  0.5384610000000  0.4873830000000 1.0
C      1  0.5252850000000  0.5022830000000  0.4582500000000 1.0
C      1  0.4282550000000  0.4770230000000  0.5612630000000 1.0
C      1  0.4200760000000  0.5605110000000  0.5347280000000 1.0
C      1  0.4328900000000  0.5485540000000  0.4538160000000 1.0
C      1  0.4257840000000  0.4623630000000  0.4326700000000 1.0
C      1  0.4152110000000  0.4199170000000  0.5059680000000 1.0
C      1  0.5775050000000  0.4904310000000  0.5675300000000 1.0
C      1  0.5773540000000  0.5584350000000  0.5422970000000 1.0
C      1  0.5722140000000  0.5557830000000  0.4617410000000 1.0
C      1  0.5629220000000  0.4801970000000  0.4417350000000 1.0
C      1  0.5729400000000  0.4401820000000  0.5031260000000 1.0
C      1  0.4244540000000  0.5345470000000  0.5432780000000 1.0
C      1  0.4337910000000  0.5664730000000  0.4749240000000 1.0
C      1  0.4384370000000  0.4863280000000  0.4384950000000 1.0
C      1  0.4211210000000  0.4260230000000  0.4788870000000 1.0
C      1  0.4370410000000  0.4584560000000  0.5406450000000 1.0
C      1  0.5704130000000  0.5298350000000  0.5410020000000 1.0
C      1  0.5759520000000  0.5604870000000  0.4886110000000 1.0
C      1  0.5649220000000  0.5071040000000  0.4339010000000 1.0
C      1  0.5616690000000  0.4612170000000  0.4889710000000 1.0
C      1  0.5683140000000  0.4714570000000  0.5499450000000 1.0
C      1  0.4880400000000  0.4172500000000  0.5223770000000 1.0
C      1  0.4898700000000  0.4926220000000  0.5912880000000 1.0
C      1  0.4893910000000  0.5759880000000  0.5259450000000 1.0
C      1  0.4922520000000  0.5548260000000  0.4315800000000 1.0
C      1  0.4834620000000  0.4539840000000  0.4265210000000 1.0
C      1  0.5133270000000  0.4030100000000  0.5281400000000 1.0
C      1  0.5195110000000  0.4911280000000  0.5860120000000 1.0
C      1  0.5135540000000  0.5862250000000  0.5366220000000 1.0
C      1  0.5140740000000  0.5521970000000  0.4145540000000 1.0
C      1  0.5117850000000  0.4506790000000  0.4220850000000 1.0
C      1  0.5308960000000  0.5987890000000  0.5173570000000 1.0
C      1  0.5273740000000  0.5278310000000  0.4129020000000 1.0
C      1  0.5260460000000  0.4364810000000  0.4419700000000 1.0
C      1  0.5213720000000  0.4068270000000  0.5549110000000 1.0
C      1  0.5309060000000  0.5142410000000  0.5727100000000 1.0
C      1  0.4746980000000  0.5933450000000  0.5085770000000 1.0
C      1  0.4809480000000  0.5275600000000  0.4368720000000 1.0
C      1  0.4682310000000  0.4348890000000  0.4416040000000 1.0
C      1  0.4785880000000  0.4324420000000  0.5438940000000 1.0
C      1  0.4745190000000  0.5161820000000  0.5849950000000 1.0
C      1  0.5180100000000  0.5391570000000  0.5807270000000 1.0
C      1  0.5202840000000  0.6007560000000  0.4908840000000 1.0
C      1  0.5087580000000  0.5074480000000  0.4035400000000 1.0
C      1  0.5123150000000  0.4188850000000  0.4601020000000 1.0
C      1  0.5101540000000  0.4196870000000  0.5772150000000 1.0
C      1  0.4888140000000  0.5412610000000  0.5824350000000 1.0
C      1  0.4914200000000  0.6008430000000  0.4862310000000 1.0
C      1  0.4809670000000  0.5136080000000  0.4097360000000 1.0
C      1  0.4832400000000  0.4188700000000  0.4604500000000 1.0
C      1  0.4822540000000  0.4265240000000  0.5714210000000 1.0
C      1  0.6237990000000  0.4642040000000  0.4828060000000 1.0
C      1  0.6289260000000  0.4762730000000  0.5282610000000 1.0
C      1  0.6282570000000  0.5231230000000  0.5332970000000 1.0
C      1  0.6203350000000  0.5405930000000  0.4901430000000 1.0
C      1  0.6196570000000  0.5040240000000  0.4593900000000 1.0
C      1  0.3745810000000  0.4598870000000  0.4787060000000 1.0
C      1  0.3714960000000  0.4741020000000  0.5236040000000 1.0
C      1  0.3788930000000  0.5202050000000  0.5294080000000 1.0
C      1  0.3769690000000  0.5371370000000  0.4852600000000 1.0
C      1  0.3773440000000  0.5008380000000  0.4552940000000 1.0
C      1  0.5244910000000  0.4406110000000  0.5894130000000 1.0
C      1  0.5318230000000  0.5618700000000  0.5727650000000 1.0
C      1  0.5366510000000  0.5969320000000  0.4684830000000 1.0
C      1  0.5147580000000  0.4905370000000  0.3818330000000 1.0
C      1  0.5262940000000  0.4086960000000  0.4819900000000 1.0
C      1  0.4710090000000  0.4473700000000  0.5865530000000 1.0
C      1  0.4751530000000  0.5639400000000  0.5718780000000 1.0
C      1  0.4835740000000  0.5947170000000  0.4598570000000 1.0
C      1  0.4642070000000  0.4922670000000  0.4026290000000 1.0
C      1  0.4689160000000  0.4055200000000  0.4802950000000 1.0
C      1  0.5423080000000  0.5180030000000  0.5316300000000 1.0
C      1  0.5554250000000  0.5501240000000  0.5044250000000 1.0
C      1  0.5408100000000  0.5219240000000  0.4392680000000 1.0
C      1  0.5348130000000  0.4648030000000  0.4807430000000 1.0
C      1  0.5495240000000  0.4667140000000  0.5293970000000 1.0
C      1  0.4457670000000  0.5157300000000  0.5405790000000 1.0
C      1  0.4503660000000  0.5584630000000  0.4959920000000 1.0
C      1  0.4486640000000  0.5006810000000  0.4599590000000 1.0
C      1  0.4369560000000  0.4505110000000  0.4783300000000 1.0
C      1  0.4557210000000  0.4724750000000  0.5228790000000 1.0
C      1  0.5048460000000  0.5444510000000  0.4991960000000 1.0
C      1  0.4959930000000  0.5075510000000  0.4560350000000 1.0
C      1  0.5015470000000  0.4585860000000  0.5266290000000 1.0
C      1  0.4927660000000  0.5111060000000  0.5356440000000 1.0
C      1  0.4833900000000  0.4659070000000  0.4824680000000 1.0
C      1  0.5354130000000  0.5086660000000  0.4868890000000 1.0
C      1  0.4696270000000  0.5100740000000  0.4979800000000 1.0
C      1  0.5442610000000  0.4943180000000  0.5126910000000 1.0
C      1  0.4471920000000  0.5000080000000  0.5150130000000 1.0
END
