TITL C-3577086-586-489 -1.69540412120986e-06 125000 -1077.74652684655 0 0 176 (D2) n - 1
REM
REM in /home/bkarasulu/work/CARBON/AIRSS/Generating-Clusters/EDIP-Nigel-Params/with-SteepDescent/Higher-Symm/SD-CG/HFTN-CG
REM
REM
REM
REM
REM
REM ./C.cell (12c818d87b63d06a65506943cc24bca4)
REM
REM compiler GCC version 9.2.1 20190827 (Red Hat 9.2.1-1)
REM options -cpp -mtune=generic -march=x86-64 -g -O0 -fpre-include=/usr/include/finclude/math-vector-fortran.h
REM seed 266930423 -664171023 474132869 800699371 741956185 -2026995132 685529522 1732267276 706683423 -1741712256 1396797934 -1533115501 -534591911 -327608185 -144155727 -1749123056 -1576460350 -175254553 1949315826 -1668807885 -673821019 -282954394 1146482296 -146004358 509104915 -1970674584 873514880 1799799074 1808280429 2078094656 1063527651 -969329692 -1462050442
REM
CELL 1.54180   50.00000   50.00000   50.00000   90.00000   90.00000   90.00000
LATT -1
SFAC C  
C      1  0.3961710000000  0.5467150000000  0.4790530000000 1.0
C      1  0.3961710000000  0.4532850000000  0.5209470000000 1.0
C      1  0.6038290000000  0.5467150000000  0.5209460000000 1.0
C      1  0.6038290000000  0.4532850000000  0.4790530000000 1.0
C      1  0.5448980000000  0.4690880000000  0.4179000000000 1.0
C      1  0.5448980000000  0.5309120000000  0.5821000000000 1.0
C      1  0.4551020000000  0.4690880000000  0.5821000000000 1.0
C      1  0.4551020000000  0.5309120000000  0.4179000000000 1.0
C      1  0.5821960000000  0.4747880000000  0.4834530000000 1.0
C      1  0.5821960000000  0.5252120000000  0.5165460000000 1.0
C      1  0.4178040000000  0.4747880000000  0.5165470000000 1.0
C      1  0.4178040000000  0.5252120000000  0.4834540000000 1.0
C      1  0.4047420000000  0.4546360000000  0.4686770000000 1.0
C      1  0.4047420000000  0.5453640000000  0.5313230000000 1.0
C      1  0.5952580000000  0.4546360000000  0.5313230000000 1.0
C      1  0.5952580000000  0.5453630000000  0.4686760000000 1.0
C      1  0.4429630000000  0.5684950000000  0.5384820000000 1.0
C      1  0.4429630000000  0.4315060000000  0.4615190000000 1.0
C      1  0.5570370000000  0.5684940000000  0.4615180000000 1.0
C      1  0.5570370000000  0.4315060000000  0.5384820000000 1.0
C      1  0.5679580000000  0.4306900000000  0.4920060000000 1.0
C      1  0.5679580000000  0.5693100000000  0.5079940000000 1.0
C      1  0.4320420000000  0.4306900000000  0.5079940000000 1.0
C      1  0.4320420000000  0.5693100000000  0.4920060000000 1.0
C      1  0.4180520000000  0.4373260000000  0.5638560000000 1.0
C      1  0.4180520000000  0.5626740000000  0.4361450000000 1.0
C      1  0.5819480000000  0.4373260000000  0.4361440000000 1.0
C      1  0.5819480000000  0.5626740000000  0.5638550000000 1.0
C      1  0.4933840000000  0.5794830000000  0.5953560000000 1.0
C      1  0.4933830000000  0.4205170000000  0.4046440000000 1.0
C      1  0.5066160000000  0.5794830000000  0.4046440000000 1.0
C      1  0.5066170000000  0.4205170000000  0.5953560000000 1.0
C      1  0.5096050000000  0.4145540000000  0.4514300000000 1.0
C      1  0.5096060000000  0.5854460000000  0.5485700000000 1.0
C      1  0.4903940000000  0.4145540000000  0.5485700000000 1.0
C      1  0.4903940000000  0.5854460000000  0.4514300000000 1.0
C      1  0.5730990000000  0.5392350000000  0.5796810000000 1.0
C      1  0.5730990000000  0.4607650000000  0.4203190000000 1.0
C      1  0.4269010000000  0.5392340000000  0.4203190000000 1.0
C      1  0.4269010000000  0.4607660000000  0.5796820000000 1.0
C      1  0.4746930000000  0.5970470000000  0.5099070000000 1.0
C      1  0.4746920000000  0.4029530000000  0.4900930000000 1.0
C      1  0.5253080000000  0.5970470000000  0.4900930000000 1.0
C      1  0.5253080000000  0.4029530000000  0.5099070000000 1.0
C      1  0.5368510000000  0.5025100000000  0.5890020000000 1.0
C      1  0.5368510000000  0.4974900000000  0.4109980000000 1.0
C      1  0.4631490000000  0.5025100000000  0.4109980000000 1.0
C      1  0.4631490000000  0.4974900000000  0.5890020000000 1.0
C      1  0.4483520000000  0.4449870000000  0.4883550000000 1.0
C      1  0.4483520000000  0.5550130000000  0.5116450000000 1.0
C      1  0.5516480000000  0.4449870000000  0.5116450000000 1.0
C      1  0.5516480000000  0.5550130000000  0.4883540000000 1.0
C      1  0.5961650000000  0.4375230000000  0.5030410000000 1.0
C      1  0.5961650000000  0.5624770000000  0.4969590000000 1.0
C      1  0.4038350000000  0.4375230000000  0.4969600000000 1.0
C      1  0.4038350000000  0.5624780000000  0.5030410000000 1.0
C      1  0.4628360000000  0.6026830000000  0.4805850000000 1.0
C      1  0.4628360000000  0.3973170000000  0.5194150000000 1.0
C      1  0.5371640000000  0.6026830000000  0.5194140000000 1.0
C      1  0.5371640000000  0.3973170000000  0.4805860000000 1.0
C      1  0.4355300000000  0.5828340000000  0.4437040000000 1.0
C      1  0.4355300000000  0.4171660000000  0.5562960000000 1.0
C      1  0.5644700000000  0.5828340000000  0.5562950000000 1.0
C      1  0.5644690000000  0.4171660000000  0.4437040000000 1.0
C      1  0.4281120000000  0.4528880000000  0.4496600000000 1.0
C      1  0.4281130000000  0.5471120000000  0.5503410000000 1.0
C      1  0.5718870000000  0.4528880000000  0.5503400000000 1.0
C      1  0.5718870000000  0.5471120000000  0.4496590000000 1.0
C      1  0.5168200000000  0.5534800000000  0.4004550000000 1.0
C      1  0.5168210000000  0.4465200000000  0.5995450000000 1.0
C      1  0.4831800000000  0.5534800000000  0.5995450000000 1.0
C      1  0.4831790000000  0.4465200000000  0.4004550000000 1.0
C      1  0.4771780000000  0.5480640000000  0.5049880000000 1.0
C      1  0.4771780000000  0.4519360000000  0.4950120000000 1.0
C      1  0.5228220000000  0.5480640000000  0.4950120000000 1.0
C      1  0.5228220000000  0.4519360000000  0.5049880000000 1.0
C      1  0.5829440000000  0.5044860000000  0.5547050000000 1.0
C      1  0.5829430000000  0.4955140000000  0.4452940000000 1.0
C      1  0.4170560000000  0.5044860000000  0.4452940000000 1.0
C      1  0.4170570000000  0.4955150000000  0.5547060000000 1.0
C      1  0.4843070000000  0.5783110000000  0.4227040000000 1.0
C      1  0.4843070000000  0.4216890000000  0.5772960000000 1.0
C      1  0.5156930000000  0.5783110000000  0.5772950000000 1.0
C      1  0.5156930000000  0.4216890000000  0.4227050000000 1.0
C      1  0.6031970000000  0.4409850000000  0.4538390000000 1.0
C      1  0.6031970000000  0.5590150000000  0.5461600000000 1.0
C      1  0.3968030000000  0.4409860000000  0.5461610000000 1.0
C      1  0.3968030000000  0.5590150000000  0.4538400000000 1.0
C      1  0.5388890000000  0.4993310000000  0.4632560000000 1.0
C      1  0.5388890000000  0.5006690000000  0.5367440000000 1.0
C      1  0.4611110000000  0.4993310000000  0.5367440000000 1.0
C      1  0.4611110000000  0.5006690000000  0.4632560000000 1.0
C      1  0.4863930000000  0.5735700000000  0.4934900000000 1.0
C      1  0.4863930000000  0.4264310000000  0.5065100000000 1.0
C      1  0.5136070000000  0.5735700000000  0.5065100000000 1.0
C      1  0.5136070000000  0.4264300000000  0.4934900000000 1.0
C      1  0.4966970000000  0.5393540000000  0.5293860000000 1.0
C      1  0.4966970000000  0.4606460000000  0.4706140000000 1.0
C      1  0.5033030000000  0.5393540000000  0.4706130000000 1.0
C      1  0.5033030000000  0.4606460000000  0.5293870000000 1.0
C      1  0.4407330000000  0.5231750000000  0.4589010000000 1.0
C      1  0.4407340000000  0.4768250000000  0.5410990000000 1.0
C      1  0.5592670000000  0.5231750000000  0.5410990000000 1.0
C      1  0.5592660000000  0.4768250000000  0.4589010000000 1.0
C      1  0.5055060000000  0.4625350000000  0.5778420000000 1.0
C      1  0.5055060000000  0.5374650000000  0.4221580000000 1.0
C      1  0.4944940000000  0.4625350000000  0.4221580000000 1.0
C      1  0.4944940000000  0.5374650000000  0.5778420000000 1.0
C      1  0.4778340000000  0.4553020000000  0.4461090000000 1.0
C      1  0.4778340000000  0.5446980000000  0.5538910000000 1.0
C      1  0.5221660000000  0.4553030000000  0.5538920000000 1.0
C      1  0.5221660000000  0.5446970000000  0.4461080000000 1.0
C      1  0.6028570000000  0.4919350000000  0.5375670000000 1.0
C      1  0.6028570000000  0.5080650000000  0.4624320000000 1.0
C      1  0.3971430000000  0.4919350000000  0.4624330000000 1.0
C      1  0.3971430000000  0.5080660000000  0.5375680000000 1.0
C      1  0.5328920000000  0.5736590000000  0.4465340000000 1.0
C      1  0.5328920000000  0.4263410000000  0.5534660000000 1.0
C      1  0.4671080000000  0.5736590000000  0.5534660000000 1.0
C      1  0.4671080000000  0.4263410000000  0.4465340000000 1.0
C      1  0.6065570000000  0.4898140000000  0.5094170000000 1.0
C      1  0.6065570000000  0.5101850000000  0.4905830000000 1.0
C      1  0.3934430000000  0.4898150000000  0.4905830000000 1.0
C      1  0.3934430000000  0.5101860000000  0.5094170000000 1.0
C      1  0.4564940000000  0.5443520000000  0.6020970000000 1.0
C      1  0.4564930000000  0.4556480000000  0.3979030000000 1.0
C      1  0.5435070000000  0.5443520000000  0.3979030000000 1.0
C      1  0.5435070000000  0.4556480000000  0.6020970000000 1.0
C      1  0.4905510000000  0.5107640000000  0.4668350000000 1.0
C      1  0.4905510000000  0.4892360000000  0.5331650000000 1.0
C      1  0.5094490000000  0.5107650000000  0.5331650000000 1.0
C      1  0.5094490000000  0.4892350000000  0.4668350000000 1.0
C      1  0.5175020000000  0.6117670000000  0.5393390000000 1.0
C      1  0.5175010000000  0.3882330000000  0.4606610000000 1.0
C      1  0.4824990000000  0.6117670000000  0.4606600000000 1.0
C      1  0.4824990000000  0.3882330000000  0.5393400000000 1.0
C      1  0.5668910000000  0.5287760000000  0.4897010000000 1.0
C      1  0.5668910000000  0.4712230000000  0.5102990000000 1.0
C      1  0.4331090000000  0.5287770000000  0.5102990000000 1.0
C      1  0.4331090000000  0.4712230000000  0.4897010000000 1.0
C      1  0.4087070000000  0.4827420000000  0.5787910000000 1.0
C      1  0.4087060000000  0.5172580000000  0.4212090000000 1.0
C      1  0.5912930000000  0.4827420000000  0.4212090000000 1.0
C      1  0.5912940000000  0.5172580000000  0.5787910000000 1.0
C      1  0.5105840000000  0.5086850000000  0.4161130000000 1.0
C      1  0.5105850000000  0.4913150000000  0.5838870000000 1.0
C      1  0.4894160000000  0.5086850000000  0.5838870000000 1.0
C      1  0.4894150000000  0.4913150000000  0.4161130000000 1.0
C      1  0.5528380000000  0.4779170000000  0.5865980000000 1.0
C      1  0.5528380000000  0.5220830000000  0.4134020000000 1.0
C      1  0.4471620000000  0.4779170000000  0.4134020000000 1.0
C      1  0.4471620000000  0.5220830000000  0.5865980000000 1.0
C      1  0.4817820000000  0.5968170000000  0.5406830000000 1.0
C      1  0.4817810000000  0.4031830000000  0.4593170000000 1.0
C      1  0.5182190000000  0.5968170000000  0.4593170000000 1.0
C      1  0.5182190000000  0.4031830000000  0.5406830000000 1.0
C      1  0.4765240000000  0.5487100000000  0.4297770000000 1.0
C      1  0.4765250000000  0.4512900000000  0.5702240000000 1.0
C      1  0.5234760000000  0.5487100000000  0.5702230000000 1.0
C      1  0.5234750000000  0.4512900000000  0.4297770000000 1.0
C      1  0.4496970000000  0.5763660000000  0.4680520000000 1.0
C      1  0.4496970000000  0.4236340000000  0.5319490000000 1.0
C      1  0.5503040000000  0.5763660000000  0.5319480000000 1.0
C      1  0.5503030000000  0.4236330000000  0.4680520000000 1.0
C      1  0.4684230000000  0.5489330000000  0.4619430000000 1.0
C      1  0.4684230000000  0.4510670000000  0.5380570000000 1.0
C      1  0.5315770000000  0.5489340000000  0.5380560000000 1.0
C      1  0.5315770000000  0.4510660000000  0.4619430000000 1.0
C      1  0.4554490000000  0.4900480000000  0.4894860000000 1.0
C      1  0.4554490000000  0.5099520000000  0.5105140000000 1.0
C      1  0.5445510000000  0.4900480000000  0.5105140000000 1.0
C      1  0.5445510000000  0.5099520000000  0.4894860000000 1.0
C      1  0.5480210000000  0.5271000000000  0.4434430000000 1.0
C      1  0.5480210000000  0.4729000000000  0.5565570000000 1.0
C      1  0.4519790000000  0.5271010000000  0.5565570000000 1.0
C      1  0.4519780000000  0.4728990000000  0.4434430000000 1.0
END
