TITL C-3577080-309-659 -4.54829991292513e-06 125000 -801.829435877278 0 0 129 (C1) n - 1
REM
REM in /home/bkarasulu/work/CARBON/AIRSS/Generating-Clusters/EDIP-Nigel-Params/with-SteepDescent/Higher-Symm/SD-CG/HFTN-CG
REM
REM
REM
REM
REM
REM ./C.cell (12c818d87b63d06a65506943cc24bca4)
REM
REM compiler GCC version 9.2.1 20190827 (Red Hat 9.2.1-1)
REM options -cpp -mtune=generic -march=x86-64 -g -O0 -fpre-include=/usr/include/finclude/math-vector-fortran.h
REM seed -945837421 1489947939 1184908521 1167874658 -868372724 1652344892 -2023247873 -628134809 -1490612645 2126522484 -324930506 1052685563 1011471809 1815685912 -1983458532 583822278 -2081655316 -1510451473 1951715131 1318914597 -851726469 -1622211696 -167760286 1671340245 575659182 1054752636 1771621918 1676090 808289182 -169190599 -1307947204 1983278237 -1164692325
REM
CELL 1.54180   50.00000   50.00000   50.00000   90.00000   90.00000   90.00000
LATT -1
SFAC C  
C      1  0.4262890000000  0.4700550000000  0.5430730000000 1.0
C      1  0.4234850000000  0.5357930000000  0.4570060000000 1.0
C      1  0.5714860000000  0.4619060000000  0.4623090000000 1.0
C      1  0.5796380000000  0.5372950000000  0.5394460000000 1.0
C      1  0.4251600000000  0.5886750000000  0.5076510000000 1.0
C      1  0.4298810000000  0.4221940000000  0.4987300000000 1.0
C      1  0.5721060000000  0.5772600000000  0.4993960000000 1.0
C      1  0.5772760000000  0.4197980000000  0.5038530000000 1.0
C      1  0.5236720000000  0.4611510000000  0.5125650000000 1.0
C      1  0.5223830000000  0.5370340000000  0.4883860000000 1.0
C      1  0.4770800000000  0.4635450000000  0.4860500000000 1.0
C      1  0.4724990000000  0.5392230000000  0.5120640000000 1.0
C      1  0.5512190000000  0.5938690000000  0.5101460000000 1.0
C      1  0.5576730000000  0.4041640000000  0.4900470000000 1.0
C      1  0.4450100000000  0.5951250000000  0.4884000000000 1.0
C      1  0.4515050000000  0.4082580000000  0.5119670000000 1.0
C      1  0.4953490000000  0.5667260000000  0.5384450000000 1.0
C      1  0.5016690000000  0.4319180000000  0.4617100000000 1.0
C      1  0.5023130000000  0.5703930000000  0.4619620000000 1.0
C      1  0.5119610000000  0.4238390000000  0.5397140000000 1.0
C      1  0.4432390000000  0.5839080000000  0.4607140000000 1.0
C      1  0.4413140000000  0.4211810000000  0.5360260000000 1.0
C      1  0.5595570000000  0.5834680000000  0.5358460000000 1.0
C      1  0.5695870000000  0.4147510000000  0.4661130000000 1.0
C      1  0.4205750000000  0.4892730000000  0.4694100000000 1.0
C      1  0.4239270000000  0.5189230000000  0.5238050000000 1.0
C      1  0.5818480000000  0.4875890000000  0.5329170000000 1.0
C      1  0.5773510000000  0.5091690000000  0.4716400000000 1.0
C      1  0.5292620000000  0.4385420000000  0.4731930000000 1.0
C      1  0.5227960000000  0.5629850000000  0.5256000000000 1.0
C      1  0.4808280000000  0.4388590000000  0.5258360000000 1.0
C      1  0.4755750000000  0.5667520000000  0.4748220000000 1.0
C      1  0.5346120000000  0.4669810000000  0.4863720000000 1.0
C      1  0.5322370000000  0.5323090000000  0.5158260000000 1.0
C      1  0.4667530000000  0.4666220000000  0.5134460000000 1.0
C      1  0.4635470000000  0.5376220000000  0.4837580000000 1.0
C      1  0.4982780000000  0.4723980000000  0.5968890000000 1.0
C      1  0.4964580000000  0.5249150000000  0.4061890000000 1.0
C      1  0.5046470000000  0.4752950000000  0.4059180000000 1.0
C      1  0.5071000000000  0.5246880000000  0.5951800000000 1.0
C      1  0.4617750000000  0.4833670000000  0.5712250000000 1.0
C      1  0.4559970000000  0.5140000000000  0.4311610000000 1.0
C      1  0.5424030000000  0.4833860000000  0.4335520000000 1.0
C      1  0.5559680000000  0.5168580000000  0.5723460000000 1.0
C      1  0.5155090000000  0.5461500000000  0.5788720000000 1.0
C      1  0.5160000000000  0.4511790000000  0.4177930000000 1.0
C      1  0.4850140000000  0.5487030000000  0.4186680000000 1.0
C      1  0.4883930000000  0.4473120000000  0.5813120000000 1.0
C      1  0.5650930000000  0.5289780000000  0.4945910000000 1.0
C      1  0.5667780000000  0.4676340000000  0.5086150000000 1.0
C      1  0.4298690000000  0.5397790000000  0.5021890000000 1.0
C      1  0.4341400000000  0.4708350000000  0.4927150000000 1.0
C      1  0.5318650000000  0.4802020000000  0.5318010000000 1.0
C      1  0.5316810000000  0.5194100000000  0.4677310000000 1.0
C      1  0.4669890000000  0.4803130000000  0.4650280000000 1.0
C      1  0.4593760000000  0.5194140000000  0.5302410000000 1.0
C      1  0.4097570000000  0.4700450000000  0.4493240000000 1.0
C      1  0.4089060000000  0.5333770000000  0.5457400000000 1.0
C      1  0.5908460000000  0.4670400000000  0.5530070000000 1.0
C      1  0.5889950000000  0.5273410000000  0.4510690000000 1.0
C      1  0.5283460000000  0.4652600000000  0.5578830000000 1.0
C      1  0.5294510000000  0.5356050000000  0.4407900000000 1.0
C      1  0.4700540000000  0.4627390000000  0.4386440000000 1.0
C      1  0.4684310000000  0.5304370000000  0.5634340000000 1.0
C      1  0.4362300000000  0.5101640000000  0.4539660000000 1.0
C      1  0.4363370000000  0.4941280000000  0.5584480000000 1.0
C      1  0.5751150000000  0.5117800000000  0.5513130000000 1.0
C      1  0.5605330000000  0.4877040000000  0.4573480000000 1.0
C      1  0.5045600000000  0.4470050000000  0.5560080000000 1.0
C      1  0.5045000000000  0.5519920000000  0.4408240000000 1.0
C      1  0.4952100000000  0.4457110000000  0.4381130000000 1.0
C      1  0.4928170000000  0.5488520000000  0.5603220000000 1.0
C      1  0.4081900000000  0.5358370000000  0.4817540000000 1.0
C      1  0.4146850000000  0.4725280000000  0.5158740000000 1.0
C      1  0.5888380000000  0.5303070000000  0.5129500000000 1.0
C      1  0.5870210000000  0.4651090000000  0.4868830000000 1.0
C      1  0.4298780000000  0.4731370000000  0.4176300000000 1.0
C      1  0.4235050000000  0.5193930000000  0.5681050000000 1.0
C      1  0.5676570000000  0.4718270000000  0.5827510000000 1.0
C      1  0.5692950000000  0.5244810000000  0.4193380000000 1.0
C      1  0.5556930000000  0.5482280000000  0.4318840000000 1.0
C      1  0.5530130000000  0.4509570000000  0.5687450000000 1.0
C      1  0.4425970000000  0.5447090000000  0.5713360000000 1.0
C      1  0.4436340000000  0.4498250000000  0.4304560000000 1.0
C      1  0.4732280000000  0.4911880000000  0.5978600000000 1.0
C      1  0.4507000000000  0.4931120000000  0.4090250000000 1.0
C      1  0.5486260000000  0.5042150000000  0.4113240000000 1.0
C      1  0.5486080000000  0.4937330000000  0.5888150000000 1.0
C      1  0.4596600000000  0.4531070000000  0.5728110000000 1.0
C      1  0.4560680000000  0.5444870000000  0.4253580000000 1.0
C      1  0.5445370000000  0.4528230000000  0.4270730000000 1.0
C      1  0.5441090000000  0.5442060000000  0.5706200000000 1.0
C      1  0.5250630000000  0.5824220000000  0.5035350000000 1.0
C      1  0.5319150000000  0.4177100000000  0.4944750000000 1.0
C      1  0.4720220000000  0.5855010000000  0.4977830000000 1.0
C      1  0.4780260000000  0.4188760000000  0.5038790000000 1.0
C      1  0.4765980000000  0.4784390000000  0.4143880000000 1.0
C      1  0.4792380000000  0.5193420000000  0.5919940000000 1.0
C      1  0.5208680000000  0.4854300000000  0.5788400000000 1.0
C      1  0.5233870000000  0.5197290000000  0.4166840000000 1.0
C      1  0.4357790000000  0.5651850000000  0.5208040000000 1.0
C      1  0.4387510000000  0.4428840000000  0.4798260000000 1.0
C      1  0.5614210000000  0.5566470000000  0.4808080000000 1.0
C      1  0.5635520000000  0.4397130000000  0.5216570000000 1.0
C      1  0.5324830000000  0.4336360000000  0.5196090000000 1.0
C      1  0.5265740000000  0.5651710000000  0.4796150000000 1.0
C      1  0.4764890000000  0.4348680000000  0.4786390000000 1.0
C      1  0.4696700000000  0.5671280000000  0.5212590000000 1.0
C      1  0.5539630000000  0.4380690000000  0.4548640000000 1.0
C      1  0.5560230000000  0.5553440000000  0.5447390000000 1.0
C      1  0.4453920000000  0.4477770000000  0.5469870000000 1.0
C      1  0.4425280000000  0.5566140000000  0.4495650000000 1.0
C      1  0.5191460000000  0.4919920000000  0.4733920000000 1.0
C      1  0.5184710000000  0.5068270000000  0.5295160000000 1.0
C      1  0.4767660000000  0.4936630000000  0.5235600000000 1.0
C      1  0.4767970000000  0.5095790000000  0.4723030000000 1.0
C      1  0.6011630000000  0.5027800000000  0.5139750000000 1.0
C      1  0.5986790000000  0.4925090000000  0.4861950000000 1.0
C      1  0.3999150000000  0.5065190000000  0.4842690000000 1.0
C      1  0.4038080000000  0.4993560000000  0.5125670000000 1.0
C      1  0.4840220000000  0.4903410000000  0.5520810000000 1.0
C      1  0.4880580000000  0.5114130000000  0.4416040000000 1.0
C      1  0.5094890000000  0.4867660000000  0.4426390000000 1.0
C      1  0.5071830000000  0.5073490000000  0.5605000000000 1.0
C      1  0.4245580000000  0.5591630000000  0.5488240000000 1.0
C      1  0.4248530000000  0.4442560000000  0.4528810000000 1.0
C      1  0.5749370000000  0.5538000000000  0.4537670000000 1.0
C      1  0.5740130000000  0.4427300000000  0.5497600000000 1.0
C      1  0.4973930000000  0.5017480000000  0.4958320000000 1.0
END
