TITL C-3578197-9521-198 2.06966538420252e-07 125000 -413.449778037269 0 0 68 (C1) n - 1
REM
REM in /home/bkarasulu/work/CARBON/AIRSS/Generating-Clusters/EDIP-Nigel-Params/with-SteepDescent/Higher-Symm/SD-CG/HFTN-CG
REM
REM
REM
REM
REM
REM ./C.cell (12c818d87b63d06a65506943cc24bca4)
REM
REM compiler GCC version 9.2.1 20190827 (Red Hat 9.2.1-1)
REM options -cpp -mtune=generic -march=x86-64 -g -O0 -fpre-include=/usr/include/finclude/math-vector-fortran.h
REM seed -519875714 -1312726124 -639721119 630886255 -2099112575 -399966669 -1920556381 1130739760 451713014 -945541744 1654572028 -1126366097 2053004572 624773718 -933195434 761879864 -1637766203 -352510332 -1052205438 771185312 832625082 577242393 1796820895 -642071235 2066272190 566589522 1521984977 748430146 1754693202 -2059800761 1886488646 1937367315 251434656
REM
CELL 1.54180   50.00000   50.00000   50.00000   90.00000   90.00000   90.00000
LATT -1
SFAC C  
C      1  0.5550790000000  0.4567430000000  0.5187950000000 1.0
C      1  0.4572460000000  0.4649980000000  0.5312860000000 1.0
C      1  0.4844520000000  0.4574680000000  0.4397730000000 1.0
C      1  0.5421430000000  0.4980830000000  0.5178540000000 1.0
C      1  0.4825960000000  0.5077700000000  0.5188400000000 1.0
C      1  0.4867760000000  0.4922020000000  0.4555100000000 1.0
C      1  0.4666270000000  0.5774030000000  0.5280630000000 1.0
C      1  0.4930920000000  0.5651040000000  0.4553550000000 1.0
C      1  0.5445940000000  0.5852290000000  0.5380220000000 1.0
C      1  0.5200190000000  0.4287610000000  0.5045690000000 1.0
C      1  0.4837340000000  0.4318100000000  0.5180990000000 1.0
C      1  0.4900040000000  0.4316450000000  0.4797060000000 1.0
C      1  0.5299830000000  0.4904770000000  0.4352080000000 1.0
C      1  0.5280310000000  0.4967130000000  0.5598390000000 1.0
C      1  0.4326500000000  0.4944120000000  0.4994280000000 1.0
C      1  0.4586500000000  0.5535080000000  0.5156620000000 1.0
C      1  0.5051220000000  0.5409060000000  0.4478550000000 1.0
C      1  0.5342740000000  0.5603500000000  0.5462340000000 1.0
C      1  0.5499350000000  0.5092450000000  0.5443570000000 1.0
C      1  0.4440630000000  0.5060600000000  0.5231700000000 1.0
C      1  0.5010660000000  0.4963890000000  0.4273160000000 1.0
C      1  0.5047530000000  0.5571810000000  0.5381440000000 1.0
C      1  0.4613010000000  0.5499970000000  0.4865840000000 1.0
C      1  0.5314320000000  0.5652320000000  0.4953980000000 1.0
C      1  0.5458320000000  0.5395660000000  0.4935290000000 1.0
C      1  0.4935270000000  0.5330570000000  0.5534950000000 1.0
C      1  0.4583690000000  0.5260890000000  0.4678900000000 1.0
C      1  0.4998610000000  0.5038860000000  0.5477080000000 1.0
C      1  0.4486470000000  0.4997790000000  0.4761820000000 1.0
C      1  0.5318930000000  0.4956980000000  0.4656120000000 1.0
C      1  0.4404790000000  0.4433700000000  0.4965070000000 1.0
C      1  0.5287950000000  0.4409960000000  0.4507020000000 1.0
C      1  0.5238150000000  0.4435160000000  0.5532860000000 1.0
C      1  0.5705920000000  0.5323620000000  0.5065350000000 1.0
C      1  0.4639770000000  0.5311560000000  0.5592860000000 1.0
C      1  0.4622760000000  0.5243580000000  0.4375370000000 1.0
C      1  0.5322040000000  0.4686920000000  0.5637550000000 1.0
C      1  0.4252570000000  0.4670870000000  0.5006120000000 1.0
C      1  0.5354700000000  0.4628850000000  0.4340430000000 1.0
C      1  0.5084540000000  0.4738980000000  0.4715670000000 1.0
C      1  0.5217290000000  0.4744330000000  0.5223970000000 1.0
C      1  0.4734740000000  0.4794700000000  0.5067880000000 1.0
C      1  0.4586890000000  0.4585830000000  0.4532820000000 1.0
C      1  0.5571570000000  0.4589460000000  0.4898690000000 1.0
C      1  0.4751380000000  0.4634790000000  0.5554090000000 1.0
C      1  0.4908190000000  0.5257750000000  0.4262460000000 1.0
C      1  0.5530500000000  0.5383930000000  0.5403290000000 1.0
C      1  0.4493990000000  0.5324570000000  0.5332300000000 1.0
C      1  0.5326950000000  0.4446200000000  0.4808170000000 1.0
C      1  0.4974280000000  0.4491980000000  0.5399720000000 1.0
C      1  0.4653660000000  0.4509530000000  0.4812080000000 1.0
C      1  0.4439640000000  0.4841470000000  0.4517860000000 1.0
C      1  0.5598450000000  0.4867010000000  0.4794730000000 1.0
C      1  0.4805520000000  0.4903660000000  0.5659090000000 1.0
C      1  0.5017450000000  0.5182500000000  0.4682790000000 1.0
C      1  0.5284240000000  0.5191160000000  0.5031430000000 1.0
C      1  0.5004780000000  0.5253030000000  0.4985350000000 1.0
C      1  0.5383970000000  0.4347250000000  0.5283980000000 1.0
C      1  0.4539690000000  0.4367970000000  0.5216640000000 1.0
C      1  0.5000720000000  0.4358620000000  0.4514780000000 1.0
C      1  0.5748550000000  0.5041480000000  0.4988590000000 1.0
C      1  0.4583270000000  0.5065890000000  0.5727290000000 1.0
C      1  0.4506680000000  0.4997490000000  0.4289350000000 1.0
C      1  0.4834340000000  0.5682360000000  0.4815250000000 1.0
C      1  0.5441950000000  0.5849880000000  0.5108820000000 1.0
C      1  0.4883780000000  0.5805860000000  0.5442060000000 1.0
C      1  0.5029890000000  0.5562690000000  0.5033680000000 1.0
C      1  0.5009950000000  0.4682580000000  0.5005570000000 1.0
END
