TITL C-3578208-4450-36 -6.1096840033616e-06 125000 -1161.74267051265 0 0 183 (C1) n - 1
REM
REM in /home/bkarasulu/work/CARBON/AIRSS/Generating-Clusters/EDIP-Nigel-Params/with-SteepDescent/Higher-Symm/SD-CG/HFTN-CG
REM
REM
REM
REM
REM
REM ./C.cell (12c818d87b63d06a65506943cc24bca4)
REM
REM compiler GCC version 9.2.1 20190827 (Red Hat 9.2.1-1)
REM options -cpp -mtune=generic -march=x86-64 -g -O0 -fpre-include=/usr/include/finclude/math-vector-fortran.h
REM seed 673458608 -253547756 -215774874 -1789701861 1314911982 184620263 -465470053 -936960646 -2088105846 833633913 443772217 -2139107473 -997479675 1559061102 194434635 -59839064 -180183996 -512533280 1073477108 419058097 1184514917 -18059355 2143328941 231442135 -486162979 555987230 1567240645 -1604402634 -1882654243 -67570816 1519908716 201890219 -1657507875
REM
CELL 1.54180   50.00000   50.00000   50.00000   90.00000   90.00000   90.00000
LATT -1
SFAC C  
C      1  0.5488950000000  0.5524110000000  0.5838420000000 1.0
C      1  0.5456210000000  0.4466560000000  0.4126610000000 1.0
C      1  0.5597420000000  0.5168110000000  0.5435290000000 1.0
C      1  0.5536360000000  0.4845320000000  0.4404850000000 1.0
C      1  0.5996060000000  0.5503470000000  0.5307410000000 1.0
C      1  0.5919790000000  0.4529570000000  0.4690070000000 1.0
C      1  0.5040200000000  0.4335800000000  0.5520110000000 1.0
C      1  0.5074900000000  0.5675970000000  0.4506740000000 1.0
C      1  0.4543120000000  0.4151770000000  0.5466940000000 1.0
C      1  0.4564680000000  0.5821350000000  0.4545580000000 1.0
C      1  0.4689700000000  0.4632140000000  0.5314230000000 1.0
C      1  0.4720060000000  0.5354330000000  0.4707130000000 1.0
C      1  0.5324200000000  0.5353720000000  0.5425950000000 1.0
C      1  0.5314400000000  0.4637470000000  0.4726400000000 1.0
C      1  0.4952700000000  0.5471440000000  0.5141060000000 1.0
C      1  0.4896960000000  0.4460540000000  0.4867450000000 1.0
C      1  0.5226390000000  0.5583700000000  0.5202940000000 1.0
C      1  0.5182180000000  0.4374980000000  0.4826270000000 1.0
C      1  0.5693850000000  0.4332740000000  0.5413990000000 1.0
C      1  0.5702070000000  0.5723420000000  0.4592540000000 1.0
C      1  0.4596730000000  0.5836730000000  0.4247930000000 1.0
C      1  0.4602320000000  0.4144320000000  0.5758390000000 1.0
C      1  0.5522350000000  0.5115690000000  0.4547350000000 1.0
C      1  0.5552160000000  0.4864520000000  0.5434440000000 1.0
C      1  0.4722290000000  0.4115400000000  0.4898450000000 1.0
C      1  0.4713360000000  0.5924120000000  0.5118430000000 1.0
C      1  0.6036100000000  0.5233530000000  0.5455190000000 1.0
C      1  0.5997690000000  0.4768540000000  0.4539340000000 1.0
C      1  0.5096820000000  0.4960940000000  0.6002520000000 1.0
C      1  0.5116080000000  0.5014680000000  0.3979750000000 1.0
C      1  0.4456760000000  0.5271400000000  0.5039320000000 1.0
C      1  0.4436850000000  0.4708200000000  0.4971550000000 1.0
C      1  0.5815650000000  0.4723300000000  0.5748820000000 1.0
C      1  0.5831370000000  0.5310770000000  0.4311210000000 1.0
C      1  0.5660970000000  0.6020680000000  0.5148100000000 1.0
C      1  0.5658320000000  0.4033020000000  0.4849510000000 1.0
C      1  0.5448640000000  0.5254610000000  0.5029740000000 1.0
C      1  0.5510510000000  0.4638650000000  0.4967870000000 1.0
C      1  0.5175780000000  0.5954340000000  0.5322100000000 1.0
C      1  0.5167610000000  0.4055190000000  0.4668940000000 1.0
C      1  0.5757100000000  0.4370570000000  0.4503700000000 1.0
C      1  0.5793590000000  0.5652840000000  0.5473920000000 1.0
C      1  0.3839040000000  0.5014010000000  0.4691140000000 1.0
C      1  0.3815820000000  0.5000490000000  0.5286260000000 1.0
C      1  0.4575670000000  0.4439310000000  0.5864280000000 1.0
C      1  0.4588830000000  0.5551270000000  0.4138200000000 1.0
C      1  0.5279220000000  0.5218680000000  0.4405890000000 1.0
C      1  0.5298680000000  0.4765140000000  0.5586850000000 1.0
C      1  0.4435610000000  0.5104130000000  0.4785220000000 1.0
C      1  0.4409460000000  0.4881750000000  0.5225450000000 1.0
C      1  0.5233460000000  0.3812480000000  0.4813480000000 1.0
C      1  0.5226700000000  0.6207800000000  0.5191390000000 1.0
C      1  0.6013270000000  0.5002510000000  0.4715960000000 1.0
C      1  0.6055510000000  0.4966810000000  0.5310270000000 1.0
C      1  0.3669510000000  0.4793020000000  0.5154390000000 1.0
C      1  0.3704380000000  0.5242430000000  0.4788970000000 1.0
C      1  0.4804670000000  0.3962160000000  0.5161980000000 1.0
C      1  0.4797130000000  0.6063430000000  0.4862660000000 1.0
C      1  0.5687620000000  0.4456320000000  0.5685100000000 1.0
C      1  0.5658610000000  0.5538460000000  0.4369470000000 1.0
C      1  0.5855780000000  0.4144600000000  0.5013310000000 1.0
C      1  0.5865970000000  0.5926520000000  0.4985890000000 1.0
C      1  0.5756440000000  0.5512910000000  0.5727520000000 1.0
C      1  0.5736250000000  0.4484510000000  0.4234680000000 1.0
C      1  0.5490260000000  0.5661520000000  0.4169570000000 1.0
C      1  0.5477620000000  0.4322960000000  0.5845470000000 1.0
C      1  0.5284340000000  0.4513090000000  0.5952820000000 1.0
C      1  0.5297440000000  0.5477620000000  0.4049620000000 1.0
C      1  0.5045380000000  0.6077130000000  0.4688460000000 1.0
C      1  0.5066430000000  0.3950010000000  0.5313600000000 1.0
C      1  0.3811360000000  0.5500040000000  0.4810850000000 1.0
C      1  0.3822820000000  0.4561910000000  0.5225890000000 1.0
C      1  0.4609380000000  0.4438340000000  0.4441480000000 1.0
C      1  0.4642370000000  0.5531310000000  0.5560080000000 1.0
C      1  0.4176030000000  0.5335360000000  0.5154600000000 1.0
C      1  0.4158940000000  0.4652990000000  0.4847010000000 1.0
C      1  0.5035420000000  0.4446000000000  0.5806600000000 1.0
C      1  0.5058360000000  0.5550210000000  0.4215940000000 1.0
C      1  0.3934180000000  0.5385780000000  0.4472350000000 1.0
C      1  0.3957710000000  0.4623300000000  0.5477060000000 1.0
C      1  0.4818580000000  0.4861120000000  0.5996930000000 1.0
C      1  0.4847980000000  0.5140710000000  0.4004100000000 1.0
C      1  0.4852080000000  0.4002750000000  0.5777260000000 1.0
C      1  0.4830750000000  0.5989850000000  0.4206810000000 1.0
C      1  0.5349720000000  0.5864710000000  0.4320850000000 1.0
C      1  0.5336440000000  0.4117380000000  0.5656690000000 1.0
C      1  0.4920890000000  0.5421900000000  0.5909370000000 1.0
C      1  0.4913120000000  0.4543270000000  0.4001210000000 1.0
C      1  0.4797860000000  0.4219010000000  0.4384790000000 1.0
C      1  0.4813290000000  0.5765940000000  0.5601620000000 1.0
C      1  0.5079920000000  0.3922580000000  0.5619880000000 1.0
C      1  0.4988160000000  0.6088250000000  0.4409430000000 1.0
C      1  0.4621580000000  0.4961030000000  0.4074860000000 1.0
C      1  0.4590350000000  0.5040610000000  0.5920300000000 1.0
C      1  0.4872390000000  0.4063590000000  0.4626020000000 1.0
C      1  0.4885730000000  0.5921610000000  0.5362200000000 1.0
C      1  0.4963020000000  0.5314730000000  0.4883900000000 1.0
C      1  0.4922680000000  0.4648990000000  0.5111850000000 1.0
C      1  0.4798160000000  0.5209200000000  0.4464020000000 1.0
C      1  0.4802330000000  0.4780740000000  0.5542150000000 1.0
C      1  0.5805690000000  0.5226470000000  0.5662550000000 1.0
C      1  0.5818080000000  0.4778650000000  0.4288830000000 1.0
C      1  0.3925060000000  0.4904070000000  0.5543780000000 1.0
C      1  0.3931220000000  0.5093660000000  0.4425420000000 1.0
C      1  0.4378930000000  0.5102190000000  0.4187580000000 1.0
C      1  0.4352530000000  0.4891180000000  0.5813930000000 1.0
C      1  0.4585690000000  0.6079830000000  0.4677150000000 1.0
C      1  0.4588320000000  0.3897540000000  0.5331390000000 1.0
C      1  0.4732250000000  0.4694720000000  0.4192960000000 1.0
C      1  0.4641540000000  0.5330750000000  0.5871820000000 1.0
C      1  0.5500350000000  0.5936520000000  0.4553380000000 1.0
C      1  0.5524010000000  0.4091590000000  0.5425720000000 1.0
C      1  0.5429320000000  0.6139450000000  0.5013510000000 1.0
C      1  0.5439230000000  0.3893950000000  0.4980440000000 1.0
C      1  0.5752740000000  0.5676820000000  0.4889100000000 1.0
C      1  0.5866460000000  0.4374720000000  0.5171710000000 1.0
C      1  0.4174500000000  0.4524650000000  0.4579440000000 1.0
C      1  0.4188650000000  0.5462770000000  0.5422410000000 1.0
C      1  0.4151570000000  0.5039360000000  0.5670210000000 1.0
C      1  0.4172460000000  0.4956110000000  0.4326990000000 1.0
C      1  0.5156570000000  0.4525490000000  0.5311820000000 1.0
C      1  0.5193700000000  0.5451480000000  0.4703350000000 1.0
C      1  0.4610630000000  0.4843640000000  0.4777150000000 1.0
C      1  0.4619190000000  0.5128450000000  0.5242390000000 1.0
C      1  0.5333080000000  0.4801520000000  0.5887740000000 1.0
C      1  0.5355340000000  0.5182660000000  0.4103910000000 1.0
C      1  0.5693260000000  0.5095480000000  0.4144330000000 1.0
C      1  0.5631070000000  0.4950780000000  0.5867490000000 1.0
C      1  0.5007610000000  0.4758370000000  0.4375620000000 1.0
C      1  0.5070780000000  0.5222160000000  0.5553520000000 1.0
C      1  0.5043250000000  0.5037300000000  0.4494440000000 1.0
C      1  0.5066470000000  0.4928480000000  0.5485470000000 1.0
C      1  0.5309910000000  0.4716390000000  0.4233680000000 1.0
C      1  0.5384250000000  0.5248790000000  0.5816370000000 1.0
C      1  0.4379820000000  0.4324900000000  0.4602770000000 1.0
C      1  0.4408240000000  0.5646650000000  0.5404080000000 1.0
C      1  0.4815130000000  0.5335060000000  0.5376300000000 1.0
C      1  0.4778940000000  0.4627570000000  0.4628950000000 1.0
C      1  0.4279910000000  0.4259320000000  0.5393560000000 1.0
C      1  0.4305090000000  0.5710250000000  0.4618800000000 1.0
C      1  0.5325610000000  0.6027690000000  0.4767360000000 1.0
C      1  0.5332880000000  0.4055550000000  0.5203590000000 1.0
C      1  0.4433110000000  0.4214500000000  0.4876270000000 1.0
C      1  0.4454710000000  0.5776750000000  0.5136180000000 1.0
C      1  0.5744300000000  0.5203450000000  0.5105150000000 1.0
C      1  0.5926260000000  0.4933800000000  0.5011070000000 1.0
C      1  0.5282900000000  0.4241840000000  0.4211080000000 1.0
C      1  0.5295440000000  0.5693800000000  0.5704520000000 1.0
C      1  0.5372540000000  0.5916240000000  0.5540770000000 1.0
C      1  0.5362790000000  0.4077030000000  0.4444000000000 1.0
C      1  0.4180130000000  0.4681900000000  0.4351670000000 1.0
C      1  0.4161920000000  0.5314230000000  0.5655190000000 1.0
C      1  0.4340540000000  0.4593590000000  0.5782040000000 1.0
C      1  0.4351940000000  0.5397580000000  0.4209500000000 1.0
C      1  0.5924730000000  0.4768510000000  0.5477840000000 1.0
C      1  0.5889670000000  0.5228320000000  0.4586430000000 1.0
C      1  0.4824010000000  0.5367910000000  0.4200860000000 1.0
C      1  0.4806800000000  0.4629160000000  0.5810890000000 1.0
C      1  0.4194140000000  0.5507030000000  0.4432820000000 1.0
C      1  0.4192170000000  0.4484050000000  0.5556050000000 1.0
C      1  0.5117390000000  0.4731800000000  0.3900910000000 1.0
C      1  0.5139370000000  0.5239230000000  0.5982590000000 1.0
C      1  0.4087210000000  0.4953200000000  0.4850530000000 1.0
C      1  0.4085560000000  0.5041700000000  0.5150120000000 1.0
C      1  0.5016370000000  0.5669330000000  0.5782140000000 1.0
C      1  0.4997160000000  0.4311620000000  0.4182840000000 1.0
C      1  0.5168140000000  0.4908540000000  0.4761340000000 1.0
C      1  0.5181660000000  0.5004630000000  0.5203760000000 1.0
C      1  0.4246850000000  0.5733000000000  0.4911660000000 1.0
C      1  0.4225270000000  0.4262180000000  0.5100070000000 1.0
C      1  0.5623790000000  0.4124750000000  0.4573000000000 1.0
C      1  0.5635830000000  0.5894530000000  0.5412580000000 1.0
C      1  0.4755700000000  0.4342390000000  0.5388210000000 1.0
C      1  0.4786420000000  0.5641850000000  0.4636920000000 1.0
C      1  0.5303400000000  0.4345750000000  0.5110170000000 1.0
C      1  0.5391470000000  0.5542530000000  0.4937910000000 1.0
C      1  0.4038570000000  0.5541360000000  0.4984940000000 1.0
C      1  0.4010530000000  0.4452690000000  0.5019940000000 1.0
C      1  0.5435480000000  0.4837220000000  0.5173070000000 1.0
C      1  0.5406200000000  0.5073160000000  0.4803220000000 1.0
C      1  0.5818810000000  0.4607670000000  0.4969280000000 1.0
C      1  0.5904700000000  0.5450590000000  0.5026800000000 1.0
C      1  0.4983000000000  0.4940330000000  0.4996180000000 1.0
END
