TITL C-3577090-796-406 -2.53811541023192e-06 125000 -535.557632039239 0 0 87 (C1) n - 1
REM
REM in /home/bkarasulu/work/CARBON/AIRSS/Generating-Clusters/EDIP-Nigel-Params/with-SteepDescent/Higher-Symm/SD-CG/HFTN-CG
REM
REM
REM
REM
REM
REM ./C.cell (12c818d87b63d06a65506943cc24bca4)
REM
REM compiler GCC version 9.2.1 20190827 (Red Hat 9.2.1-1)
REM options -cpp -mtune=generic -march=x86-64 -g -O0 -fpre-include=/usr/include/finclude/math-vector-fortran.h
REM seed 512905770 1140258800 -169728159 -2008115406 -756181526 1992553952 -2145003582 -1303743538 2084551731 -108257493 -1509003511 1455036045 -1975712516 1412786810 -1564118136 -954740393 1284497145 -1075893391 1679552928 2044716423 979753906 -1560271630 -2108146895 -945838985 -921471005 -985057133 2106577112 -665066526 -757481749 127444306 -831721929 523162264 -469854639
REM
CELL 1.54180   50.00000   50.00000   50.00000   90.00000   90.00000   90.00000
LATT -1
SFAC C  
C      1  0.5824710000000  0.4774160000000  0.5009960000000 1.0
C      1  0.5794380000000  0.4950510000000  0.4782470000000 1.0
C      1  0.5808050000000  0.5224070000000  0.4865100000000 1.0
C      1  0.5796610000000  0.5215420000000  0.5156830000000 1.0
C      1  0.5799790000000  0.4940110000000  0.5254420000000 1.0
C      1  0.5000680000000  0.4529060000000  0.4343440000000 1.0
C      1  0.4968980000000  0.5496020000000  0.4366840000000 1.0
C      1  0.4887810000000  0.5772830000000  0.5275490000000 1.0
C      1  0.5029790000000  0.4938550000000  0.5821140000000 1.0
C      1  0.4849750000000  0.4322130000000  0.5253740000000 1.0
C      1  0.4977490000000  0.5110320000000  0.5244100000000 1.0
C      1  0.4983650000000  0.4826550000000  0.5108380000000 1.0
C      1  0.5051300000000  0.4837850000000  0.4798480000000 1.0
C      1  0.4943240000000  0.5155560000000  0.4774180000000 1.0
C      1  0.5080720000000  0.5295630000000  0.5015350000000 1.0
C      1  0.5098250000000  0.4788250000000  0.4253840000000 1.0
C      1  0.5039750000000  0.5679200000000  0.4576970000000 1.0
C      1  0.5024390000000  0.5614950000000  0.5481140000000 1.0
C      1  0.5084690000000  0.4673640000000  0.5737980000000 1.0
C      1  0.4849860000000  0.4247010000000  0.4990040000000 1.0
C      1  0.5419200000000  0.5176660000000  0.5605350000000 1.0
C      1  0.5534010000000  0.4421280000000  0.5245930000000 1.0
C      1  0.5659240000000  0.4605560000000  0.4471970000000 1.0
C      1  0.5654440000000  0.5342880000000  0.4413790000000 1.0
C      1  0.5468880000000  0.5486530000000  0.5053860000000 1.0
C      1  0.4524850000000  0.5274770000000  0.4424530000000 1.0
C      1  0.4467840000000  0.5613810000000  0.5092260000000 1.0
C      1  0.4544460000000  0.5068870000000  0.5800580000000 1.0
C      1  0.4449040000000  0.4460440000000  0.5383980000000 1.0
C      1  0.4511330000000  0.4515950000000  0.4397120000000 1.0
C      1  0.5104530000000  0.5147050000000  0.5622150000000 1.0
C      1  0.4953780000000  0.4603780000000  0.5317120000000 1.0
C      1  0.5012220000000  0.4538360000000  0.4648150000000 1.0
C      1  0.5062020000000  0.5234370000000  0.4486710000000 1.0
C      1  0.5018030000000  0.5677320000000  0.5041860000000 1.0
C      1  0.5717390000000  0.5437560000000  0.4683040000000 1.0
C      1  0.5739160000000  0.5440470000000  0.5324580000000 1.0
C      1  0.5620310000000  0.4864460000000  0.5483520000000 1.0
C      1  0.5705690000000  0.4502390000000  0.4990020000000 1.0
C      1  0.5786010000000  0.4865720000000  0.4508000000000 1.0
C      1  0.4614850000000  0.5301460000000  0.5634930000000 1.0
C      1  0.4509970000000  0.4611650000000  0.5637480000000 1.0
C      1  0.4515700000000  0.4360300000000  0.4645010000000 1.0
C      1  0.4627300000000  0.5009500000000  0.4348440000000 1.0
C      1  0.4574590000000  0.5565070000000  0.4825470000000 1.0
C      1  0.4242970000000  0.4639820000000  0.4947980000000 1.0
C      1  0.4228520000000  0.4872330000000  0.4749260000000 1.0
C      1  0.4218420000000  0.5163180000000  0.4844360000000 1.0
C      1  0.4426370000000  0.5360720000000  0.5235220000000 1.0
C      1  0.4266910000000  0.4968740000000  0.5420320000000 1.0
C      1  0.4533490000000  0.4898400000000  0.5295660000000 1.0
C      1  0.4484790000000  0.4646780000000  0.5131590000000 1.0
C      1  0.4607620000000  0.4804420000000  0.4797940000000 1.0
C      1  0.4663790000000  0.5099130000000  0.4862650000000 1.0
C      1  0.4660390000000  0.5143460000000  0.5170350000000 1.0
C      1  0.4770760000000  0.4957470000000  0.5917560000000 1.0
C      1  0.4616190000000  0.4236520000000  0.5380440000000 1.0
C      1  0.4743840000000  0.4472880000000  0.4247770000000 1.0
C      1  0.4692090000000  0.5477270000000  0.4322460000000 1.0
C      1  0.4609320000000  0.5793620000000  0.5253500000000 1.0
C      1  0.4763330000000  0.4752230000000  0.5532520000000 1.0
C      1  0.4778940000000  0.4400410000000  0.4773560000000 1.0
C      1  0.4926350000000  0.5005190000000  0.4351450000000 1.0
C      1  0.4870580000000  0.5622880000000  0.4807430000000 1.0
C      1  0.4903380000000  0.5367800000000  0.5591590000000 1.0
C      1  0.5275890000000  0.4443070000000  0.4778230000000 1.0
C      1  0.5378350000000  0.4838000000000  0.4345840000000 1.0
C      1  0.5314880000000  0.5705320000000  0.4638100000000 1.0
C      1  0.5295560000000  0.5596300000000  0.5378720000000 1.0
C      1  0.5214600000000  0.4618170000000  0.5482150000000 1.0
C      1  0.4474250000000  0.5293480000000  0.4724260000000 1.0
C      1  0.4399880000000  0.5432440000000  0.5516250000000 1.0
C      1  0.4344030000000  0.4867770000000  0.5692460000000 1.0
C      1  0.4282340000000  0.4402160000000  0.4800430000000 1.0
C      1  0.4483670000000  0.4795790000000  0.4504790000000 1.0
C      1  0.5374510000000  0.4862840000000  0.4673320000000 1.0
C      1  0.5363960000000  0.5185520000000  0.4606110000000 1.0
C      1  0.5362070000000  0.5218700000000  0.4939980000000 1.0
C      1  0.5338980000000  0.4887260000000  0.5361580000000 1.0
C      1  0.5321530000000  0.4561220000000  0.5060480000000 1.0
C      1  0.5567610000000  0.4462430000000  0.4708730000000 1.0
C      1  0.5685350000000  0.5071510000000  0.4328380000000 1.0
C      1  0.5535070000000  0.5640190000000  0.4803430000000 1.0
C      1  0.5503580000000  0.5436040000000  0.5490440000000 1.0
C      1  0.5602760000000  0.4560540000000  0.5493560000000 1.0
C      1  0.4190480000000  0.5209190000000  0.5132540000000 1.0
C      1  0.5407970000000  0.4897330000000  0.5054770000000 1.0
END
