TITL C-3577077-324-359 -4.84190350174222e-07 125000 -1023.64724872912 0 0 161 (C1) n - 1
REM
REM in /home/bkarasulu/work/CARBON/AIRSS/Generating-Clusters/EDIP-Nigel-Params/with-SteepDescent/Higher-Symm/SD-CG/HFTN-CG
REM
REM
REM
REM
REM
REM ./C.cell (12c818d87b63d06a65506943cc24bca4)
REM
REM compiler GCC version 9.2.1 20190827 (Red Hat 9.2.1-1)
REM options -cpp -mtune=generic -march=x86-64 -g -O0 -fpre-include=/usr/include/finclude/math-vector-fortran.h
REM seed 1735512666 311819085 -854342889 -595268596 1257425002 -81020303 1661919383 1624326028 -1762303959 -471875648 1283594656 -1363577620 691692372 169754807 330968559 -1165371515 -1703267731 1457549499 -884474190 856659287 2129107902 499078692 -1596706240 87428230 -1611845201 76440614 -212359246 -316756395 1122954578 2099254540 -13528324 2011002146 -987948333
REM
CELL 1.54180   50.00000   50.00000   50.00000   90.00000   90.00000   90.00000
LATT -1
SFAC C  
C      1  0.4744710000000  0.5367260000000  0.5736390000000 1.0
C      1  0.4655790000000  0.4469790000000  0.5651410000000 1.0
C      1  0.4812680000000  0.4014010000000  0.4614310000000 1.0
C      1  0.4760970000000  0.5081140000000  0.4235570000000 1.0
C      1  0.4727990000000  0.5793270000000  0.4853780000000 1.0
C      1  0.6039210000000  0.5246950000000  0.4903720000000 1.0
C      1  0.6039180000000  0.5172690000000  0.5191630000000 1.0
C      1  0.6050120000000  0.4875630000000  0.5209530000000 1.0
C      1  0.6050470000000  0.4766240000000  0.4931700000000 1.0
C      1  0.6044450000000  0.4996210000000  0.4743280000000 1.0
C      1  0.5224830000000  0.4083470000000  0.5451150000000 1.0
C      1  0.5256360000000  0.4286930000000  0.4245880000000 1.0
C      1  0.5225770000000  0.5457710000000  0.4103850000000 1.0
C      1  0.5200500000000  0.5995080000000  0.5173930000000 1.0
C      1  0.5225070000000  0.5143470000000  0.5970380000000 1.0
C      1  0.5764760000000  0.5630710000000  0.5021730000000 1.0
C      1  0.5770690000000  0.5173630000000  0.5596090000000 1.0
C      1  0.5799850000000  0.4484850000000  0.5341240000000 1.0
C      1  0.5795150000000  0.4510970000000  0.4605760000000 1.0
C      1  0.5776450000000  0.5219960000000  0.4405660000000 1.0
C      1  0.5517450000000  0.5626220000000  0.5720230000000 1.0
C      1  0.5510920000000  0.4491950000000  0.5772460000000 1.0
C      1  0.5544030000000  0.4067120000000  0.4765380000000 1.0
C      1  0.5531390000000  0.4919860000000  0.4040570000000 1.0
C      1  0.5520120000000  0.5884640000000  0.4641140000000 1.0
C      1  0.5184740000000  0.5336800000000  0.5259600000000 1.0
C      1  0.5201760000000  0.4875020000000  0.5370640000000 1.0
C      1  0.5210110000000  0.4557970000000  0.5002110000000 1.0
C      1  0.5200960000000  0.4836290000000  0.4593530000000 1.0
C      1  0.5197280000000  0.5334440000000  0.4740190000000 1.0
C      1  0.5264010000000  0.4367620000000  0.5894540000000 1.0
C      1  0.5314540000000  0.3867820000000  0.4748190000000 1.0
C      1  0.5323220000000  0.4874700000000  0.3823400000000 1.0
C      1  0.5324040000000  0.6082620000000  0.4535640000000 1.0
C      1  0.5315350000000  0.5788110000000  0.5877060000000 1.0
C      1  0.5459720000000  0.4888110000000  0.4737180000000 1.0
C      1  0.5453670000000  0.5207440000000  0.4815370000000 1.0
C      1  0.5449160000000  0.5234290000000  0.5140220000000 1.0
C      1  0.5464950000000  0.4935670000000  0.5252190000000 1.0
C      1  0.5468050000000  0.4719400000000  0.5010480000000 1.0
C      1  0.4293630000000  0.5946420000000  0.4944070000000 1.0
C      1  0.4293330000000  0.5385250000000  0.5875500000000 1.0
C      1  0.4217100000000  0.4304810000000  0.5600580000000 1.0
C      1  0.4491770000000  0.4316410000000  0.4691900000000 1.0
C      1  0.4304800000000  0.5199380000000  0.4136560000000 1.0
C      1  0.5473860000000  0.5914650000000  0.5220570000000 1.0
C      1  0.5491630000000  0.5059130000000  0.5921440000000 1.0
C      1  0.5503470000000  0.4131010000000  0.5373000000000 1.0
C      1  0.5523800000000  0.4389300000000  0.4272210000000 1.0
C      1  0.5496370000000  0.5491650000000  0.4193310000000 1.0
C      1  0.4111780000000  0.4545560000000  0.5504630000000 1.0
C      1  0.4223580000000  0.4430970000000  0.4727970000000 1.0
C      1  0.4196460000000  0.5104010000000  0.4375190000000 1.0
C      1  0.4180700000000  0.5693520000000  0.4915670000000 1.0
C      1  0.4184790000000  0.5341820000000  0.5621810000000 1.0
C      1  0.4001010000000  0.4871540000000  0.4828650000000 1.0
C      1  0.3997630000000  0.5166960000000  0.4817520000000 1.0
C      1  0.3993710000000  0.5271350000000  0.5092440000000 1.0
C      1  0.3988840000000  0.5045780000000  0.5274950000000 1.0
C      1  0.3986230000000  0.4805030000000  0.5112560000000 1.0
C      1  0.5621290000000  0.4351800000000  0.5527990000000 1.0
C      1  0.5619850000000  0.4286200000000  0.4543280000000 1.0
C      1  0.5593720000000  0.5203770000000  0.4175970000000 1.0
C      1  0.5582080000000  0.5844150000000  0.4944660000000 1.0
C      1  0.5589160000000  0.5313600000000  0.5779290000000 1.0
C      1  0.4223230000000  0.4729570000000  0.4673170000000 1.0
C      1  0.4226320000000  0.5256400000000  0.4650870000000 1.0
C      1  0.4131940000000  0.5520830000000  0.5152360000000 1.0
C      1  0.4121210000000  0.5060820000000  0.5534120000000 1.0
C      1  0.4118560000000  0.4571380000000  0.5212660000000 1.0
C      1  0.5099640000000  0.4240320000000  0.5684390000000 1.0
C      1  0.5221240000000  0.4111020000000  0.4466290000000 1.0
C      1  0.5189650000000  0.5194500000000  0.3992340000000 1.0
C      1  0.5181930000000  0.6030420000000  0.4891230000000 1.0
C      1  0.5195480000000  0.5428080000000  0.5947660000000 1.0
C      1  0.4559820000000  0.4042170000000  0.5396340000000 1.0
C      1  0.4614040000000  0.4270770000000  0.4242470000000 1.0
C      1  0.4600550000000  0.5528210000000  0.4167310000000 1.0
C      1  0.4613860000000  0.6080560000000  0.5228600000000 1.0
C      1  0.4562270000000  0.5066700000000  0.6059590000000 1.0
C      1  0.5062370000000  0.4163600000000  0.5212110000000 1.0
C      1  0.5066680000000  0.4514050000000  0.4279670000000 1.0
C      1  0.5052010000000  0.5521990000000  0.4337970000000 1.0
C      1  0.5020270000000  0.5783390000000  0.5292050000000 1.0
C      1  0.5043310000000  0.4963030000000  0.5811760000000 1.0
C      1  0.4580860000000  0.5622680000000  0.4637100000000 1.0
C      1  0.4375990000000  0.5786660000000  0.5504930000000 1.0
C      1  0.4528720000000  0.4733940000000  0.5722950000000 1.0
C      1  0.4540600000000  0.4255980000000  0.4982710000000 1.0
C      1  0.4486100000000  0.4737430000000  0.4232210000000 1.0
C      1  0.5047080000000  0.5893290000000  0.5787010000000 1.0
C      1  0.5080710000000  0.4540310000000  0.6029620000000 1.0
C      1  0.5040390000000  0.3820270000000  0.4854910000000 1.0
C      1  0.5043040000000  0.4756730000000  0.3830700000000 1.0
C      1  0.5054020000000  0.6038680000000  0.4421440000000 1.0
C      1  0.4710920000000  0.4767240000000  0.4542400000000 1.0
C      1  0.4711660000000  0.5346240000000  0.4679070000000 1.0
C      1  0.4694850000000  0.5398860000000  0.5234200000000 1.0
C      1  0.4645240000000  0.4924780000000  0.5528340000000 1.0
C      1  0.4726580000000  0.4487170000000  0.5060170000000 1.0
C      1  0.5654000000000  0.5462290000000  0.5244110000000 1.0
C      1  0.5664390000000  0.4908000000000  0.5500330000000 1.0
C      1  0.5684350000000  0.4480370000000  0.5063130000000 1.0
C      1  0.5675500000000  0.4775000000000  0.4523380000000 1.0
C      1  0.5662810000000  0.5379770000000  0.4634730000000 1.0
C      1  0.5027340000000  0.4214250000000  0.4661990000000 1.0
C      1  0.5033700000000  0.4980840000000  0.4132220000000 1.0
C      1  0.5023750000000  0.5834090000000  0.4740140000000 1.0
C      1  0.5017590000000  0.5514030000000  0.5730220000000 1.0
C      1  0.4949910000000  0.4480540000000  0.5576940000000 1.0
C      1  0.5190610000000  0.5571030000000  0.5424250000000 1.0
C      1  0.5187250000000  0.4761430000000  0.5635890000000 1.0
C      1  0.5224420000000  0.4270660000000  0.4985060000000 1.0
C      1  0.5217280000000  0.4768510000000  0.4317480000000 1.0
C      1  0.5207490000000  0.5575210000000  0.4585480000000 1.0
C      1  0.4834670000000  0.5627490000000  0.5089670000000 1.0
C      1  0.4847140000000  0.5115770000000  0.5618180000000 1.0
C      1  0.4906680000000  0.4406690000000  0.5289820000000 1.0
C      1  0.4876470000000  0.4470910000000  0.4533670000000 1.0
C      1  0.4865500000000  0.5281220000000  0.4426470000000 1.0
C      1  0.5526390000000  0.4205210000000  0.5050620000000 1.0
C      1  0.5516270000000  0.4704710000000  0.4262540000000 1.0
C      1  0.5501850000000  0.5607440000000  0.4493010000000 1.0
C      1  0.5485540000000  0.5666940000000  0.5415430000000 1.0
C      1  0.5490420000000  0.4798810000000  0.5737940000000 1.0
C      1  0.4879710000000  0.5884180000000  0.5537420000000 1.0
C      1  0.4927750000000  0.4779850000000  0.6012880000000 1.0
C      1  0.4914250000000  0.3932490000000  0.5099330000000 1.0
C      1  0.4917220000000  0.4565420000000  0.4027930000000 1.0
C      1  0.4926960000000  0.5793990000000  0.4310280000000 1.0
C      1  0.4198910000000  0.4788550000000  0.5658380000000 1.0
C      1  0.4199600000000  0.4358350000000  0.5023950000000 1.0
C      1  0.4240210000000  0.4812020000000  0.4383060000000 1.0
C      1  0.4277830000000  0.5561670000000  0.4669640000000 1.0
C      1  0.4203840000000  0.5571760000000  0.5435140000000 1.0
C      1  0.4937770000000  0.4960930000000  0.4624380000000 1.0
C      1  0.4947350000000  0.5313940000000  0.4887930000000 1.0
C      1  0.4920770000000  0.5210380000000  0.5319970000000 1.0
C      1  0.4947440000000  0.4840330000000  0.5215110000000 1.0
C      1  0.4945100000000  0.4601460000000  0.4868360000000 1.0
C      1  0.4628790000000  0.4514050000000  0.4100800000000 1.0
C      1  0.4646100000000  0.5725440000000  0.4356550000000 1.0
C      1  0.4597400000000  0.5965240000000  0.5481880000000 1.0
C      1  0.4632450000000  0.4804960000000  0.5999490000000 1.0
C      1  0.4623570000000  0.3992470000000  0.5126020000000 1.0
C      1  0.4583970000000  0.4142360000000  0.4489130000000 1.0
C      1  0.4572650000000  0.5261770000000  0.4095670000000 1.0
C      1  0.4559640000000  0.6015920000000  0.4965550000000 1.0
C      1  0.4553070000000  0.5325630000000  0.5957630000000 1.0
C      1  0.4485710000000  0.4244150000000  0.5575970000000 1.0
C      1  0.5882090000000  0.5477840000000  0.4805910000000 1.0
C      1  0.5880580000000  0.5334180000000  0.5383930000000 1.0
C      1  0.5897640000000  0.4741750000000  0.5425390000000 1.0
C      1  0.5907040000000  0.4512660000000  0.4871910000000 1.0
C      1  0.5893880000000  0.4970640000000  0.4489290000000 1.0
C      1  0.4568440000000  0.4942410000000  0.5236900000000 1.0
C      1  0.4556470000000  0.4726380000000  0.5041790000000 1.0
C      1  0.4499200000000  0.4835390000000  0.4765270000000 1.0
C      1  0.4488120000000  0.5154600000000  0.4790320000000 1.0
C      1  0.4523010000000  0.5200810000000  0.5097590000000 1.0
C      1  0.4886630000000  0.5002390000000  0.4938820000000 1.0
END
