TITL C-3578204-4308-250 -1.93265707838899e-06 125000 -443.998902272469 0 0 72 (C1) n - 1
REM
REM in /home/bkarasulu/work/CARBON/AIRSS/Generating-Clusters/EDIP-Nigel-Params/with-SteepDescent/Higher-Symm/SD-CG/HFTN-CG
REM
REM
REM
REM
REM
REM ./C.cell (12c818d87b63d06a65506943cc24bca4)
REM
REM compiler GCC version 9.2.1 20190827 (Red Hat 9.2.1-1)
REM options -cpp -mtune=generic -march=x86-64 -g -O0 -fpre-include=/usr/include/finclude/math-vector-fortran.h
REM seed -8807639 1910962051 -275986669 -140076071 1151373617 -608539920 -1496689011 -305707420 1107823747 1151465281 874393908 -449485348 891726720 44150029 1688700865 -2070876420 2009889729 118859387 -350654479 697363000 -339124759 359366817 -1991320964 -740966045 2120534559 -1602608808 2050746614 -485876562 1214723157 1730124532 -1133626747 -1625167620 -1547439910
REM
CELL 1.54180   50.00000   50.00000   50.00000   90.00000   90.00000   90.00000
LATT -1
SFAC C  
C      1  0.5729110000000  0.5287330000000  0.5037660000000 1.0
C      1  0.5739460000000  0.4885830000000  0.4714710000000 1.0
C      1  0.5746060000000  0.4802740000000  0.5224820000000 1.0
C      1  0.4235890000000  0.5307120000000  0.4976140000000 1.0
C      1  0.4253380000000  0.4918350000000  0.5280450000000 1.0
C      1  0.4213530000000  0.4766470000000  0.4702350000000 1.0
C      1  0.5010900000000  0.5393180000000  0.4621510000000 1.0
C      1  0.5024570000000  0.4431760000000  0.4821530000000 1.0
C      1  0.5008470000000  0.5152310000000  0.5564790000000 1.0
C      1  0.4981770000000  0.5444270000000  0.5413830000000 1.0
C      1  0.4989690000000  0.4448320000000  0.5152860000000 1.0
C      1  0.5005720000000  0.5123930000000  0.4467820000000 1.0
C      1  0.4878200000000  0.4705330000000  0.5640690000000 1.0
C      1  0.4872550000000  0.5734110000000  0.4941190000000 1.0
C      1  0.4878440000000  0.4576490000000  0.4347740000000 1.0
C      1  0.5141660000000  0.4678840000000  0.4323130000000 1.0
C      1  0.5137930000000  0.5769110000000  0.5035960000000 1.0
C      1  0.5129390000000  0.4586380000000  0.5601920000000 1.0
C      1  0.4800150000000  0.5575270000000  0.4532140000000 1.0
C      1  0.4807190000000  0.4270780000000  0.4707800000000 1.0
C      1  0.4804060000000  0.5121240000000  0.5771520000000 1.0
C      1  0.5197640000000  0.5625670000000  0.5496130000000 1.0
C      1  0.5188760000000  0.4277140000000  0.5286150000000 1.0
C      1  0.5184420000000  0.5133570000000  0.4237870000000 1.0
C      1  0.5714760000000  0.5104000000000  0.5275820000000 1.0
C      1  0.5593440000000  0.5133380000000  0.4813750000000 1.0
C      1  0.5750520000000  0.4676580000000  0.4929290000000 1.0
C      1  0.4279320000000  0.5069420000000  0.4769950000000 1.0
C      1  0.4241860000000  0.5224150000000  0.5261600000000 1.0
C      1  0.4303100000000  0.4763740000000  0.5010200000000 1.0
C      1  0.4571520000000  0.4608960000000  0.4993090000000 1.0
C      1  0.4515030000000  0.5280140000000  0.5394950000000 1.0
C      1  0.4544400000000  0.5163300000000  0.4650830000000 1.0
C      1  0.5480990000000  0.4527260000000  0.4955640000000 1.0
C      1  0.5515810000000  0.5301980000000  0.4574680000000 1.0
C      1  0.5439010000000  0.5199630000000  0.5378020000000 1.0
C      1  0.5148160000000  0.4913090000000  0.4637410000000 1.0
C      1  0.5105090000000  0.4714190000000  0.5239760000000 1.0
C      1  0.5080260000000  0.5397920000000  0.5131520000000 1.0
C      1  0.4908450000000  0.4957870000000  0.5352850000000 1.0
C      1  0.4944080000000  0.4699850000000  0.4708700000000 1.0
C      1  0.4894650000000  0.5347200000000  0.4899330000000 1.0
C      1  0.5323860000000  0.4413690000000  0.4720280000000 1.0
C      1  0.5309580000000  0.5054270000000  0.5609060000000 1.0
C      1  0.5304240000000  0.5497760000000  0.4652220000000 1.0
C      1  0.4689940000000  0.4479570000000  0.5239370000000 1.0
C      1  0.4706960000000  0.5031030000000  0.4432260000000 1.0
C      1  0.4684330000000  0.5534240000000  0.5367410000000 1.0
C      1  0.4644220000000  0.4636110000000  0.5491350000000 1.0
C      1  0.4640170000000  0.5648580000000  0.5091140000000 1.0
C      1  0.4644990000000  0.4741150000000  0.4390230000000 1.0
C      1  0.5374460000000  0.4582090000000  0.4466590000000 1.0
C      1  0.5366550000000  0.5643900000000  0.4910880000000 1.0
C      1  0.5362340000000  0.4753230000000  0.5588530000000 1.0
C      1  0.4424610000000  0.4593180000000  0.4557150000000 1.0
C      1  0.4431190000000  0.4850700000000  0.5522330000000 1.0
C      1  0.4437270000000  0.5525830000000  0.4901840000000 1.0
C      1  0.5562880000000  0.4626250000000  0.5396760000000 1.0
C      1  0.5549970000000  0.4830410000000  0.4481040000000 1.0
C      1  0.5570700000000  0.5541050000000  0.5116700000000 1.0
C      1  0.5440910000000  0.5098710000000  0.4366990000000 1.0
C      1  0.5451230000000  0.4386170000000  0.5229160000000 1.0
C      1  0.5446740000000  0.5505560000000  0.5411970000000 1.0
C      1  0.4541940000000  0.5118180000000  0.5654330000000 1.0
C      1  0.4558410000000  0.4404920000000  0.4766280000000 1.0
C      1  0.4550540000000  0.5465530000000  0.4625310000000 1.0
C      1  0.5317490000000  0.5022350000000  0.4904820000000 1.0
C      1  0.5306520000000  0.4752420000000  0.5021550000000 1.0
C      1  0.5239040000000  0.5166030000000  0.5156330000000 1.0
C      1  0.4662510000000  0.5085350000000  0.5226820000000 1.0
C      1  0.4769020000000  0.4809740000000  0.4901320000000 1.0
C      1  0.4697960000000  0.5103780000000  0.4921880000000 1.0
END
