TITL C-3577091-527-2 6.21718045738866e-07 125000 -389.350258567264 0 0 63 (C1) n - 1
REM
REM in /home/bkarasulu/work/CARBON/AIRSS/Generating-Clusters/EDIP-Nigel-Params/with-SteepDescent/Higher-Symm/SD-CG/HFTN-CG
REM
REM
REM
REM
REM
REM ./C.cell (12c818d87b63d06a65506943cc24bca4)
REM
REM compiler GCC version 9.2.1 20190827 (Red Hat 9.2.1-1)
REM options -cpp -mtune=generic -march=x86-64 -g -O0 -fpre-include=/usr/include/finclude/math-vector-fortran.h
REM seed -1351496294 -1583150382 186400489 -1168583279 -1984102384 1609328042 2065614973 233312227 122000180 -1813853481 -33541254 2025084199 1079585854 1671992825 1503225345 1055900197 -338316881 175760552 154367264 205041529 384547465 674493574 769650143 -1369676451 322499030 365920717 1832347316 -1910719425 -1248163295 512654860 1056628615 242237331 1320370190
REM
CELL 1.54180   50.00000   50.00000   50.00000   90.00000   90.00000   90.00000
LATT -1
SFAC C  
C      1  0.5327650000000  0.4954990000000  0.4247270000000 1.0
C      1  0.4602520000000  0.5039930000000  0.5726880000000 1.0
C      1  0.5285800000000  0.4939630000000  0.4531920000000 1.0
C      1  0.4702330000000  0.5008920000000  0.5454980000000 1.0
C      1  0.4823910000000  0.4498900000000  0.4998940000000 1.0
C      1  0.5211680000000  0.5477670000000  0.5012710000000 1.0
C      1  0.5173360000000  0.5149200000000  0.4141780000000 1.0
C      1  0.4703800000000  0.4831110000000  0.5867360000000 1.0
C      1  0.4855920000000  0.4314040000000  0.4576240000000 1.0
C      1  0.5208420000000  0.5655550000000  0.5443750000000 1.0
C      1  0.5538900000000  0.4884290000000  0.4690910000000 1.0
C      1  0.4494860000000  0.5078490000000  0.5250760000000 1.0
C      1  0.5314450000000  0.4470090000000  0.4649410000000 1.0
C      1  0.4772530000000  0.5458580000000  0.5379170000000 1.0
C      1  0.5498310000000  0.4624160000000  0.4840950000000 1.0
C      1  0.4573790000000  0.5353590000000  0.5172810000000 1.0
C      1  0.5424010000000  0.5264480000000  0.5620630000000 1.0
C      1  0.4653010000000  0.4739160000000  0.4431460000000 1.0
C      1  0.5004420000000  0.4751700000000  0.4903640000000 1.0
C      1  0.5089280000000  0.5205470000000  0.5105250000000 1.0
C      1  0.5134480000000  0.5197260000000  0.4619850000000 1.0
C      1  0.4831280000000  0.4735560000000  0.5428780000000 1.0
C      1  0.5545460000000  0.4744500000000  0.5489270000000 1.0
C      1  0.4363230000000  0.5509190000000  0.4537200000000 1.0
C      1  0.5113120000000  0.4695290000000  0.4612250000000 1.0
C      1  0.4945420000000  0.5202210000000  0.5397660000000 1.0
C      1  0.5162580000000  0.4789150000000  0.5750860000000 1.0
C      1  0.4749400000000  0.5261430000000  0.4343590000000 1.0
C      1  0.4344300000000  0.4830520000000  0.4796950000000 1.0
C      1  0.5727260000000  0.5112100000000  0.5081340000000 1.0
C      1  0.4419490000000  0.4609780000000  0.5222150000000 1.0
C      1  0.5587400000000  0.5360100000000  0.4706940000000 1.0
C      1  0.4889010000000  0.4680580000000  0.5716410000000 1.0
C      1  0.5039350000000  0.5287440000000  0.4345260000000 1.0
C      1  0.4686640000000  0.4536040000000  0.5265620000000 1.0
C      1  0.5316350000000  0.5409640000000  0.4737130000000 1.0
C      1  0.5113520000000  0.4250800000000  0.4739730000000 1.0
C      1  0.4939900000000  0.5697200000000  0.5302030000000 1.0
C      1  0.4437460000000  0.4848350000000  0.5076480000000 1.0
C      1  0.5690430000000  0.5116310000000  0.4797950000000 1.0
C      1  0.5388380000000  0.4842970000000  0.5274930000000 1.0
C      1  0.4395430000000  0.5319450000000  0.4743570000000 1.0
C      1  0.5435740000000  0.5102160000000  0.5158540000000 1.0
C      1  0.4402240000000  0.5060070000000  0.4618880000000 1.0
C      1  0.4665040000000  0.5349120000000  0.4889010000000 1.0
C      1  0.5289440000000  0.4657570000000  0.5063330000000 1.0
C      1  0.5254940000000  0.4388790000000  0.5193400000000 1.0
C      1  0.4774410000000  0.5624710000000  0.4828710000000 1.0
C      1  0.4623660000000  0.5523810000000  0.4423820000000 1.0
C      1  0.5358290000000  0.4594090000000  0.5638720000000 1.0
C      1  0.5546180000000  0.5325690000000  0.5351560000000 1.0
C      1  0.4468450000000  0.4603520000000  0.4629550000000 1.0
C      1  0.4640290000000  0.4396910000000  0.4772720000000 1.0
C      1  0.5402050000000  0.5562070000000  0.5236110000000 1.0
C      1  0.5184730000000  0.5073860000000  0.5587700000000 1.0
C      1  0.4664030000000  0.5025930000000  0.4501350000000 1.0
C      1  0.5207640000000  0.5456150000000  0.5656160000000 1.0
C      1  0.4902660000000  0.4578260000000  0.4428390000000 1.0
C      1  0.4999830000000  0.5694230000000  0.5003210000000 1.0
C      1  0.5035000000000  0.4282070000000  0.5032250000000 1.0
C      1  0.4799040000000  0.5700670000000  0.4557540000000 1.0
C      1  0.5240220000000  0.4393120000000  0.5475890000000 1.0
C      1  0.4922040000000  0.5108590000000  0.4855500000000 1.0
END
