TITL C-3578198-8939-210 -5.65968325247294e-07 125000 -342.98744364242 0 0 56 (C1) n - 1
REM
REM in /home/bkarasulu/work/CARBON/AIRSS/Generating-Clusters/EDIP-Nigel-Params/with-SteepDescent/Higher-Symm/SD-CG/HFTN-CG
REM
REM
REM
REM
REM
REM ./C.cell (12c818d87b63d06a65506943cc24bca4)
REM
REM compiler GCC version 9.2.1 20190827 (Red Hat 9.2.1-1)
REM options -cpp -mtune=generic -march=x86-64 -g -O0 -fpre-include=/usr/include/finclude/math-vector-fortran.h
REM seed 532758455 -1485403712 -564168045 -1797420244 -1536353935 -1468942069 -918481402 1886026227 1466371735 1210966505 -667995197 -915586378 384482768 204101667 -1169138806 -1522965424 1422526073 -237205318 -755592914 -2019548134 -1360614017 -1127896270 140383788 -312384076 -1450644127 1766264059 1065885817 154050486 502323608 1111047101 -1971583415 711297081 -78765749
REM
CELL 1.54180   50.00000   50.00000   50.00000   90.00000   90.00000   90.00000
LATT -1
SFAC C  
C      1  0.5160010000000  0.4153220000000  0.5309900000000 1.0
C      1  0.4788160000000  0.5862420000000  0.5359560000000 1.0
C      1  0.5106840000000  0.4029080000000  0.4732930000000 1.0
C      1  0.4738460000000  0.5893870000000  0.4726100000000 1.0
C      1  0.4778160000000  0.4145400000000  0.5368940000000 1.0
C      1  0.5166090000000  0.5872550000000  0.5279550000000 1.0
C      1  0.4724630000000  0.4093700000000  0.4744960000000 1.0
C      1  0.5115050000000  0.5957700000000  0.4667930000000 1.0
C      1  0.5271090000000  0.4243690000000  0.4825210000000 1.0
C      1  0.4689600000000  0.5673140000000  0.4899130000000 1.0
C      1  0.5264620000000  0.4320770000000  0.5103410000000 1.0
C      1  0.4640890000000  0.5689320000000  0.5185640000000 1.0
C      1  0.4695130000000  0.4327510000000  0.4906070000000 1.0
C      1  0.5286490000000  0.5768070000000  0.4794540000000 1.0
C      1  0.4632890000000  0.4315450000000  0.5189710000000 1.0
C      1  0.5261350000000  0.5696830000000  0.5074610000000 1.0
C      1  0.4555130000000  0.5340430000000  0.5536630000000 1.0
C      1  0.5359240000000  0.4674990000000  0.5425380000000 1.0
C      1  0.4670570000000  0.5314650000000  0.4556780000000 1.0
C      1  0.5494370000000  0.4669570000000  0.4682080000000 1.0
C      1  0.5381890000000  0.5361990000000  0.5413250000000 1.0
C      1  0.4595350000000  0.4667970000000  0.5536670000000 1.0
C      1  0.5510200000000  0.5332580000000  0.4690140000000 1.0
C      1  0.4732840000000  0.4679090000000  0.4563680000000 1.0
C      1  0.5348880000000  0.5134420000000  0.5549270000000 1.0
C      1  0.4727890000000  0.4865210000000  0.5679190000000 1.0
C      1  0.5503320000000  0.5125590000000  0.4503490000000 1.0
C      1  0.4873470000000  0.4859360000000  0.4407130000000 1.0
C      1  0.4620440000000  0.5119640000000  0.5671710000000 1.0
C      1  0.5258810000000  0.4876140000000  0.5588000000000 1.0
C      1  0.4776100000000  0.5117430000000  0.4412100000000 1.0
C      1  0.5417090000000  0.4860140000000  0.4464770000000 1.0
C      1  0.5393250000000  0.4569210000000  0.5170500000000 1.0
C      1  0.4536320000000  0.5429560000000  0.5274630000000 1.0
C      1  0.5404240000000  0.4407530000000  0.4643660000000 1.0
C      1  0.4601070000000  0.5415460000000  0.4804070000000 1.0
C      1  0.4545820000000  0.4580920000000  0.5276710000000 1.0
C      1  0.5401360000000  0.5457970000000  0.5154740000000 1.0
C      1  0.4624110000000  0.4587910000000  0.4802420000000 1.0
C      1  0.5427920000000  0.5590980000000  0.4632980000000 1.0
C      1  0.5399820000000  0.5242930000000  0.4948560000000 1.0
C      1  0.4616790000000  0.4764930000000  0.5049290000000 1.0
C      1  0.5397550000000  0.4773850000000  0.4950500000000 1.0
C      1  0.4606960000000  0.5241390000000  0.5050220000000 1.0
C      1  0.5114590000000  0.4856970000000  0.4895470000000 1.0
C      1  0.4890610000000  0.5163130000000  0.5111550000000 1.0
C      1  0.4894540000000  0.4857280000000  0.5112440000000 1.0
C      1  0.5113930000000  0.5165580000000  0.4893780000000 1.0
C      1  0.4907550000000  0.4048830000000  0.4541910000000 1.0
C      1  0.4909340000000  0.6105240000000  0.4781990000000 1.0
C      1  0.4960980000000  0.6059640000000  0.5269030000000 1.0
C      1  0.4963990000000  0.3958620000000  0.5282600000000 1.0
C      1  0.5547850000000  0.5008110000000  0.5035440000000 1.0
C      1  0.4443240000000  0.4999660000000  0.5029150000000 1.0
C      1  0.5003630000000  0.4845800000000  0.5690070000000 1.0
C      1  0.5149500000000  0.4826570000000  0.4382900000000 1.0
END
