TITL C-3578203-1966-733 -1.39183104965891e-06 125000 -539.454357673772 0 0 87 (C1) n - 1
REM
REM in /home/bkarasulu/work/CARBON/AIRSS/Generating-Clusters/EDIP-Nigel-Params/with-SteepDescent/Higher-Symm/SD-CG/HFTN-CG
REM
REM
REM
REM
REM
REM ./C.cell (12c818d87b63d06a65506943cc24bca4)
REM
REM compiler GCC version 9.2.1 20190827 (Red Hat 9.2.1-1)
REM options -cpp -mtune=generic -march=x86-64 -g -O0 -fpre-include=/usr/include/finclude/math-vector-fortran.h
REM seed -1415662907 -1565861231 -157567287 -1656234316 632359166 -2073946719 -708030846 -84369023 2052951992 1907941494 -1874072625 -1852395775 -1768845234 629711743 784807879 1153242227 1801296195 1488375155 -1665933121 1410674675 -1555630624 -736357704 1439322521 -23456916 -1850171943 1694805922 1595816051 1209748368 -405896774 -1421985580 -1996700777 1936252606 -13316700
REM
CELL 1.54180   50.00000   50.00000   50.00000   90.00000   90.00000   90.00000
LATT -1
SFAC C  
C      1  0.4720260000000  0.4188540000000  0.5013660000000 1.0
C      1  0.5155020000000  0.4185720000000  0.5234890000000 1.0
C      1  0.5131210000000  0.4187890000000  0.4746020000000 1.0
C      1  0.4450630000000  0.5585990000000  0.4788840000000 1.0
C      1  0.5088530000000  0.5583700000000  0.5580750000000 1.0
C      1  0.5457410000000  0.5586540000000  0.4632280000000 1.0
C      1  0.4967800000000  0.5001640000000  0.5398380000000 1.0
C      1  0.5355930000000  0.4998570000000  0.4828660000000 1.0
C      1  0.4671440000000  0.5001240000000  0.4776390000000 1.0
C      1  0.5145770000000  0.4687160000000  0.4738590000000 1.0
C      1  0.4705660000000  0.4689660000000  0.5003260000000 1.0
C      1  0.5158810000000  0.4697200000000  0.5250850000000 1.0
C      1  0.5332220000000  0.5351960000000  0.4470750000000 1.0
C      1  0.4372970000000  0.5351040000000  0.4976880000000 1.0
C      1  0.5290590000000  0.5349830000000  0.5553520000000 1.0
C      1  0.5142050000000  0.5404600000000  0.4883650000000 1.0
C      1  0.4826480000000  0.5403260000000  0.4934340000000 1.0
C      1  0.5030370000000  0.5402710000000  0.5180960000000 1.0
C      1  0.5253220000000  0.5764350000000  0.4801630000000 1.0
C      1  0.4698870000000  0.5763030000000  0.4880930000000 1.0
C      1  0.5043460000000  0.5761960000000  0.5321270000000 1.0
C      1  0.4408190000000  0.4618700000000  0.5033900000000 1.0
C      1  0.5329300000000  0.4621360000000  0.5494770000000 1.0
C      1  0.5268520000000  0.4618970000000  0.4466040000000 1.0
C      1  0.4473190000000  0.4777670000000  0.5523580000000 1.0
C      1  0.5721320000000  0.4776080000000  0.5195210000000 1.0
C      1  0.4811230000000  0.4781150000000  0.4280690000000 1.0
C      1  0.5696560000000  0.5424480000000  0.5050440000000 1.0
C      1  0.4688010000000  0.5430490000000  0.4365670000000 1.0
C      1  0.4603780000000  0.5428100000000  0.5588790000000 1.0
C      1  0.4875950000000  0.5411420000000  0.5698550000000 1.0
C      1  0.5662000000000  0.5411310000000  0.4760390000000 1.0
C      1  0.4456850000000  0.5413220000000  0.4546010000000 1.0
C      1  0.5387940000000  0.5056040000000  0.5127690000000 1.0
C      1  0.4908760000000  0.5071310000000  0.4598370000000 1.0
C      1  0.4695600000000  0.5070470000000  0.5280080000000 1.0
C      1  0.4959390000000  0.5116230000000  0.5699800000000 1.0
C      1  0.5621130000000  0.5116740000000  0.4687120000000 1.0
C      1  0.4415040000000  0.5117740000000  0.4617090000000 1.0
C      1  0.5302940000000  0.4578400000000  0.4986140000000 1.0
C      1  0.4841270000000  0.4578460000000  0.4745030000000 1.0
C      1  0.4864810000000  0.4583150000000  0.5263430000000 1.0
C      1  0.5182080000000  0.5189200000000  0.5308370000000 1.0
C      1  0.5173430000000  0.5192050000000  0.4687830000000 1.0
C      1  0.4639930000000  0.5191980000000  0.5006230000000 1.0
C      1  0.4873320000000  0.4283290000000  0.5251990000000 1.0
C      1  0.5287750000000  0.4279110000000  0.4984530000000 1.0
C      1  0.4846570000000  0.4279280000000  0.4757990000000 1.0
C      1  0.5244690000000  0.5001300000000  0.4170170000000 1.0
C      1  0.4159000000000  0.4997630000000  0.5203270000000 1.0
C      1  0.5598340000000  0.4998630000000  0.5628880000000 1.0
C      1  0.4300300000000  0.5478680000000  0.5235370000000 1.0
C      1  0.5550150000000  0.5478520000000  0.5487980000000 1.0
C      1  0.5145070000000  0.5481290000000  0.4279030000000 1.0
C      1  0.4953740000000  0.5749940000000  0.4693060000000 1.0
C      1  0.4754410000000  0.5746820000000  0.5194350000000 1.0
C      1  0.5287520000000  0.5750000000000  0.5116580000000 1.0
C      1  0.4912430000000  0.4735320000000  0.5742200000000 1.0
C      1  0.5688870000000  0.4737160000000  0.4703750000000 1.0
C      1  0.4402220000000  0.4737450000000  0.4551580000000 1.0
C      1  0.4496970000000  0.5151660000000  0.5504000000000 1.0
C      1  0.5680770000000  0.5148850000000  0.5184340000000 1.0
C      1  0.4814470000000  0.5154200000000  0.4314540000000 1.0
C      1  0.4163860000000  0.5030150000000  0.4901550000000 1.0
C      1  0.5332460000000  0.5030390000000  0.5773250000000 1.0
C      1  0.5503690000000  0.5032730000000  0.4325470000000 1.0
C      1  0.4357220000000  0.4326660000000  0.5030850000000 1.0
C      1  0.5351860000000  0.4328880000000  0.5537830000000 1.0
C      1  0.5295100000000  0.4327000000000  0.4421760000000 1.0
C      1  0.5251450000000  0.4070740000000  0.4510530000000 1.0
C      1  0.4456760000000  0.4070630000000  0.5032290000000 1.0
C      1  0.5299070000000  0.4071350000000  0.5458240000000 1.0
C      1  0.5052260000000  0.5229240000000  0.4149230000000 1.0
C      1  0.4235160000000  0.5226130000000  0.5380190000000 1.0
C      1  0.5709170000000  0.5226520000000  0.5471410000000 1.0
C      1  0.5601750000000  0.4749040000000  0.5464640000000 1.0
C      1  0.5103130000000  0.4751240000000  0.4249020000000 1.0
C      1  0.4301000000000  0.4748810000000  0.5285820000000 1.0
C      1  0.4674580000000  0.4652450000000  0.4503140000000 1.0
C      1  0.4734970000000  0.4650110000000  0.5530050000000 1.0
C      1  0.5595840000000  0.4650890000000  0.4963530000000 1.0
C      1  0.5203660000000  0.4754340000000  0.5731600000000 1.0
C      1  0.5535250000000  0.4755110000000  0.4456090000000 1.0
C      1  0.4264890000000  0.4754090000000  0.4808670000000 1.0
C      1  0.4539510000000  0.5616700000000  0.5364130000000 1.0
C      1  0.5540660000000  0.5616990000000  0.5217220000000 1.0
C      1  0.4914220000000  0.5619340000000  0.4422180000000 1.0
END
