TITL C-3577077-324-241 1.58575563094793e-06 125000 -1065.44084670211 0 0 169 (C1) n - 1
REM
REM in /home/bkarasulu/work/CARBON/AIRSS/Generating-Clusters/EDIP-Nigel-Params/with-SteepDescent/Higher-Symm/SD-CG/HFTN-CG
REM
REM
REM
REM
REM
REM ./C.cell (12c818d87b63d06a65506943cc24bca4)
REM
REM compiler GCC version 9.2.1 20190827 (Red Hat 9.2.1-1)
REM options -cpp -mtune=generic -march=x86-64 -g -O0 -fpre-include=/usr/include/finclude/math-vector-fortran.h
REM seed 117515941 380551355 -2147232731 55074390 664536417 2037344747 1172824573 -1366264410 1825407239 2091890016 -1327726717 1883804325 855989637 906920868 -1503110887 -1090867387 1767079100 -2068841180 -114456636 1078581800 -2126940751 -1640811217 198742052 1058641340 -1377415496 -46859509 685043728 -1021229928 799911719 188065619 1123999506 -419359651 -2078011202
REM
CELL 1.54180   50.00000   50.00000   50.00000   90.00000   90.00000   90.00000
LATT -1
SFAC C  
C      1  0.5467600000000  0.4911900000000  0.5484230000000 1.0
C      1  0.5633830000000  0.4866830000000  0.4933870000000 1.0
C      1  0.5093750000000  0.4673200000000  0.4462530000000 1.0
C      1  0.4406000000000  0.4797520000000  0.4833310000000 1.0
C      1  0.4644060000000  0.5015570000000  0.5698470000000 1.0
C      1  0.5204820000000  0.4951370000000  0.4402970000000 1.0
C      1  0.5661360000000  0.5149070000000  0.5055580000000 1.0
C      1  0.5266490000000  0.4807280000000  0.5675250000000 1.0
C      1  0.4235640000000  0.5114030000000  0.5287970000000 1.0
C      1  0.4407830000000  0.4987630000000  0.4610210000000 1.0
C      1  0.5408170000000  0.5864880000000  0.5500880000000 1.0
C      1  0.5614920000000  0.5805850000000  0.4777200000000 1.0
C      1  0.4923010000000  0.5838020000000  0.4408250000000 1.0
C      1  0.4408700000000  0.5722190000000  0.4868020000000 1.0
C      1  0.4580100000000  0.5782560000000  0.5456710000000 1.0
C      1  0.5467100000000  0.4134200000000  0.4505170000000 1.0
C      1  0.5590540000000  0.4193720000000  0.5251890000000 1.0
C      1  0.4955120000000  0.4192040000000  0.5537930000000 1.0
C      1  0.4410010000000  0.4269730000000  0.5149190000000 1.0
C      1  0.4735480000000  0.4260390000000  0.4496930000000 1.0
C      1  0.5817210000000  0.4178040000000  0.5073370000000 1.0
C      1  0.5387170000000  0.4154150000000  0.4222560000000 1.0
C      1  0.4443940000000  0.4230610000000  0.4469150000000 1.0
C      1  0.4256570000000  0.4239510000000  0.5399510000000 1.0
C      1  0.5173420000000  0.4149890000000  0.5750270000000 1.0
C      1  0.5858380000000  0.5756130000000  0.4930790000000 1.0
C      1  0.5235630000000  0.5719040000000  0.5687310000000 1.0
C      1  0.4289400000000  0.5781340000000  0.5446810000000 1.0
C      1  0.4334420000000  0.5760790000000  0.4580370000000 1.0
C      1  0.5171760000000  0.5790220000000  0.4272540000000 1.0
C      1  0.4467130000000  0.5948060000000  0.4422180000000 1.0
C      1  0.4172570000000  0.5946120000000  0.5253050000000 1.0
C      1  0.5000220000000  0.5884200000000  0.5670600000000 1.0
C      1  0.5780530000000  0.5883250000000  0.5180780000000 1.0
C      1  0.5347690000000  0.5963690000000  0.4421270000000 1.0
C      1  0.4448850000000  0.4114130000000  0.5565320000000 1.0
C      1  0.4352660000000  0.4098740000000  0.4702800000000 1.0
C      1  0.5114450000000  0.4034350000000  0.4259030000000 1.0
C      1  0.5709150000000  0.3994870000000  0.4876340000000 1.0
C      1  0.5434340000000  0.4102060000000  0.5679170000000 1.0
C      1  0.4680400000000  0.5902390000000  0.4957500000000 1.0
C      1  0.4702960000000  0.5927740000000  0.5244960000000 1.0
C      1  0.5193740000000  0.6027070000000  0.5370190000000 1.0
C      1  0.5501670000000  0.6025170000000  0.4948310000000 1.0
C      1  0.5009120000000  0.6053960000000  0.4585350000000 1.0
C      1  0.4663530000000  0.4114210000000  0.5144820000000 1.0
C      1  0.4813760000000  0.4103070000000  0.4725650000000 1.0
C      1  0.5266020000000  0.3942540000000  0.4592890000000 1.0
C      1  0.5429740000000  0.3976870000000  0.5141840000000 1.0
C      1  0.4919160000000  0.4036000000000  0.5275660000000 1.0
C      1  0.3939060000000  0.5441500000000  0.5305160000000 1.0
C      1  0.5013780000000  0.5347860000000  0.5898660000000 1.0
C      1  0.5920980000000  0.5357300000000  0.5259630000000 1.0
C      1  0.5725040000000  0.5369600000000  0.4191680000000 1.0
C      1  0.4398130000000  0.5395310000000  0.4047170000000 1.0
C      1  0.3947500000000  0.4622030000000  0.4738910000000 1.0
C      1  0.4934320000000  0.4656130000000  0.4004180000000 1.0
C      1  0.6065520000000  0.4551930000000  0.4522860000000 1.0
C      1  0.5780940000000  0.4602980000000  0.5860590000000 1.0
C      1  0.4398440000000  0.4611190000000  0.5663690000000 1.0
C      1  0.4582210000000  0.5511360000000  0.4245840000000 1.0
C      1  0.3965040000000  0.5556190000000  0.5028870000000 1.0
C      1  0.4757160000000  0.5482920000000  0.5824260000000 1.0
C      1  0.5696610000000  0.5459300000000  0.5419680000000 1.0
C      1  0.5557650000000  0.5513580000000  0.4381050000000 1.0
C      1  0.4628060000000  0.4474610000000  0.5789660000000 1.0
C      1  0.4226210000000  0.4551440000000  0.4740140000000 1.0
C      1  0.5067920000000  0.4503020000000  0.4204060000000 1.0
C      1  0.5843870000000  0.4411130000000  0.4650630000000 1.0
C      1  0.5747130000000  0.4486630000000  0.5608240000000 1.0
C      1  0.5261870000000  0.4472440000000  0.5191860000000 1.0
C      1  0.5175660000000  0.4425150000000  0.4898720000000 1.0
C      1  0.4878210000000  0.4459660000000  0.4861510000000 1.0
C      1  0.4781910000000  0.4486900000000  0.5168110000000 1.0
C      1  0.5011330000000  0.4458870000000  0.5381730000000 1.0
C      1  0.5152230000000  0.5570980000000  0.4804090000000 1.0
C      1  0.5279860000000  0.5710270000000  0.5039400000000 1.0
C      1  0.5134980000000  0.5596090000000  0.5276340000000 1.0
C      1  0.4848060000000  0.5573860000000  0.5176620000000 1.0
C      1  0.4872490000000  0.5512950000000  0.4862740000000 1.0
C      1  0.5782990000000  0.4691700000000  0.5399680000000 1.0
C      1  0.5585970000000  0.4560230000000  0.4542370000000 1.0
C      1  0.4597730000000  0.4841030000000  0.4420650000000 1.0
C      1  0.4119930000000  0.4867040000000  0.5157460000000 1.0
C      1  0.4868620000000  0.4647520000000  0.5858410000000 1.0
C      1  0.5568920000000  0.5347590000000  0.4630630000000 1.0
C      1  0.5487790000000  0.5251970000000  0.5509560000000 1.0
C      1  0.4588660000000  0.5314970000000  0.5646890000000 1.0
C      1  0.4086380000000  0.5326760000000  0.4865980000000 1.0
C      1  0.4799250000000  0.5304440000000  0.4336750000000 1.0
C      1  0.5990670000000  0.5073170000000  0.5329120000000 1.0
C      1  0.5748830000000  0.5088440000000  0.4191200000000 1.0
C      1  0.4430900000000  0.5114010000000  0.4072170000000 1.0
C      1  0.3831300000000  0.5161310000000  0.5306310000000 1.0
C      1  0.5025650000000  0.5074000000000  0.6001260000000 1.0
C      1  0.6054160000000  0.4834400000000  0.4544790000000 1.0
C      1  0.5764330000000  0.4883430000000  0.5805320000000 1.0
C      1  0.4385140000000  0.4887330000000  0.5709050000000 1.0
C      1  0.3931370000000  0.4894700000000  0.4692570000000 1.0
C      1  0.4907920000000  0.4928640000000  0.4030230000000 1.0
C      1  0.5494450000000  0.5306560000000  0.5807940000000 1.0
C      1  0.5816100000000  0.5265050000000  0.4798330000000 1.0
C      1  0.5071690000000  0.5327870000000  0.4204940000000 1.0
C      1  0.4073330000000  0.5329950000000  0.4559540000000 1.0
C      1  0.4282880000000  0.5345090000000  0.5663590000000 1.0
C      1  0.5562800000000  0.4618480000000  0.4241780000000 1.0
C      1  0.6044140000000  0.4602900000000  0.5130010000000 1.0
C      1  0.5099370000000  0.4574150000000  0.6043030000000 1.0
C      1  0.3973960000000  0.4700880000000  0.5376520000000 1.0
C      1  0.4392700000000  0.4680910000000  0.4262610000000 1.0
C      1  0.5353490000000  0.4433640000000  0.4122590000000 1.0
C      1  0.4280810000000  0.4476110000000  0.4444760000000 1.0
C      1  0.4161780000000  0.4495430000000  0.5531280000000 1.0
C      1  0.5166280000000  0.4316540000000  0.5971240000000 1.0
C      1  0.5905750000000  0.4421620000000  0.4950310000000 1.0
C      1  0.5264570000000  0.5488460000000  0.5871390000000 1.0
C      1  0.4176600000000  0.5517510000000  0.5462340000000 1.0
C      1  0.4252290000000  0.5522200000000  0.4445400000000 1.0
C      1  0.5271860000000  0.5522720000000  0.4276700000000 1.0
C      1  0.5948060000000  0.5472600000000  0.4971130000000 1.0
C      1  0.4154580000000  0.5789940000000  0.5021910000000 1.0
C      1  0.4746750000000  0.5753370000000  0.5699080000000 1.0
C      1  0.5602630000000  0.5722050000000  0.5337240000000 1.0
C      1  0.5589230000000  0.5808570000000  0.4485610000000 1.0
C      1  0.4662720000000  0.5802950000000  0.4284900000000 1.0
C      1  0.4264610000000  0.4288220000000  0.4892890000000 1.0
C      1  0.4914830000000  0.4248650000000  0.4259860000000 1.0
C      1  0.5737670000000  0.4119270000000  0.4613460000000 1.0
C      1  0.5629570000000  0.4230050000000  0.5532540000000 1.0
C      1  0.4685270000000  0.4213910000000  0.5680460000000 1.0
C      1  0.4496470000000  0.5198140000000  0.5141550000000 1.0
C      1  0.4959500000000  0.5150080000000  0.5337270000000 1.0
C      1  0.5388090000000  0.5257490000000  0.5059030000000 1.0
C      1  0.5190150000000  0.5060090000000  0.4699030000000 1.0
C      1  0.4511150000000  0.5252360000000  0.4682830000000 1.0
C      1  0.4613950000000  0.4934840000000  0.5015920000000 1.0
C      1  0.4890460000000  0.4997370000000  0.4798040000000 1.0
C      1  0.5366120000000  0.4844920000000  0.4803140000000 1.0
C      1  0.5329050000000  0.4779360000000  0.5238720000000 1.0
C      1  0.4824880000000  0.4906720000000  0.5458130000000 1.0
C      1  0.4218490000000  0.4932230000000  0.4197690000000 1.0
C      1  0.3899950000000  0.4962120000000  0.5528760000000 1.0
C      1  0.5261320000000  0.4876900000000  0.5964030000000 1.0
C      1  0.6045140000000  0.4886450000000  0.5095820000000 1.0
C      1  0.5512840000000  0.4910640000000  0.4168680000000 1.0
C      1  0.4188180000000  0.5070870000000  0.5594220000000 1.0
C      1  0.4125530000000  0.5033300000000  0.4496630000000 1.0
C      1  0.5156200000000  0.5062670000000  0.4120990000000 1.0
C      1  0.5988660000000  0.4977220000000  0.4803600000000 1.0
C      1  0.5537520000000  0.5036560000000  0.5941960000000 1.0
C      1  0.5309780000000  0.4590020000000  0.4675620000000 1.0
C      1  0.4837990000000  0.4718250000000  0.4632040000000 1.0
C      1  0.4683900000000  0.4760310000000  0.5236710000000 1.0
C      1  0.5006190000000  0.4700380000000  0.5585180000000 1.0
C      1  0.5599100000000  0.4661860000000  0.5153740000000 1.0
C      1  0.5227060000000  0.5311040000000  0.5312830000000 1.0
C      1  0.4713740000000  0.5330040000000  0.5325570000000 1.0
C      1  0.4392360000000  0.5379960000000  0.4910540000000 1.0
C      1  0.4794520000000  0.5273730000000  0.4673600000000 1.0
C      1  0.5316280000000  0.5321910000000  0.4783390000000 1.0
C      1  0.4691970000000  0.5043090000000  0.4209650000000 1.0
C      1  0.4784620000000  0.4925210000000  0.5944260000000 1.0
C      1  0.5942020000000  0.5011060000000  0.5610570000000 1.0
C      1  0.5964350000000  0.4974950000000  0.4323310000000 1.0
C      1  0.3955040000000  0.5044880000000  0.4955240000000 1.0
C      1  0.5073480000000  0.4005740000000  0.4800830000000 1.0
C      1  0.5202250000000  0.6006720000000  0.5063270000000 1.0
C      1  0.4946650000000  0.6036330000000  0.4869540000000 1.0
C      1  0.5147690000000  0.4022570000000  0.5083060000000 1.0
END
