TITL C-3578209-2550-184 2.49052585403197e-06 125000 -671.575460191142 0 0 111 (C1) n - 1
REM
REM in /home/bkarasulu/work/CARBON/AIRSS/Generating-Clusters/EDIP-Nigel-Params/with-SteepDescent/Higher-Symm/SD-CG/HFTN-CG
REM
REM
REM
REM
REM
REM ./C.cell (12c818d87b63d06a65506943cc24bca4)
REM
REM compiler GCC version 9.2.1 20190827 (Red Hat 9.2.1-1)
REM options -cpp -mtune=generic -march=x86-64 -g -O0 -fpre-include=/usr/include/finclude/math-vector-fortran.h
REM seed -800921207 -1293892570 1522236818 -2094393790 -551466986 -75915652 -1034787900 1927256824 722179027 146966171 -1952871619 -1958907304 1402247471 -1095180286 408653162 -2113344842 -2005804067 578026035 -1150998347 311033426 509632670 -1609102306 -362155007 1916677321 1197923797 1302131403 -2121846726 2098520772 -659207886 -441624861 -1151538236 807966739 1769335062
REM
CELL 1.54180   50.00000   50.00000   50.00000   90.00000   90.00000   90.00000
LATT -1
SFAC C  
C      1  0.5456710000000  0.4409280000000  0.5353940000000 1.0
C      1  0.5394080000000  0.4421450000000  0.4575380000000 1.0
C      1  0.4611110000000  0.4410700000000  0.4635340000000 1.0
C      1  0.4455070000000  0.4406740000000  0.5407940000000 1.0
C      1  0.5407180000000  0.5568790000000  0.4623460000000 1.0
C      1  0.5485520000000  0.5599420000000  0.5393020000000 1.0
C      1  0.4554850000000  0.5587780000000  0.5557750000000 1.0
C      1  0.4583020000000  0.5571160000000  0.4530120000000 1.0
C      1  0.5433440000000  0.4588820000000  0.4326380000000 1.0
C      1  0.4338060000000  0.4519120000000  0.4565040000000 1.0
C      1  0.4501120000000  0.4568200000000  0.5644570000000 1.0
C      1  0.5705280000000  0.4561030000000  0.5389150000000 1.0
C      1  0.5448580000000  0.5441030000000  0.5634600000000 1.0
C      1  0.4306030000000  0.5481810000000  0.5486800000000 1.0
C      1  0.4542730000000  0.5400720000000  0.4296390000000 1.0
C      1  0.5676700000000  0.5458070000000  0.4556980000000 1.0
C      1  0.4665260000000  0.4487680000000  0.5852950000000 1.0
C      1  0.5936090000000  0.4462040000000  0.5269930000000 1.0
C      1  0.5298320000000  0.4501700000000  0.4098100000000 1.0
C      1  0.4119960000000  0.4447200000000  0.4723870000000 1.0
C      1  0.4688170000000  0.5465330000000  0.4068310000000 1.0
C      1  0.5896480000000  0.5542660000000  0.4706830000000 1.0
C      1  0.5281690000000  0.5522130000000  0.5842590000000 1.0
C      1  0.4127190000000  0.5591630000000  0.5304220000000 1.0
C      1  0.4874420000000  0.4740750000000  0.4333630000000 1.0
C      1  0.4291480000000  0.4754250000000  0.5099060000000 1.0
C      1  0.5133520000000  0.4699630000000  0.5693410000000 1.0
C      1  0.5703310000000  0.4733330000000  0.4857870000000 1.0
C      1  0.4849250000000  0.5227710000000  0.5713860000000 1.0
C      1  0.4323860000000  0.5254520000000  0.4845850000000 1.0
C      1  0.5132510000000  0.5243920000000  0.4330040000000 1.0
C      1  0.5718100000000  0.5273920000000  0.5089470000000 1.0
C      1  0.4863440000000  0.4463770000000  0.4478950000000 1.0
C      1  0.4415970000000  0.4465190000000  0.5120050000000 1.0
C      1  0.5203200000000  0.4486920000000  0.5481980000000 1.0
C      1  0.5531790000000  0.4472690000000  0.4835250000000 1.0
C      1  0.4818310000000  0.5491560000000  0.5562420000000 1.0
C      1  0.4469650000000  0.5519950000000  0.4793640000000 1.0
C      1  0.5152480000000  0.5508780000000  0.4485320000000 1.0
C      1  0.5567330000000  0.5549680000000  0.5116740000000 1.0
C      1  0.5384720000000  0.4314880000000  0.5068490000000 1.0
C      1  0.5102770000000  0.4390110000000  0.4669030000000 1.0
C      1  0.4679530000000  0.4399880000000  0.4934880000000 1.0
C      1  0.4983190000000  0.4402070000000  0.5312370000000 1.0
C      1  0.5331130000000  0.5605480000000  0.4910940000000 1.0
C      1  0.4950720000000  0.5505350000000  0.5292950000000 1.0
C      1  0.4629870000000  0.5621280000000  0.5011670000000 1.0
C      1  0.4922910000000  0.5567010000000  0.4683000000000 1.0
C      1  0.6018960000000  0.5289040000000  0.5051570000000 1.0
C      1  0.5076790000000  0.5253620000000  0.4030810000000 1.0
C      1  0.4034410000000  0.5296730000000  0.4925300000000 1.0
C      1  0.4889280000000  0.5247450000000  0.6017520000000 1.0
C      1  0.6003650000000  0.4696770000000  0.4899850000000 1.0
C      1  0.5152480000000  0.4607310000000  0.5990050000000 1.0
C      1  0.3995440000000  0.4748050000000  0.5029170000000 1.0
C      1  0.4925760000000  0.4733040000000  0.4033760000000 1.0
C      1  0.4239190000000  0.5227630000000  0.5607840000000 1.0
C      1  0.5609900000000  0.5202590000000  0.5683580000000 1.0
C      1  0.5725040000000  0.5252160000000  0.4360900000000 1.0
C      1  0.4377430000000  0.5154070000000  0.4295680000000 1.0
C      1  0.4284110000000  0.4725280000000  0.4370680000000 1.0
C      1  0.5620000000000  0.4820990000000  0.4294030000000 1.0
C      1  0.5726150000000  0.4792250000000  0.5570920000000 1.0
C      1  0.4348320000000  0.4807850000000  0.5684290000000 1.0
C      1  0.5359260000000  0.5085790000000  0.4834940000000 1.0
C      1  0.4813300000000  0.5094840000000  0.4675160000000 1.0
C      1  0.4632720000000  0.5114160000000  0.5220150000000 1.0
C      1  0.5263740000000  0.5095400000000  0.5433240000000 1.0
C      1  0.5437640000000  0.4879680000000  0.5253460000000 1.0
C      1  0.4838290000000  0.4910980000000  0.5325570000000 1.0
C      1  0.4650560000000  0.4895630000000  0.4805230000000 1.0
C      1  0.5212290000000  0.4894710000000  0.4662800000000 1.0
C      1  0.6008090000000  0.4726860000000  0.4615090000000 1.0
C      1  0.4641840000000  0.4779670000000  0.4022680000000 1.0
C      1  0.3971330000000  0.4808050000000  0.5313220000000 1.0
C      1  0.5374710000000  0.4800980000000  0.5981990000000 1.0
C      1  0.6012240000000  0.5239930000000  0.5339900000000 1.0
C      1  0.4596950000000  0.5202920000000  0.6009260000000 1.0
C      1  0.3996190000000  0.5245630000000  0.4639900000000 1.0
C      1  0.5360520000000  0.5201180000000  0.4016100000000 1.0
C      1  0.5826970000000  0.4901620000000  0.4485320000000 1.0
C      1  0.4480550000000  0.4885450000000  0.4236260000000 1.0
C      1  0.4174820000000  0.4941180000000  0.5471570000000 1.0
C      1  0.5509060000000  0.4915750000000  0.5753820000000 1.0
C      1  0.5799420000000  0.5090960000000  0.5472200000000 1.0
C      1  0.4444620000000  0.5085080000000  0.5789540000000 1.0
C      1  0.4170270000000  0.5075130000000  0.4488570000000 1.0
C      1  0.5522950000000  0.5094260000000  0.4229730000000 1.0
C      1  0.4813190000000  0.4681580000000  0.4921790000000 1.0
C      1  0.4771480000000  0.4606740000000  0.5301940000000 1.0
C      1  0.5232600000000  0.4676740000000  0.5086030000000 1.0
C      1  0.5100030000000  0.4664480000000  0.4810650000000 1.0
C      1  0.4758610000000  0.5369770000000  0.5103380000000 1.0
C      1  0.4918810000000  0.5309160000000  0.4851690000000 1.0
C      1  0.5211120000000  0.5319000000000  0.4945880000000 1.0
C      1  0.5211760000000  0.5352810000000  0.5270880000000 1.0
C      1  0.5082010000000  0.5450050000000  0.6008300000000 1.0
C      1  0.6085130000000  0.5511340000000  0.4897860000000 1.0
C      1  0.4920340000000  0.5461390000000  0.3933100000000 1.0
C      1  0.3992050000000  0.5520810000000  0.5083390000000 1.0
C      1  0.5079780000000  0.4520190000000  0.3941940000000 1.0
C      1  0.6086970000000  0.4477250000000  0.5048080000000 1.0
C      1  0.4878090000000  0.4549740000000  0.6004000000000 1.0
C      1  0.3922710000000  0.4515430000000  0.4895110000000 1.0
C      1  0.5003400000000  0.4981830000000  0.5582600000000 1.0
C      1  0.5577260000000  0.4993330000000  0.5008690000000 1.0
C      1  0.5007320000000  0.4995340000000  0.4482800000000 1.0
C      1  0.4462890000000  0.5008500000000  0.4999010000000 1.0
C      1  0.5046240000000  0.4284540000000  0.5035720000000 1.0
C      1  0.4989780000000  0.5729900000000  0.4973730000000 1.0
C      1  0.5073360000000  0.4951760000000  0.5147690000000 1.0
END
