TITL C-3578198-8939-654 -7.07315353120266e-06 125000 -853.312659001248 0 0 136 (C1) n - 1
REM
REM in /home/bkarasulu/work/CARBON/AIRSS/Generating-Clusters/EDIP-Nigel-Params/with-SteepDescent/Higher-Symm/SD-CG/HFTN-CG
REM
REM
REM
REM
REM
REM ./C.cell (12c818d87b63d06a65506943cc24bca4)
REM
REM compiler GCC version 9.2.1 20190827 (Red Hat 9.2.1-1)
REM options -cpp -mtune=generic -march=x86-64 -g -O0 -fpre-include=/usr/include/finclude/math-vector-fortran.h
REM seed -8587044 -1711417893 -818487268 207275831 -612212394 -956965671 -1386904026 -1634029866 -1039998726 -476275563 1296661994 573842299 -1720016441 -578877628 -4283080 -1969182432 1346285855 -1273700562 303524921 -1805904805 -1649026255 546124868 -986147227 851427513 367630990 1058352231 -951807254 -1402304635 1713423256 224156132 -919532961 1627116949 184247957
REM
CELL 1.54180   50.00000   50.00000   50.00000   90.00000   90.00000   90.00000
LATT -1
SFAC C  
C      1  0.4972150000000  0.5840840000000  0.4675880000000 1.0
C      1  0.5458370000000  0.5867420000000  0.5007680000000 1.0
C      1  0.5234670000000  0.5861360000000  0.5317330000000 1.0
C      1  0.4688630000000  0.5844820000000  0.5214380000000 1.0
C      1  0.4535220000000  0.5895980000000  0.4768230000000 1.0
C      1  0.5141780000000  0.4821820000000  0.5198840000000 1.0
C      1  0.4862690000000  0.4799910000000  0.5181400000000 1.0
C      1  0.4789980000000  0.4774290000000  0.4914250000000 1.0
C      1  0.5022530000000  0.4733980000000  0.4765620000000 1.0
C      1  0.5239180000000  0.4763220000000  0.4943970000000 1.0
C      1  0.4215250000000  0.4707810000000  0.5455230000000 1.0
C      1  0.4346440000000  0.4595630000000  0.4360450000000 1.0
C      1  0.5425700000000  0.4636040000000  0.4148890000000 1.0
C      1  0.5932620000000  0.4637680000000  0.5049850000000 1.0
C      1  0.5170660000000  0.4649160000000  0.5898270000000 1.0
C      1  0.4085030000000  0.4840520000000  0.5026330000000 1.0
C      1  0.4682090000000  0.4840980000000  0.4138130000000 1.0
C      1  0.5647010000000  0.4977810000000  0.4414270000000 1.0
C      1  0.5806400000000  0.4774510000000  0.5481140000000 1.0
C      1  0.4849550000000  0.5006870000000  0.5841600000000 1.0
C      1  0.4130220000000  0.4616470000000  0.4553750000000 1.0
C      1  0.5152920000000  0.4641970000000  0.4038710000000 1.0
C      1  0.6009070000000  0.4662730000000  0.4763640000000 1.0
C      1  0.5447750000000  0.4601310000000  0.5828130000000 1.0
C      1  0.4322670000000  0.4781550000000  0.5722800000000 1.0
C      1  0.4125110000000  0.5657770000000  0.4776020000000 1.0
C      1  0.4964260000000  0.5670990000000  0.4221610000000 1.0
C      1  0.5683020000000  0.5549760000000  0.4737610000000 1.0
C      1  0.5484780000000  0.5844800000000  0.5720390000000 1.0
C      1  0.4568530000000  0.5620380000000  0.5617260000000 1.0
C      1  0.4554110000000  0.5685270000000  0.4551560000000 1.0
C      1  0.5215330000000  0.5650180000000  0.4636800000000 1.0
C      1  0.5646790000000  0.5710560000000  0.5184880000000 1.0
C      1  0.5065000000000  0.5708660000000  0.5536560000000 1.0
C      1  0.4416810000000  0.5729580000000  0.5180930000000 1.0
C      1  0.5071460000000  0.4789730000000  0.4487900000000 1.0
C      1  0.5517540000000  0.4790070000000  0.4876580000000 1.0
C      1  0.5294700000000  0.4784380000000  0.5436860000000 1.0
C      1  0.4662030000000  0.4850900000000  0.5374270000000 1.0
C      1  0.4538250000000  0.4785490000000  0.4783340000000 1.0
C      1  0.5319870000000  0.4341580000000  0.4561010000000 1.0
C      1  0.5617660000000  0.4286810000000  0.4952220000000 1.0
C      1  0.4925770000000  0.4339940000000  0.5616730000000 1.0
C      1  0.4545300000000  0.4344800000000  0.5329700000000 1.0
C      1  0.4650740000000  0.4333660000000  0.4652150000000 1.0
C      1  0.5919850000000  0.5054840000000  0.4484060000000 1.0
C      1  0.5738690000000  0.4958340000000  0.5692000000000 1.0
C      1  0.4610910000000  0.5143650000000  0.5924920000000 1.0
C      1  0.4080380000000  0.5048780000000  0.4827480000000 1.0
C      1  0.4843160000000  0.5054310000000  0.4043080000000 1.0
C      1  0.4390560000000  0.4848510000000  0.4208520000000 1.0
C      1  0.5566950000000  0.4907840000000  0.4127810000000 1.0
C      1  0.5959120000000  0.4880640000000  0.5231760000000 1.0
C      1  0.5097840000000  0.4923550000000  0.5993410000000 1.0
C      1  0.4095470000000  0.4935050000000  0.5303180000000 1.0
C      1  0.5582600000000  0.5230640000000  0.5379100000000 1.0
C      1  0.4682050000000  0.5334800000000  0.5601050000000 1.0
C      1  0.4267670000000  0.5281370000000  0.4933700000000 1.0
C      1  0.4844510000000  0.5272870000000  0.4356340000000 1.0
C      1  0.5508540000000  0.5299670000000  0.4754850000000 1.0
C      1  0.5313030000000  0.5426150000000  0.5876460000000 1.0
C      1  0.4160730000000  0.5389660000000  0.5480080000000 1.0
C      1  0.4221220000000  0.5363570000000  0.4356750000000 1.0
C      1  0.5366100000000  0.5387700000000  0.4167170000000 1.0
C      1  0.6036520000000  0.5362440000000  0.5039800000000 1.0
C      1  0.5253890000000  0.5698190000000  0.5785360000000 1.0
C      1  0.4311930000000  0.5647750000000  0.5463270000000 1.0
C      1  0.4287930000000  0.5541540000000  0.4574980000000 1.0
C      1  0.5188240000000  0.5549910000000  0.4339390000000 1.0
C      1  0.5852560000000  0.5583010000000  0.4977960000000 1.0
C      1  0.4491280000000  0.5481620000000  0.5047040000000 1.0
C      1  0.4760490000000  0.5458600000000  0.4608290000000 1.0
C      1  0.5234250000000  0.5400760000000  0.4831270000000 1.0
C      1  0.5463310000000  0.5484960000000  0.5286700000000 1.0
C      1  0.4984400000000  0.5398230000000  0.5521480000000 1.0
C      1  0.5106190000000  0.4940200000000  0.4053830000000 1.0
C      1  0.6059960000000  0.4952340000000  0.4710380000000 1.0
C      1  0.5567340000000  0.4859930000000  0.5900320000000 1.0
C      1  0.4372120000000  0.5073040000000  0.5775900000000 1.0
C      1  0.4127720000000  0.4921600000000  0.4568880000000 1.0
C      1  0.4825090000000  0.4669890000000  0.4338960000000 1.0
C      1  0.5575710000000  0.4738610000000  0.4581610000000 1.0
C      1  0.5563940000000  0.4625410000000  0.5370440000000 1.0
C      1  0.4784980000000  0.4785410000000  0.5656490000000 1.0
C      1  0.4323130000000  0.4664890000000  0.4976330000000 1.0
C      1  0.4279950000000  0.5850050000000  0.4926600000000 1.0
C      1  0.4831660000000  0.5840530000000  0.4405670000000 1.0
C      1  0.5479950000000  0.5773360000000  0.4729220000000 1.0
C      1  0.5498080000000  0.5898910000000  0.5444850000000 1.0
C      1  0.4774760000000  0.5809620000000  0.5502670000000 1.0
C      1  0.4727790000000  0.5304900000000  0.5117150000000 1.0
C      1  0.4769340000000  0.5226410000000  0.4815210000000 1.0
C      1  0.5059210000000  0.5174080000000  0.4762060000000 1.0
C      1  0.5211200000000  0.5467390000000  0.5119550000000 1.0
C      1  0.4997230000000  0.5335950000000  0.5244580000000 1.0
C      1  0.5439900000000  0.5185980000000  0.4481400000000 1.0
C      1  0.5759720000000  0.5122360000000  0.5163470000000 1.0
C      1  0.5186400000000  0.5236270000000  0.5692450000000 1.0
C      1  0.4262150000000  0.5187430000000  0.5280880000000 1.0
C      1  0.4527410000000  0.5140360000000  0.4418830000000 1.0
C      1  0.4970020000000  0.4030170000000  0.4659210000000 1.0
C      1  0.5165310000000  0.3927970000000  0.4890590000000 1.0
C      1  0.5004040000000  0.3793570000000  0.5082640000000 1.0
C      1  0.4758540000000  0.3929570000000  0.5076070000000 1.0
C      1  0.4682010000000  0.3963320000000  0.4793110000000 1.0
C      1  0.5338550000000  0.4623310000000  0.4442590000000 1.0
C      1  0.5648500000000  0.4571310000000  0.5061050000000 1.0
C      1  0.5039340000000  0.4619270000000  0.5639290000000 1.0
C      1  0.4443310000000  0.4626930000000  0.5276180000000 1.0
C      1  0.4591570000000  0.4598830000000  0.4532970000000 1.0
C      1  0.5109680000000  0.5097550000000  0.4481290000000 1.0
C      1  0.5595630000000  0.5070580000000  0.4930680000000 1.0
C      1  0.5399450000000  0.5058020000000  0.5550350000000 1.0
C      1  0.4570560000000  0.5152170000000  0.5350450000000 1.0
C      1  0.4509190000000  0.5083320000000  0.4723700000000 1.0
C      1  0.4174290000000  0.5268640000000  0.5734060000000 1.0
C      1  0.4118420000000  0.5094680000000  0.4332670000000 1.0
C      1  0.5349760000000  0.5105360000000  0.4054480000000 1.0
C      1  0.6133160000000  0.5098770000000  0.4957430000000 1.0
C      1  0.5363460000000  0.5061460000000  0.5994510000000 1.0
C      1  0.5100010000000  0.4212610000000  0.4390490000000 1.0
C      1  0.5636500000000  0.4290260000000  0.4657430000000 1.0
C      1  0.5295340000000  0.4238850000000  0.5325910000000 1.0
C      1  0.4623960000000  0.4351680000000  0.5620870000000 1.0
C      1  0.4399530000000  0.4219610000000  0.4748100000000 1.0
C      1  0.5187790000000  0.4340150000000  0.4846090000000 1.0
C      1  0.5357520000000  0.4166600000000  0.5038360000000 1.0
C      1  0.5011770000000  0.4221410000000  0.5373550000000 1.0
C      1  0.4785580000000  0.4212320000000  0.5172140000000 1.0
C      1  0.4865810000000  0.4342030000000  0.4890430000000 1.0
C      1  0.4570660000000  0.4614770000000  0.5773020000000 1.0
C      1  0.4208440000000  0.4439500000000  0.4804450000000 1.0
C      1  0.4965650000000  0.4427400000000  0.4202920000000 1.0
C      1  0.5796250000000  0.4537010000000  0.4575120000000 1.0
C      1  0.5475370000000  0.4385920000000  0.5518870000000 1.0
C      1  0.4788580000000  0.5888070000000  0.4924400000000 1.0
END
