TITL C-3577084-3642-397 -2.18543479969404e-06 125000 -865.421433492042 0 0 138 (Cs) n - 1
REM
REM in /home/bkarasulu/work/CARBON/AIRSS/Generating-Clusters/EDIP-Nigel-Params/with-SteepDescent/Higher-Symm/SD-CG/HFTN-CG
REM
REM
REM
REM
REM
REM ./C.cell (12c818d87b63d06a65506943cc24bca4)
REM
REM compiler GCC version 9.2.1 20190827 (Red Hat 9.2.1-1)
REM options -cpp -mtune=generic -march=x86-64 -g -O0 -fpre-include=/usr/include/finclude/math-vector-fortran.h
REM seed -1303688465 203318302 -235525775 -75723766 -743708106 -1860411946 -310194099 -1308222468 -1847115193 -1185645136 933529272 -1258575602 781837143 -465976918 551380589 -216533206 -21326896 1689704479 -293605980 -2061306603 -248392458 -155968513 -1044711118 -1237812516 1791659070 1476841830 1416964016 -1328979815 815173429 -609004447 -1409314857 -1769426778 1618332406
REM
CELL 1.54180   50.00000   50.00000   50.00000   90.00000   90.00000   90.00000
LATT -1
SFAC C  
C      1  0.4746830000000  0.4564020000000  0.4734580000000 1.0
C      1  0.4576690000000  0.5249370000000  0.4737700000000 1.0
C      1  0.5255440000000  0.5435890000000  0.4737000000000 1.0
C      1  0.5424330000000  0.4757100000000  0.4741200000000 1.0
C      1  0.4746810000000  0.4564030000000  0.5262540000000 1.0
C      1  0.4576670000000  0.5249380000000  0.5259400000000 1.0
C      1  0.5255430000000  0.5435890000000  0.5260140000000 1.0
C      1  0.5424320000000  0.4757110000000  0.5255950000000 1.0
C      1  0.5493300000000  0.5244800000000  0.5927440000000 1.0
C      1  0.5240910000000  0.4504950000000  0.5930080000000 1.0
C      1  0.4502340000000  0.4756650000000  0.5928790000000 1.0
C      1  0.4757090000000  0.5494560000000  0.5928710000000 1.0
C      1  0.5493360000000  0.5244790000000  0.4069720000000 1.0
C      1  0.5240960000000  0.4504930000000  0.4067070000000 1.0
C      1  0.4502390000000  0.4756630000000  0.4068310000000 1.0
C      1  0.4757140000000  0.5494550000000  0.4068400000000 1.0
C      1  0.5532710000000  0.4350210000000  0.5568190000000 1.0
C      1  0.4343610000000  0.4462460000000  0.5570230000000 1.0
C      1  0.4466080000000  0.5653010000000  0.5568810000000 1.0
C      1  0.5654570000000  0.5541250000000  0.5572150000000 1.0
C      1  0.5532750000000  0.4350200000000  0.4428980000000 1.0
C      1  0.4343640000000  0.4462450000000  0.4426870000000 1.0
C      1  0.4466110000000  0.5653000000000  0.4428280000000 1.0
C      1  0.5654600000000  0.5541240000000  0.4425000000000 1.0
C      1  0.4542380000000  0.4292560000000  0.4298220000000 1.0
C      1  0.4294920000000  0.5455280000000  0.4300470000000 1.0
C      1  0.5455240000000  0.5710740000000  0.4296860000000 1.0
C      1  0.5703140000000  0.4548000000000  0.4300740000000 1.0
C      1  0.4542340000000  0.4292570000000  0.5698890000000 1.0
C      1  0.4294880000000  0.5455300000000  0.5696610000000 1.0
C      1  0.5455200000000  0.5710750000000  0.5700280000000 1.0
C      1  0.5703100000000  0.4548010000000  0.5696440000000 1.0
C      1  0.4209890000000  0.4944260000000  0.5572780000000 1.0
C      1  0.4947170000000  0.5784360000000  0.5573620000000 1.0
C      1  0.5782640000000  0.5058310000000  0.5571560000000 1.0
C      1  0.5053500000000  0.4209410000000  0.5575240000000 1.0
C      1  0.4209920000000  0.4944250000000  0.4424300000000 1.0
C      1  0.4947200000000  0.5784350000000  0.4423490000000 1.0
C      1  0.5782670000000  0.5058300000000  0.4425610000000 1.0
C      1  0.5053540000000  0.4209400000000  0.4421900000000 1.0
C      1  0.5917130000000  0.4637290000000  0.4458380000000 1.0
C      1  0.4631790000000  0.4077010000000  0.4454080000000 1.0
C      1  0.4081230000000  0.5367010000000  0.4459010000000 1.0
C      1  0.5366240000000  0.5925190000000  0.4454350000000 1.0
C      1  0.5917100000000  0.4637300000000  0.5538800000000 1.0
C      1  0.4631760000000  0.4077020000000  0.5543050000000 1.0
C      1  0.4081200000000  0.5367020000000  0.5538060000000 1.0
C      1  0.5366210000000  0.5925200000000  0.5542780000000 1.0
C      1  0.4104450000000  0.5259870000000  0.5277150000000 1.0
C      1  0.5260210000000  0.5905730000000  0.5280840000000 1.0
C      1  0.5895960000000  0.4744270000000  0.5277690000000 1.0
C      1  0.4738550000000  0.4095230000000  0.5281380000000 1.0
C      1  0.4104460000000  0.5259870000000  0.4719920000000 1.0
C      1  0.5260220000000  0.5905730000000  0.4716280000000 1.0
C      1  0.5895980000000  0.4744260000000  0.4719490000000 1.0
C      1  0.4738570000000  0.4095220000000  0.4715750000000 1.0
C      1  0.4850510000000  0.5279810000000  0.4830480000000 1.0
C      1  0.5308880000000  0.5172500000000  0.4837130000000 1.0
C      1  0.5157010000000  0.4705680000000  0.4834000000000 1.0
C      1  0.4697890000000  0.4831260000000  0.4828140000000 1.0
C      1  0.4850500000000  0.5279810000000  0.5166630000000 1.0
C      1  0.5308870000000  0.5172500000000  0.5160010000000 1.0
C      1  0.5157000000000  0.4705680000000  0.5163140000000 1.0
C      1  0.4697880000000  0.4831260000000  0.5168970000000 1.0
C      1  0.4526750000000  0.5299410000000  0.4054900000000 1.0
C      1  0.5298610000000  0.5474820000000  0.4054940000000 1.0
C      1  0.5470060000000  0.4702020000000  0.4055770000000 1.0
C      1  0.4697880000000  0.4526470000000  0.4054740000000 1.0
C      1  0.4526690000000  0.5299430000000  0.5942200000000 1.0
C      1  0.5298550000000  0.5474840000000  0.5942190000000 1.0
C      1  0.5470000000000  0.4702040000000  0.5941400000000 1.0
C      1  0.4697830000000  0.4526490000000  0.5942380000000 1.0
C      1  0.5281880000000  0.4228550000000  0.4854470000000 1.0
C      1  0.4223330000000  0.4710600000000  0.4854490000000 1.0
C      1  0.4714900000000  0.5776220000000  0.4854500000000 1.0
C      1  0.5784360000000  0.5298610000000  0.4854050000000 1.0
C      1  0.5281870000000  0.4228550000000  0.5142690000000 1.0
C      1  0.4223330000000  0.4710600000000  0.5142600000000 1.0
C      1  0.4714890000000  0.5776220000000  0.5142600000000 1.0
C      1  0.5784350000000  0.5298610000000  0.5143120000000 1.0
C      1  0.5002050000000  0.4551220000000  0.4595820000000 1.0
C      1  0.4553430000000  0.4996570000000  0.4594990000000 1.0
C      1  0.4999580000000  0.5442780000000  0.4598030000000 1.0
C      1  0.5440420000000  0.5007710000000  0.4598690000000 1.0
C      1  0.5002030000000  0.4551230000000  0.5401310000000 1.0
C      1  0.4553400000000  0.4996580000000  0.5402110000000 1.0
C      1  0.4999560000000  0.5442790000000  0.5399090000000 1.0
C      1  0.5440390000000  0.5007710000000  0.5398460000000 1.0
C      1  0.4348960000000  0.4726170000000  0.5683320000000 1.0
C      1  0.4729090000000  0.5644840000000  0.5681780000000 1.0
C      1  0.5644190000000  0.5276160000000  0.5681350000000 1.0
C      1  0.5271200000000  0.4349820000000  0.5685400000000 1.0
C      1  0.4349000000000  0.4726150000000  0.4313780000000 1.0
C      1  0.4729130000000  0.5644830000000  0.4315320000000 1.0
C      1  0.5644230000000  0.5276150000000  0.4315810000000 1.0
C      1  0.5271240000000  0.4349810000000  0.4311760000000 1.0
C      1  0.4457960000000  0.5676530000000  0.5270920000000 1.0
C      1  0.5682500000000  0.5554850000000  0.5274150000000 1.0
C      1  0.5538650000000  0.4328700000000  0.5270830000000 1.0
C      1  0.4318340000000  0.4452150000000  0.5272350000000 1.0
C      1  0.4457970000000  0.5676520000000  0.4726170000000 1.0
C      1  0.5682510000000  0.5554840000000  0.4723000000000 1.0
C      1  0.5538670000000  0.4328690000000  0.4726340000000 1.0
C      1  0.4318360000000  0.4452150000000  0.4724750000000 1.0
C      1  0.5408600000000  0.5665770000000  0.5155340000000 1.0
C      1  0.5651630000000  0.4599640000000  0.5154790000000 1.0
C      1  0.4592210000000  0.4337330000000  0.5155910000000 1.0
C      1  0.4349810000000  0.5404300000000  0.5154680000000 1.0
C      1  0.5408610000000  0.5665770000000  0.4841800000000 1.0
C      1  0.5651640000000  0.4599640000000  0.4842380000000 1.0
C      1  0.4592220000000  0.4337330000000  0.4841200000000 1.0
C      1  0.4349820000000  0.5404290000000  0.4842400000000 1.0
C      1  0.4954500000000  0.5867740000000  0.5303370000000 1.0
C      1  0.5864760000000  0.5051510000000  0.5300880000000 1.0
C      1  0.5046070000000  0.4126890000000  0.5303860000000 1.0
C      1  0.4129930000000  0.4951770000000  0.5300840000000 1.0
C      1  0.4954510000000  0.5867740000000  0.4693740000000 1.0
C      1  0.5864780000000  0.5051500000000  0.4696300000000 1.0
C      1  0.5046090000000  0.4126890000000  0.4693290000000 1.0
C      1  0.4129950000000  0.4951760000000  0.4696240000000 1.0
C      1  0.4643110000000  0.5024280000000  0.5908490000000 1.0
C      1  0.5024990000000  0.5355380000000  0.5908650000000 1.0
C      1  0.5352970000000  0.4976970000000  0.5905950000000 1.0
C      1  0.4972750000000  0.4644060000000  0.5908410000000 1.0
C      1  0.4643160000000  0.5024260000000  0.4088620000000 1.0
C      1  0.5025040000000  0.5355370000000  0.4088470000000 1.0
C      1  0.5353020000000  0.4976950000000  0.4091200000000 1.0
C      1  0.4972800000000  0.4644040000000  0.4088730000000 1.0
C      1  0.5007240000000  0.5229540000000  0.4362080000000 1.0
C      1  0.5226100000000  0.4994510000000  0.4364360000000 1.0
C      1  0.4991440000000  0.4768430000000  0.4362850000000 1.0
C      1  0.4768820000000  0.5006370000000  0.4362010000000 1.0
C      1  0.5007210000000  0.5229550000000  0.5635040000000 1.0
C      1  0.5226060000000  0.4994520000000  0.5632790000000 1.0
C      1  0.4991410000000  0.4768440000000  0.5634280000000 1.0
C      1  0.4768780000000  0.5006380000000  0.5635100000000 1.0
C      1  0.4974800000000  0.4977720000000  0.4778050000000 1.0
C      1  0.4974790000000  0.4977730000000  0.5219080000000 1.0
END
