TITL C-3578207-9274-203 -6.14455103800826e-07 125000 -1184.59399512981 0 0 188 (C1) n - 1
REM
REM in /home/bkarasulu/work/CARBON/AIRSS/Generating-Clusters/EDIP-Nigel-Params/with-SteepDescent/Higher-Symm/SD-CG/HFTN-CG
REM
REM
REM
REM
REM
REM ./C.cell (12c818d87b63d06a65506943cc24bca4)
REM
REM compiler GCC version 9.2.1 20190827 (Red Hat 9.2.1-1)
REM options -cpp -mtune=generic -march=x86-64 -g -O0 -fpre-include=/usr/include/finclude/math-vector-fortran.h
REM seed -321617936 307552775 -1388303148 -1358918873 735051121 2086118954 1214648770 -1012146510 -1713251397 -616179998 -1253168551 -1129317386 2081081654 -2100204661 452030986 -1005736995 -618107504 1039841011 -372185178 49541644 857412272 1323118866 -675002944 -619742275 1952009229 731003721 -1074398447 -290321346 -1063070812 1094730440 338294653 683109130 182300604
REM
CELL 1.54180   50.00000   50.00000   50.00000   90.00000   90.00000   90.00000
LATT -1
SFAC C  
C      1  0.5476110000000  0.4534260000000  0.4144330000000 1.0
C      1  0.5494410000000  0.4131820000000  0.5470130000000 1.0
C      1  0.5529120000000  0.5467050000000  0.5891800000000 1.0
C      1  0.5501420000000  0.5886250000000  0.4536820000000 1.0
C      1  0.4625180000000  0.4612480000000  0.4131280000000 1.0
C      1  0.4638490000000  0.4147050000000  0.5359690000000 1.0
C      1  0.4675670000000  0.5319120000000  0.5821100000000 1.0
C      1  0.4645600000000  0.5834760000000  0.4628680000000 1.0
C      1  0.5290340000000  0.4051000000000  0.4774300000000 1.0
C      1  0.5353200000000  0.4794640000000  0.5912520000000 1.0
C      1  0.5308550000000  0.5901630000000  0.5238580000000 1.0
C      1  0.5297600000000  0.5285830000000  0.4115320000000 1.0
C      1  0.4718640000000  0.4055450000000  0.4688550000000 1.0
C      1  0.4706510000000  0.4666960000000  0.5908870000000 1.0
C      1  0.4750180000000  0.5918420000000  0.5329090000000 1.0
C      1  0.4722730000000  0.5321540000000  0.4061620000000 1.0
C      1  0.4476240000000  0.6049570000000  0.5371640000000 1.0
C      1  0.4444030000000  0.5344580000000  0.3941960000000 1.0
C      1  0.4435940000000  0.3935880000000  0.4673740000000 1.0
C      1  0.4429250000000  0.4636700000000  0.6028370000000 1.0
C      1  0.5559750000000  0.6032040000000  0.5332190000000 1.0
C      1  0.5552770000000  0.5348220000000  0.3977950000000 1.0
C      1  0.5564570000000  0.4001150000000  0.4711750000000 1.0
C      1  0.5587450000000  0.4693040000000  0.6055840000000 1.0
C      1  0.6136550000000  0.5089090000000  0.5343750000000 1.0
C      1  0.6099860000000  0.5364040000000  0.4923370000000 1.0
C      1  0.6083790000000  0.4946320000000  0.4654070000000 1.0
C      1  0.6111450000000  0.4673240000000  0.5076760000000 1.0
C      1  0.3987980000000  0.5098320000000  0.5323040000000 1.0
C      1  0.4005810000000  0.5349940000000  0.4925480000000 1.0
C      1  0.3998000000000  0.4922410000000  0.4659880000000 1.0
C      1  0.3990980000000  0.4688010000000  0.5037690000000 1.0
C      1  0.5729160000000  0.4520390000000  0.5375650000000 1.0
C      1  0.5729350000000  0.5348530000000  0.5487360000000 1.0
C      1  0.5699430000000  0.5505120000000  0.4662260000000 1.0
C      1  0.5699490000000  0.4666170000000  0.4529770000000 1.0
C      1  0.4269680000000  0.4470920000000  0.5363390000000 1.0
C      1  0.4344460000000  0.5370660000000  0.5532870000000 1.0
C      1  0.4297890000000  0.5556860000000  0.4606850000000 1.0
C      1  0.4323100000000  0.4610610000000  0.4449790000000 1.0
C      1  0.4865790000000  0.5077870000000  0.3931790000000 1.0
C      1  0.4873880000000  0.3938190000000  0.4960840000000 1.0
C      1  0.4924860000000  0.4942220000000  0.6044490000000 1.0
C      1  0.4879900000000  0.6039580000000  0.5058210000000 1.0
C      1  0.5164530000000  0.5053430000000  0.3969990000000 1.0
C      1  0.5171300000000  0.3925950000000  0.5006830000000 1.0
C      1  0.5209970000000  0.5016670000000  0.6051920000000 1.0
C      1  0.5174160000000  0.6059770000000  0.5024530000000 1.0
C      1  0.5793780000000  0.4144420000000  0.5063740000000 1.0
C      1  0.5836750000000  0.5057740000000  0.5887180000000 1.0
C      1  0.5770610000000  0.5884760000000  0.4969030000000 1.0
C      1  0.5727870000000  0.4972710000000  0.4141360000000 1.0
C      1  0.4257930000000  0.4110520000000  0.5043130000000 1.0
C      1  0.4265920000000  0.5024740000000  0.5886790000000 1.0
C      1  0.4304310000000  0.5917510000000  0.4984500000000 1.0
C      1  0.4267410000000  0.4966000000000  0.4095220000000 1.0
C      1  0.5466180000000  0.5707210000000  0.5713140000000 1.0
C      1  0.5440160000000  0.5691590000000  0.4317480000000 1.0
C      1  0.5413410000000  0.4339120000000  0.4367720000000 1.0
C      1  0.5428040000000  0.4331850000000  0.5695040000000 1.0
C      1  0.4444410000000  0.5812440000000  0.5771030000000 1.0
C      1  0.4419760000000  0.5742820000000  0.4211580000000 1.0
C      1  0.4406920000000  0.4129230000000  0.4247050000000 1.0
C      1  0.4379450000000  0.4234820000000  0.5722700000000 1.0
C      1  0.4874770000000  0.5567200000000  0.4999990000000 1.0
C      1  0.4846460000000  0.4988110000000  0.4387760000000 1.0
C      1  0.4847200000000  0.4415090000000  0.4973740000000 1.0
C      1  0.4826460000000  0.4920830000000  0.5533830000000 1.0
C      1  0.5231620000000  0.5622590000000  0.4861720000000 1.0
C      1  0.5179210000000  0.4926960000000  0.4339700000000 1.0
C      1  0.5205780000000  0.4387540000000  0.5101640000000 1.0
C      1  0.5303760000000  0.5151490000000  0.5591520000000 1.0
C      1  0.3882660000000  0.4702750000000  0.4782910000000 1.0
C      1  0.3893490000000  0.4856420000000  0.5232550000000 1.0
C      1  0.3907690000000  0.5321400000000  0.5182050000000 1.0
C      1  0.3914050000000  0.5173180000000  0.4736230000000 1.0
C      1  0.6180610000000  0.4743650000000  0.4817340000000 1.0
C      1  0.6224270000000  0.4836450000000  0.5271430000000 1.0
C      1  0.6205510000000  0.5293720000000  0.5169910000000 1.0
C      1  0.6180380000000  0.5199100000000  0.4715400000000 1.0
C      1  0.4501910000000  0.4784430000000  0.5056370000000 1.0
C      1  0.4497270000000  0.5066480000000  0.5191840000000 1.0
C      1  0.4510670000000  0.5221340000000  0.4906430000000 1.0
C      1  0.4508950000000  0.4925370000000  0.4767970000000 1.0
C      1  0.5212050000000  0.4623600000000  0.5273990000000 1.0
C      1  0.5262400000000  0.5206250000000  0.5126920000000 1.0
C      1  0.5268780000000  0.5155260000000  0.4825400000000 1.0
C      1  0.5261100000000  0.4847730000000  0.4761820000000 1.0
C      1  0.4272800000000  0.5512490000000  0.4123180000000 1.0
C      1  0.4268830000000  0.4102950000000  0.4488190000000 1.0
C      1  0.4245860000000  0.4473830000000  0.5842880000000 1.0
C      1  0.4305240000000  0.5869170000000  0.5536490000000 1.0
C      1  0.5662190000000  0.5536640000000  0.4187490000000 1.0
C      1  0.5657980000000  0.4198450000000  0.4507680000000 1.0
C      1  0.5675300000000  0.4490620000000  0.5844890000000 1.0
C      1  0.5680130000000  0.5829470000000  0.5530510000000 1.0
C      1  0.4759230000000  0.4647190000000  0.5128270000000 1.0
C      1  0.4751020000000  0.5143170000000  0.5341220000000 1.0
C      1  0.4773890000000  0.5348570000000  0.4837550000000 1.0
C      1  0.4754840000000  0.4812340000000  0.4615650000000 1.0
C      1  0.4947560000000  0.4720650000000  0.5336380000000 1.0
C      1  0.4990350000000  0.5188910000000  0.5190630000000 1.0
C      1  0.4991340000000  0.5200200000000  0.4749530000000 1.0
C      1  0.4991790000000  0.4774000000000  0.4773620000000 1.0
C      1  0.5065260000000  0.4095030000000  0.5565820000000 1.0
C      1  0.5090980000000  0.5531960000000  0.5871660000000 1.0
C      1  0.5071040000000  0.5904680000000  0.4433930000000 1.0
C      1  0.5050850000000  0.4414420000000  0.4117690000000 1.0
C      1  0.4781860000000  0.4018600000000  0.5586010000000 1.0
C      1  0.4811290000000  0.5550140000000  0.5942470000000 1.0
C      1  0.4786160000000  0.5971290000000  0.4402880000000 1.0
C      1  0.4770280000000  0.4369740000000  0.4038340000000 1.0
C      1  0.4230860000000  0.5621980000000  0.5386450000000 1.0
C      1  0.4188400000000  0.5372510000000  0.4377350000000 1.0
C      1  0.4196400000000  0.4368180000000  0.4609100000000 1.0
C      1  0.4148260000000  0.4632040000000  0.5602510000000 1.0
C      1  0.5823630000000  0.5612710000000  0.5378310000000 1.0
C      1  0.5809680000000  0.5388430000000  0.4402800000000 1.0
C      1  0.5833560000000  0.4410480000000  0.4635300000000 1.0
C      1  0.5852740000000  0.4622250000000  0.5635180000000 1.0
C      1  0.5422020000000  0.4390610000000  0.4866890000000 1.0
C      1  0.5452900000000  0.4886930000000  0.5640320000000 1.0
C      1  0.5391630000000  0.5626780000000  0.5132720000000 1.0
C      1  0.5376570000000  0.5176850000000  0.4392140000000 1.0
C      1  0.4637560000000  0.4347470000000  0.4758500000000 1.0
C      1  0.4600360000000  0.4741270000000  0.5626800000000 1.0
C      1  0.4670600000000  0.5631420000000  0.5231580000000 1.0
C      1  0.4642170000000  0.5234070000000  0.4347630000000 1.0
C      1  0.5756880000000  0.4916440000000  0.6117070000000 1.0
C      1  0.5719450000000  0.6122390000000  0.5110190000000 1.0
C      1  0.5703580000000  0.5116130000000  0.3901830000000 1.0
C      1  0.5728200000000  0.3909440000000  0.4926950000000 1.0
C      1  0.4321370000000  0.4881180000000  0.6120080000000 1.0
C      1  0.4346430000000  0.6144820000000  0.5140490000000 1.0
C      1  0.4326100000000  0.5101080000000  0.3856960000000 1.0
C      1  0.4312910000000  0.3869380000000  0.4919430000000 1.0
C      1  0.4839230000000  0.5822250000000  0.4859390000000 1.0
C      1  0.4803500000000  0.4852650000000  0.4123470000000 1.0
C      1  0.4825820000000  0.4169080000000  0.5133860000000 1.0
C      1  0.4849140000000  0.5072340000000  0.5800980000000 1.0
C      1  0.5247810000000  0.5905270000000  0.4714540000000 1.0
C      1  0.5217050000000  0.4693570000000  0.4095280000000 1.0
C      1  0.5241850000000  0.4112090000000  0.5274680000000 1.0
C      1  0.5275200000000  0.5279280000000  0.5866560000000 1.0
C      1  0.4265990000000  0.4586690000000  0.5078210000000 1.0
C      1  0.4271560000000  0.5099120000000  0.5405800000000 1.0
C      1  0.4286000000000  0.5436620000000  0.4890630000000 1.0
C      1  0.4278280000000  0.4894990000000  0.4569180000000 1.0
C      1  0.5829380000000  0.4616320000000  0.5106590000000 1.0
C      1  0.5858850000000  0.5088810000000  0.5410670000000 1.0
C      1  0.5816070000000  0.5414120000000  0.4922070000000 1.0
C      1  0.5798690000000  0.4935010000000  0.4611370000000 1.0
C      1  0.5741830000000  0.5810980000000  0.4678650000000 1.0
C      1  0.5706260000000  0.4686800000000  0.4223590000000 1.0
C      1  0.5742090000000  0.4215890000000  0.5350160000000 1.0
C      1  0.5772350000000  0.5341790000000  0.5796350000000 1.0
C      1  0.4372400000000  0.5926700000000  0.4705340000000 1.0
C      1  0.4316850000000  0.4672040000000  0.4130830000000 1.0
C      1  0.4254400000000  0.4163260000000  0.5340030000000 1.0
C      1  0.4360660000000  0.5301510000000  0.5849600000000 1.0
C      1  0.4340310000000  0.5110560000000  0.4347820000000 1.0
C      1  0.4331560000000  0.4351580000000  0.4882190000000 1.0
C      1  0.4315440000000  0.4882740000000  0.5629730000000 1.0
C      1  0.4365140000000  0.5652760000000  0.5112970000000 1.0
C      1  0.5686560000000  0.5116030000000  0.4393250000000 1.0
C      1  0.5731020000000  0.4395250000000  0.4923100000000 1.0
C      1  0.5765410000000  0.4912950000000  0.5640010000000 1.0
C      1  0.5707340000000  0.5629990000000  0.5104550000000 1.0
C      1  0.5165040000000  0.5736760000000  0.5675460000000 1.0
C      1  0.5143070000000  0.5678990000000  0.4249640000000 1.0
C      1  0.5118800000000  0.4242490000000  0.4346300000000 1.0
C      1  0.5119910000000  0.4313840000000  0.5756040000000 1.0
C      1  0.4719360000000  0.5800350000000  0.5819310000000 1.0
C      1  0.4693330000000  0.5813840000000  0.4168240000000 1.0
C      1  0.4680700000000  0.4133370000000  0.4190630000000 1.0
C      1  0.4659420000000  0.4179980000000  0.5800250000000 1.0
C      1  0.4588600000000  0.5543880000000  0.4500640000000 1.0
C      1  0.4637420000000  0.4552570000000  0.4504390000000 1.0
C      1  0.4561470000000  0.4455100000000  0.5465150000000 1.0
C      1  0.4660680000000  0.5403580000000  0.5472260000000 1.0
C      1  0.5386760000000  0.5424600000000  0.4667000000000 1.0
C      1  0.5408440000000  0.4611610000000  0.4649240000000 1.0
C      1  0.5435970000000  0.4640290000000  0.5454290000000 1.0
C      1  0.5415580000000  0.5322770000000  0.5372940000000 1.0
C      1  0.4884000000000  0.5594980000000  0.4106340000000 1.0
C      1  0.4849010000000  0.4396040000000  0.5869440000000 1.0
C      1  0.4908800000000  0.5885060000000  0.5605080000000 1.0
C      1  0.4869860000000  0.4083310000000  0.4414530000000 1.0
END
