TITL C-3578200-9634-714 -2.2239207309565e-06 125000 -414.809297059454 0 0 67 (C1) n - 1
REM
REM in /home/bkarasulu/work/CARBON/AIRSS/Generating-Clusters/EDIP-Nigel-Params/with-SteepDescent/Higher-Symm/SD-CG/HFTN-CG
REM
REM
REM
REM
REM
REM ./C.cell (12c818d87b63d06a65506943cc24bca4)
REM
REM compiler GCC version 9.2.1 20190827 (Red Hat 9.2.1-1)
REM options -cpp -mtune=generic -march=x86-64 -g -O0 -fpre-include=/usr/include/finclude/math-vector-fortran.h
REM seed 936813190 680782394 -1480135583 -1846560558 914584338 -1671351404 -50135725 -140867805 312110069 2025031443 -2017360164 1592843148 1949961150 -2099340834 758056499 1226778881 1625004236 166915697 235512600 -2033914208 428084246 1720683457 -587291270 -1855167829 292768060 -136190677 -1547966297 1944124558 -1832378894 -1252497114 -1897889004 430128779 501667567
REM
CELL 1.54180   50.00000   50.00000   50.00000   90.00000   90.00000   90.00000
LATT -1
SFAC C  
C      1  0.4792340000000  0.5216500000000  0.4912260000000 1.0
C      1  0.4865500000000  0.4733100000000  0.4943150000000 1.0
C      1  0.4364750000000  0.5399270000000  0.4733610000000 1.0
C      1  0.4365280000000  0.4661820000000  0.4806010000000 1.0
C      1  0.5270970000000  0.5788590000000  0.4810060000000 1.0
C      1  0.5249900000000  0.4362930000000  0.4751620000000 1.0
C      1  0.4723730000000  0.4311490000000  0.4678240000000 1.0
C      1  0.5011120000000  0.5715780000000  0.4728900000000 1.0
C      1  0.4662160000000  0.4714610000000  0.4411660000000 1.0
C      1  0.4773210000000  0.5283170000000  0.4479100000000 1.0
C      1  0.5047560000000  0.4431180000000  0.5452180000000 1.0
C      1  0.5128010000000  0.5553570000000  0.5528570000000 1.0
C      1  0.4800430000000  0.4253140000000  0.4941790000000 1.0
C      1  0.4802230000000  0.5792010000000  0.4914060000000 1.0
C      1  0.5418060000000  0.4834730000000  0.5480450000000 1.0
C      1  0.5421280000000  0.5132920000000  0.5494470000000 1.0
C      1  0.4901250000000  0.4844040000000  0.5637030000000 1.0
C      1  0.4893770000000  0.5144800000000  0.5672250000000 1.0
C      1  0.4986220000000  0.5132660000000  0.5242380000000 1.0
C      1  0.5066190000000  0.4847060000000  0.5163540000000 1.0
C      1  0.5514530000000  0.4474590000000  0.4830610000000 1.0
C      1  0.5477420000000  0.5621340000000  0.4902550000000 1.0
C      1  0.4679530000000  0.5297540000000  0.5510920000000 1.0
C      1  0.4653140000000  0.4694230000000  0.5550950000000 1.0
C      1  0.5080460000000  0.5318900000000  0.5024680000000 1.0
C      1  0.5056280000000  0.4396470000000  0.4980680000000 1.0
C      1  0.4515630000000  0.5398040000000  0.4507180000000 1.0
C      1  0.4418800000000  0.4747660000000  0.4543350000000 1.0
C      1  0.5809770000000  0.5188720000000  0.5120700000000 1.0
C      1  0.5814560000000  0.4890750000000  0.5103050000000 1.0
C      1  0.5005480000000  0.5445330000000  0.4603870000000 1.0
C      1  0.4841550000000  0.4534090000000  0.4550290000000 1.0
C      1  0.4542730000000  0.5399840000000  0.4972750000000 1.0
C      1  0.4574170000000  0.4648950000000  0.5042320000000 1.0
C      1  0.5768080000000  0.5210020000000  0.4804230000000 1.0
C      1  0.5769970000000  0.4902750000000  0.4788800000000 1.0
C      1  0.5493570000000  0.4764060000000  0.4755680000000 1.0
C      1  0.5485880000000  0.5339560000000  0.4775290000000 1.0
C      1  0.4507790000000  0.5125610000000  0.5353440000000 1.0
C      1  0.4450330000000  0.4851180000000  0.5403280000000 1.0
C      1  0.4742920000000  0.4425960000000  0.5431350000000 1.0
C      1  0.4765190000000  0.5566760000000  0.5382200000000 1.0
C      1  0.5542340000000  0.5274610000000  0.5240090000000 1.0
C      1  0.5556700000000  0.4764310000000  0.5212600000000 1.0
C      1  0.5173840000000  0.4290160000000  0.5235180000000 1.0
C      1  0.5072870000000  0.5594790000000  0.5146840000000 1.0
C      1  0.5136750000000  0.5246370000000  0.5510620000000 1.0
C      1  0.5120830000000  0.4729460000000  0.5451560000000 1.0
C      1  0.5449680000000  0.4261110000000  0.5264150000000 1.0
C      1  0.5337870000000  0.5710240000000  0.5388450000000 1.0
C      1  0.5254000000000  0.5290370000000  0.4575810000000 1.0
C      1  0.5137870000000  0.4529740000000  0.4529700000000 1.0
C      1  0.4620910000000  0.4371760000000  0.5148870000000 1.0
C      1  0.4641290000000  0.5648650000000  0.5106570000000 1.0
C      1  0.5362980000000  0.5188690000000  0.5009170000000 1.0
C      1  0.5347750000000  0.4881700000000  0.5015400000000 1.0
C      1  0.4813460000000  0.5174920000000  0.4213760000000 1.0
C      1  0.4756240000000  0.4912140000000  0.4240630000000 1.0
C      1  0.5128460000000  0.5018480000000  0.4583670000000 1.0
C      1  0.5297950000000  0.4786480000000  0.4527470000000 1.0
C      1  0.4248510000000  0.4729780000000  0.5240180000000 1.0
C      1  0.4355330000000  0.5254140000000  0.5149950000000 1.0
C      1  0.5564320000000  0.4471460000000  0.5123610000000 1.0
C      1  0.5512480000000  0.5576580000000  0.5200280000000 1.0
C      1  0.4175390000000  0.4821010000000  0.4971520000000 1.0
C      1  0.4208220000000  0.5109830000000  0.4938730000000 1.0
C      1  0.4840930000000  0.4974360000000  0.4712230000000 1.0
END
