TITL C-3577084-3642-714 4.18366276537523e-06 125000 -202.663407665469 0 0 34 (C1) n - 1
REM
REM in /home/bkarasulu/work/CARBON/AIRSS/Generating-Clusters/EDIP-Nigel-Params/with-SteepDescent/Higher-Symm/SD-CG/HFTN-CG
REM
REM
REM
REM
REM
REM ./C.cell (12c818d87b63d06a65506943cc24bca4)
REM
REM compiler GCC version 9.2.1 20190827 (Red Hat 9.2.1-1)
REM options -cpp -mtune=generic -march=x86-64 -g -O0 -fpre-include=/usr/include/finclude/math-vector-fortran.h
REM seed 1974619145 442126952 -297781411 -1063578708 -1477672736 61405624 -1086160614 -1715011094 -1837223346 -715730872 1512477285 1583028844 778952381 -1961024261 -42151153 602663017 641989684 -624069002 -1072920138 -543244468 1767999533 -1344509270 676724412 1989121649 -1329503675 1882554867 545440846 1935917426 -1154346636 1223609829 1733405608 -2099140638 573454220
REM
CELL 1.54180   50.00000   50.00000   50.00000   90.00000   90.00000   90.00000
LATT -1
SFAC C  
C      1  0.4632650000000  0.5142900000000  0.5418660000000 1.0
C      1  0.5374580000000  0.4730960000000  0.5431980000000 1.0
C      1  0.4631310000000  0.4767240000000  0.4562880000000 1.0
C      1  0.5349530000000  0.5210010000000  0.4628560000000 1.0
C      1  0.4770280000000  0.4948330000000  0.5584320000000 1.0
C      1  0.5290290000000  0.4985590000000  0.5573040000000 1.0
C      1  0.4776440000000  0.4954330000000  0.4397320000000 1.0
C      1  0.5262620000000  0.5085060000000  0.4392840000000 1.0
C      1  0.4457270000000  0.5050390000000  0.5216550000000 1.0
C      1  0.5534910000000  0.4782900000000  0.5205210000000 1.0
C      1  0.4439800000000  0.4874550000000  0.4748570000000 1.0
C      1  0.5505090000000  0.5046320000000  0.4795650000000 1.0
C      1  0.4840590000000  0.4876650000000  0.4980420000000 1.0
C      1  0.5238020000000  0.5496920000000  0.5244210000000 1.0
C      1  0.4663730000000  0.5309510000000  0.4848390000000 1.0
C      1  0.5245940000000  0.4628900000000  0.4858830000000 1.0
C      1  0.5128940000000  0.5378960000000  0.4743740000000 1.0
C      1  0.4820890000000  0.4558720000000  0.4664730000000 1.0
C      1  0.5099500000000  0.4650670000000  0.5335710000000 1.0
C      1  0.4827680000000  0.5336170000000  0.5321770000000 1.0
C      1  0.5059280000000  0.5439150000000  0.5462220000000 1.0
C      1  0.4974200000000  0.4920470000000  0.5262200000000 1.0
C      1  0.5105540000000  0.4615690000000  0.4602250000000 1.0
C      1  0.4865910000000  0.5311980000000  0.4636550000000 1.0
C      1  0.4796580000000  0.5467160000000  0.5064270000000 1.0
C      1  0.5084290000000  0.4501160000000  0.5074930000000 1.0
C      1  0.4810030000000  0.4565470000000  0.4961550000000 1.0
C      1  0.5082370000000  0.5528910000000  0.4998800000000 1.0
C      1  0.4579970000000  0.5030760000000  0.4952390000000 1.0
C      1  0.5468280000000  0.4805750000000  0.4935130000000 1.0
C      1  0.5031120000000  0.4971630000000  0.5695390000000 1.0
C      1  0.5044020000000  0.4940590000000  0.4310130000000 1.0
C      1  0.5213050000000  0.5123120000000  0.5308610000000 1.0
C      1  0.4995320000000  0.4963110000000  0.4717590000000 1.0
END
