TITL C-3578208-4450-429 4.51873639646556e-07 125000 -109.145654111549 0 0 19 (Cs) n - 1
REM
REM in /home/bkarasulu/work/CARBON/AIRSS/Generating-Clusters/EDIP-Nigel-Params/with-SteepDescent/Higher-Symm/SD-CG/HFTN-CG
REM
REM
REM
REM
REM
REM ./C.cell (12c818d87b63d06a65506943cc24bca4)
REM
REM compiler GCC version 9.2.1 20190827 (Red Hat 9.2.1-1)
REM options -cpp -mtune=generic -march=x86-64 -g -O0 -fpre-include=/usr/include/finclude/math-vector-fortran.h
REM seed 430590227 1370118970 867300892 41466792 4040845 -1269832258 -2084820874 343730484 1106394185 -1180151075 1986760542 -443530179 -1856468859 8764682 -194374042 11487060 1454429659 1430197542 983580479 1233319501 26252937 -1898374019 1308256470 -1912343586 -651135132 184188525 1523734946 -1212385155 1176661911 -130872835 -2051757990 -1854797794 1983922711
REM
CELL 1.54180   50.00000   50.00000   50.00000   90.00000   90.00000   90.00000
LATT -1
SFAC C  
C      1  0.4365060000000  0.4814220000000  0.5185700000000 1.0
C      1  0.4679180000000  0.5152200000000  0.5007460000000 1.0
C      1  0.5009500000000  0.5320170000000  0.4731270000000 1.0
C      1  0.5169830000000  0.5304270000000  0.5249670000000 1.0
C      1  0.5410700000000  0.5111820000000  0.4859770000000 1.0
C      1  0.5307300000000  0.4820770000000  0.5249230000000 1.0
C      1  0.5179070000000  0.4723780000000  0.4730730000000 1.0
C      1  0.4809920000000  0.4692370000000  0.5007040000000 1.0
C      1  0.5305020000000  0.4625330000000  0.4997600000000 1.0
C      1  0.4966470000000  0.4548850000000  0.4821570000000 1.0
C      1  0.4526410000000  0.4661740000000  0.5019950000000 1.0
C      1  0.4421970000000  0.5029070000000  0.5020290000000 1.0
C      1  0.4736710000000  0.5356930000000  0.4822310000000 1.0
C      1  0.5064940000000  0.5469700000000  0.4998370000000 1.0
C      1  0.5417090000000  0.5317860000000  0.5075560000000 1.0
C      1  0.5524640000000  0.4939610000000  0.5075220000000 1.0
C      1  0.5123740000000  0.5030310000000  0.4780780000000 1.0
C      1  0.5073720000000  0.5015630000000  0.5271100000000 1.0
C      1  0.4913940000000  0.4970430000000  0.5022640000000 1.0
END
