TITL C-3578208-4450-233 8.26846246104329e-07 125000 -234.1270207414 0 0 42 (C2h) n - 1
REM
REM in /home/bkarasulu/work/CARBON/AIRSS/Generating-Clusters/EDIP-Nigel-Params/with-SteepDescent/Higher-Symm/SD-CG/HFTN-CG
REM
REM
REM
REM
REM
REM ./C.cell (12c818d87b63d06a65506943cc24bca4)
REM
REM compiler GCC version 9.2.1 20190827 (Red Hat 9.2.1-1)
REM options -cpp -mtune=generic -march=x86-64 -g -O0 -fpre-include=/usr/include/finclude/math-vector-fortran.h
REM seed -1211141597 1184482436 -740963053 -1047624712 -1215773955 1076355750 -703549643 -1910742443 -647613495 1354929916 -1981390771 -633346094 -1891868554 757625224 -66766533 -184211959 -585066856 1695633084 -813538577 192007100 1797806997 -647067736 -2037631701 -609082566 -501051847 1425004050 -446117666 -1658434221 1804448165 1136911525 -1256110702 1011732810 -1460057836
REM
CELL 1.54180   50.00000   50.00000   50.00000   90.00000   90.00000   90.00000
LATT -1
SFAC C  
C      1  0.4472540000000  0.5221940000000  0.4531170000000 1.0
C      1  0.4497220000000  0.4502880000000  0.5012520000000 1.0
C      1  0.4495880000000  0.5281400000000  0.5428820000000 1.0
C      1  0.5527460000000  0.5221940000000  0.5468830000000 1.0
C      1  0.5502780000000  0.4502880000000  0.4987480000000 1.0
C      1  0.5504120000000  0.5281400000000  0.4571180000000 1.0
C      1  0.5527460000000  0.4778060000000  0.5468830000000 1.0
C      1  0.5502780000000  0.5497120000000  0.4987480000000 1.0
C      1  0.5504120000000  0.4718600000000  0.4571180000000 1.0
C      1  0.4472540000000  0.4778060000000  0.4531170000000 1.0
C      1  0.4497220000000  0.5497120000000  0.5012520000000 1.0
C      1  0.4495880000000  0.4718600000000  0.5428820000000 1.0
C      1  0.4848900000000  0.5276270000000  0.4474430000000 1.0
C      1  0.4870630000000  0.4436010000000  0.4944930000000 1.0
C      1  0.4870030000000  0.5274520000000  0.5528100000000 1.0
C      1  0.5151100000000  0.5276270000000  0.5525570000000 1.0
C      1  0.5129370000000  0.4436010000000  0.5055070000000 1.0
C      1  0.5129970000000  0.5274520000000  0.4471900000000 1.0
C      1  0.5151100000000  0.4723730000000  0.5525570000000 1.0
C      1  0.5129370000000  0.5563990000000  0.5055070000000 1.0
C      1  0.5129970000000  0.4725480000000  0.4471900000000 1.0
C      1  0.4848900000000  0.4723730000000  0.4474430000000 1.0
C      1  0.4870630000000  0.5563990000000  0.4944930000000 1.0
C      1  0.4870030000000  0.4725480000000  0.5528100000000 1.0
C      1  0.4719600000000  0.5318330000000  0.4961310000000 1.0
C      1  0.4702970000000  0.4843370000000  0.4695240000000 1.0
C      1  0.4724890000000  0.4847980000000  0.5312530000000 1.0
C      1  0.5280400000000  0.5318330000000  0.5038690000000 1.0
C      1  0.5297030000000  0.4843370000000  0.5304760000000 1.0
C      1  0.5275110000000  0.4847980000000  0.4687470000000 1.0
C      1  0.5280400000000  0.4681670000000  0.5038690000000 1.0
C      1  0.5297030000000  0.5156630000000  0.5304760000000 1.0
C      1  0.5275110000000  0.5152020000000  0.4687470000000 1.0
C      1  0.4719600000000  0.4681670000000  0.4961310000000 1.0
C      1  0.4702970000000  0.5156630000000  0.4695240000000 1.0
C      1  0.4724890000000  0.5152020000000  0.5312530000000 1.0
C      1  0.5665130000000  0.5000000000000  0.5559050000000 1.0
C      1  0.5617630000000  0.5467320000000  0.4738820000000 1.0
C      1  0.5617630000000  0.4532680000000  0.4738820000000 1.0
C      1  0.4334870000000  0.5000000000000  0.4440950000000 1.0
C      1  0.4382370000000  0.5467320000000  0.5261180000000 1.0
C      1  0.4382370000000  0.4532680000000  0.5261180000000 1.0
END
