TITL C-3578200-9634-42 8.89883561176912e-07 125000 -289.162687163229 0 0 47 (C1) n - 1
REM
REM in /home/bkarasulu/work/CARBON/AIRSS/Generating-Clusters/EDIP-Nigel-Params/with-SteepDescent/Higher-Symm/SD-CG/HFTN-CG
REM
REM
REM
REM
REM
REM ./C.cell (12c818d87b63d06a65506943cc24bca4)
REM
REM compiler GCC version 9.2.1 20190827 (Red Hat 9.2.1-1)
REM options -cpp -mtune=generic -march=x86-64 -g -O0 -fpre-include=/usr/include/finclude/math-vector-fortran.h
REM seed 834121419 2140954355 1232460878 1082602958 127367061 837121530 -1440562052 1301528620 -2036132084 -1255039356 -1160115165 -1413061189 -1194738585 1367830085 1842314673 1166436862 -1304668700 2113167214 350327744 -540752155 -1710454721 -806175002 -576325334 -736812207 353848280 -229981827 16926483 2113553164 -289728129 -144399928 -321025838 727642484 544574283
REM
CELL 1.54180   50.00000   50.00000   50.00000   90.00000   90.00000   90.00000
LATT -1
SFAC C  
C      1  0.5557710000000  0.4720650000000  0.5316740000000 1.0
C      1  0.4434470000000  0.4709980000000  0.5312110000000 1.0
C      1  0.4728940000000  0.4695300000000  0.5352780000000 1.0
C      1  0.5264660000000  0.4673030000000  0.5375030000000 1.0
C      1  0.5557580000000  0.5158320000000  0.5244840000000 1.0
C      1  0.4440550000000  0.5168120000000  0.5235750000000 1.0
C      1  0.4860030000000  0.5630360000000  0.4723490000000 1.0
C      1  0.5319720000000  0.5665980000000  0.4795720000000 1.0
C      1  0.4837240000000  0.5088880000000  0.4985020000000 1.0
C      1  0.5157610000000  0.5084560000000  0.4982050000000 1.0
C      1  0.5146180000000  0.5425200000000  0.5351000000000 1.0
C      1  0.4856800000000  0.5434180000000  0.5333940000000 1.0
C      1  0.5544400000000  0.5179280000000  0.4714630000000 1.0
C      1  0.4462770000000  0.5268280000000  0.4720840000000 1.0
C      1  0.5147940000000  0.4941190000000  0.5448600000000 1.0
C      1  0.4846120000000  0.4950230000000  0.5447970000000 1.0
C      1  0.5306100000000  0.4769560000000  0.4619470000000 1.0
C      1  0.4589460000000  0.4867920000000  0.4578150000000 1.0
C      1  0.5269260000000  0.5665310000000  0.5273880000000 1.0
C      1  0.4764090000000  0.5664260000000  0.5202890000000 1.0
C      1  0.4330370000000  0.4963020000000  0.5392100000000 1.0
C      1  0.5661240000000  0.4964290000000  0.5419800000000 1.0
C      1  0.4352900000000  0.5144120000000  0.4959280000000 1.0
C      1  0.5647830000000  0.5150490000000  0.4975950000000 1.0
C      1  0.4482730000000  0.4379270000000  0.4938380000000 1.0
C      1  0.5628030000000  0.4458790000000  0.4924590000000 1.0
C      1  0.5144600000000  0.4583350000000  0.5105210000000 1.0
C      1  0.4854100000000  0.4602940000000  0.5107230000000 1.0
C      1  0.4754290000000  0.4357590000000  0.5000400000000 1.0
C      1  0.5450260000000  0.4256370000000  0.4908740000000 1.0
C      1  0.4456430000000  0.5100040000000  0.4493530000000 1.0
C      1  0.5505750000000  0.4954640000000  0.4550200000000 1.0
C      1  0.4606250000000  0.4872620000000  0.4875050000000 1.0
C      1  0.5282180000000  0.4793250000000  0.4917760000000 1.0
C      1  0.5569200000000  0.4717760000000  0.5019320000000 1.0
C      1  0.4422200000000  0.4650190000000  0.5015410000000 1.0
C      1  0.4960750000000  0.4196700000000  0.4893170000000 1.0
C      1  0.5195300000000  0.4306220000000  0.5006580000000 1.0
C      1  0.4722290000000  0.5381080000000  0.4767080000000 1.0
C      1  0.5278460000000  0.5285030000000  0.4773000000000 1.0
C      1  0.4815700000000  0.4786190000000  0.4445090000000 1.0
C      1  0.5077650000000  0.4752430000000  0.4467810000000 1.0
C      1  0.4904960000000  0.5774670000000  0.4982140000000 1.0
C      1  0.5200530000000  0.5785090000000  0.5028280000000 1.0
C      1  0.4741040000000  0.5168130000000  0.5262200000000 1.0
C      1  0.5257740000000  0.5159780000000  0.5265150000000 1.0
C      1  0.5121250000000  0.5593020000000  0.4605940000000 1.0
END
