TITL C-3578209-2550-92 2.72993391775607e-06 125000 -1158.26220812092 0 0 185 (C1) n - 1
REM
REM in /home/bkarasulu/work/CARBON/AIRSS/Generating-Clusters/EDIP-Nigel-Params/with-SteepDescent/Higher-Symm/SD-CG/HFTN-CG
REM
REM
REM
REM
REM
REM ./C.cell (12c818d87b63d06a65506943cc24bca4)
REM
REM compiler GCC version 9.2.1 20190827 (Red Hat 9.2.1-1)
REM options -cpp -mtune=generic -march=x86-64 -g -O0 -fpre-include=/usr/include/finclude/math-vector-fortran.h
REM seed 2102732368 399949170 666342605 1201202677 614346726 233844596 976233406 1233678940 -1366516026 557593541 -1175602597 1108108315 -375754910 1969595811 -699928006 -1168199447 386387111 46087256 797060829 1408280539 -1811261608 1114050413 1832701397 -1658280143 1933051766 354554457 1321032194 2009435230 -1572552820 -1145773845 1519081736 2039805338 -2119965169
REM
CELL 1.54180   50.00000   50.00000   50.00000   90.00000   90.00000   90.00000
LATT -1
SFAC C  
C      1  0.4897360000000  0.4268720000000  0.5915530000000 1.0
C      1  0.5597360000000  0.4557120000000  0.6089790000000 1.0
C      1  0.5519860000000  0.5482120000000  0.5949710000000 1.0
C      1  0.4669590000000  0.5658490000000  0.5919060000000 1.0
C      1  0.4192160000000  0.4957210000000  0.5986130000000 1.0
C      1  0.5116930000000  0.4783540000000  0.5166210000000 1.0
C      1  0.5259710000000  0.5049990000000  0.5261970000000 1.0
C      1  0.5059630000000  0.5263190000000  0.5155490000000 1.0
C      1  0.4802360000000  0.5152610000000  0.5252310000000 1.0
C      1  0.4835670000000  0.4846240000000  0.5266840000000 1.0
C      1  0.4606180000000  0.4255450000000  0.4400200000000 1.0
C      1  0.5599300000000  0.4369700000000  0.4396900000000 1.0
C      1  0.5779390000000  0.5386250000000  0.4394510000000 1.0
C      1  0.4872190000000  0.5855610000000  0.4378740000000 1.0
C      1  0.4173790000000  0.5152500000000  0.4412140000000 1.0
C      1  0.5705710000000  0.4178210000000  0.5347650000000 1.0
C      1  0.5957080000000  0.5399540000000  0.5337160000000 1.0
C      1  0.4977050000000  0.6089600000000  0.5297690000000 1.0
C      1  0.4053150000000  0.5250620000000  0.5371030000000 1.0
C      1  0.4382800000000  0.4158290000000  0.5316620000000 1.0
C      1  0.4981780000000  0.5260310000000  0.5988630000000 1.0
C      1  0.4714040000000  0.5018930000000  0.5992120000000 1.0
C      1  0.4868340000000  0.4757090000000  0.6058470000000 1.0
C      1  0.5161490000000  0.4802270000000  0.5956920000000 1.0
C      1  0.5251900000000  0.5086760000000  0.6044220000000 1.0
C      1  0.4517770000000  0.5166550000000  0.4692970000000 1.0
C      1  0.4757870000000  0.4578660000000  0.4664290000000 1.0
C      1  0.5269480000000  0.4592360000000  0.4732070000000 1.0
C      1  0.5493080000000  0.5155210000000  0.4731070000000 1.0
C      1  0.5019340000000  0.5506470000000  0.4713560000000 1.0
C      1  0.4678690000000  0.4448630000000  0.4933850000000 1.0
C      1  0.5430110000000  0.4482560000000  0.4969010000000 1.0
C      1  0.5601820000000  0.5281670000000  0.4973230000000 1.0
C      1  0.4966320000000  0.5678920000000  0.4955530000000 1.0
C      1  0.4381340000000  0.5157530000000  0.4957620000000 1.0
C      1  0.5444790000000  0.4742940000000  0.4086320000000 1.0
C      1  0.5379140000000  0.5344690000000  0.4080600000000 1.0
C      1  0.4781810000000  0.5470500000000  0.4068420000000 1.0
C      1  0.4478320000000  0.4949990000000  0.4059110000000 1.0
C      1  0.4888080000000  0.4490060000000  0.4063340000000 1.0
C      1  0.4028560000000  0.4701530000000  0.5311940000000 1.0
C      1  0.4823310000000  0.4137840000000  0.5263270000000 1.0
C      1  0.5791750000000  0.4602590000000  0.5248080000000 1.0
C      1  0.5646250000000  0.5635630000000  0.5285210000000 1.0
C      1  0.4624010000000  0.5800100000000  0.5271830000000 1.0
C      1  0.5127390000000  0.4370140000000  0.5516550000000 1.0
C      1  0.5806000000000  0.4858810000000  0.5645170000000 1.0
C      1  0.5280560000000  0.5611240000000  0.5545000000000 1.0
C      1  0.4463650000000  0.5423900000000  0.5527360000000 1.0
C      1  0.4386650000000  0.4628980000000  0.5632000000000 1.0
C      1  0.5215700000000  0.4874470000000  0.3956550000000 1.0
C      1  0.5184760000000  0.5165740000000  0.3955780000000 1.0
C      1  0.4896390000000  0.5229230000000  0.3948040000000 1.0
C      1  0.4746790000000  0.4976420000000  0.3939990000000 1.0
C      1  0.4944540000000  0.4754300000000  0.3941640000000 1.0
C      1  0.3921730000000  0.4985990000000  0.5241520000000 1.0
C      1  0.4589370000000  0.3952810000000  0.5196520000000 1.0
C      1  0.5938750000000  0.4327440000000  0.5187290000000 1.0
C      1  0.5921490000000  0.5703540000000  0.5191590000000 1.0
C      1  0.4696100000000  0.6079440000000  0.5192670000000 1.0
C      1  0.4877720000000  0.4772730000000  0.5561590000000 1.0
C      1  0.5152440000000  0.4833210000000  0.5660130000000 1.0
C      1  0.5208100000000  0.5110510000000  0.5558610000000 1.0
C      1  0.4927440000000  0.5237960000000  0.5670250000000 1.0
C      1  0.4706730000000  0.4991570000000  0.5683370000000 1.0
C      1  0.5024950000000  0.5246080000000  0.4858470000000 1.0
C      1  0.4787430000000  0.5097270000000  0.4785670000000 1.0
C      1  0.4857670000000  0.4825060000000  0.4780800000000 1.0
C      1  0.5125240000000  0.4806920000000  0.4869940000000 1.0
C      1  0.5231800000000  0.5064280000000  0.4797480000000 1.0
C      1  0.5095090000000  0.4737220000000  0.4352660000000 1.0
C      1  0.5271220000000  0.5029900000000  0.4365730000000 1.0
C      1  0.5048190000000  0.5275610000000  0.4359170000000 1.0
C      1  0.4748690000000  0.5134580000000  0.4351640000000 1.0
C      1  0.4782080000000  0.4812580000000  0.4346230000000 1.0
C      1  0.5185890000000  0.4481170000000  0.5199780000000 1.0
C      1  0.5567340000000  0.5065900000000  0.5191940000000 1.0
C      1  0.5162520000000  0.5548380000000  0.5180090000000 1.0
C      1  0.4568200000000  0.5311250000000  0.5172130000000 1.0
C      1  0.4603750000000  0.4671970000000  0.5145930000000 1.0
C      1  0.4095030000000  0.5362500000000  0.4599540000000 1.0
C      1  0.4376640000000  0.4255720000000  0.4574200000000 1.0
C      1  0.5521710000000  0.4157140000000  0.4586570000000 1.0
C      1  0.5946060000000  0.5260190000000  0.4602410000000 1.0
C      1  0.5059170000000  0.5998510000000  0.4548320000000 1.0
C      1  0.4821690000000  0.4070620000000  0.4473500000000 1.0
C      1  0.5822870000000  0.4546070000000  0.4479180000000 1.0
C      1  0.5691100000000  0.5663670000000  0.4445290000000 1.0
C      1  0.4591130000000  0.5865460000000  0.4456720000000 1.0
C      1  0.4058330000000  0.4891950000000  0.4461580000000 1.0
C      1  0.5159160000000  0.6111280000000  0.5066210000000 1.0
C      1  0.4053300000000  0.5454850000000  0.5147160000000 1.0
C      1  0.4231110000000  0.4256590000000  0.5079810000000 1.0
C      1  0.5536580000000  0.4042100000000  0.5137030000000 1.0
C      1  0.6065280000000  0.5242790000000  0.5100270000000 1.0
C      1  0.5435390000000  0.6070140000000  0.5079130000000 1.0
C      1  0.4189140000000  0.5710480000000  0.5159920000000 1.0
C      1  0.4070820000000  0.4506210000000  0.5089620000000 1.0
C      1  0.5265470000000  0.3947740000000  0.5197600000000 1.0
C      1  0.6023190000000  0.4957780000000  0.5109200000000 1.0
C      1  0.5543130000000  0.5754360000000  0.5544270000000 1.0
C      1  0.4397410000000  0.5726180000000  0.5483900000000 1.0
C      1  0.4089660000000  0.4631220000000  0.5599690000000 1.0
C      1  0.5041980000000  0.4075710000000  0.5479500000000 1.0
C      1  0.5911310000000  0.4847680000000  0.5367340000000 1.0
C      1  0.4876770000000  0.5753350000000  0.5433550000000 1.0
C      1  0.4289670000000  0.5049110000000  0.5374150000000 1.0
C      1  0.4627330000000  0.4363690000000  0.5375600000000 1.0
C      1  0.5609430000000  0.4455320000000  0.5450510000000 1.0
C      1  0.5693320000000  0.5229130000000  0.5435770000000 1.0
C      1  0.3930780000000  0.4837280000000  0.4734370000000 1.0
C      1  0.4809130000000  0.3904600000000  0.4732310000000 1.0
C      1  0.5923830000000  0.4545920000000  0.4754430000000 1.0
C      1  0.5765040000000  0.5815300000000  0.4706590000000 1.0
C      1  0.4496670000000  0.5978670000000  0.4729820000000 1.0
C      1  0.5735570000000  0.5092670000000  0.5795670000000 1.0
C      1  0.5119900000000  0.5685470000000  0.5776600000000 1.0
C      1  0.4381540000000  0.5325240000000  0.5791690000000 1.0
C      1  0.4491500000000  0.4517670000000  0.5867220000000 1.0
C      1  0.5295800000000  0.4395890000000  0.5754060000000 1.0
C      1  0.5937160000000  0.5655780000000  0.4899390000000 1.0
C      1  0.4719250000000  0.6092620000000  0.4897610000000 1.0
C      1  0.3922290000000  0.5047490000000  0.4944640000000 1.0
C      1  0.4566900000000  0.3958360000000  0.4900900000000 1.0
C      1  0.5876580000000  0.4300200000000  0.4904340000000 1.0
C      1  0.5997650000000  0.4967570000000  0.4583710000000 1.0
C      1  0.5315270000000  0.5988490000000  0.4434610000000 1.0
C      1  0.4176750000000  0.5609980000000  0.4498080000000 1.0
C      1  0.4166320000000  0.4417620000000  0.4489250000000 1.0
C      1  0.5304390000000  0.4010530000000  0.4486990000000 1.0
C      1  0.4616150000000  0.4449080000000  0.4176450000000 1.0
C      1  0.5402640000000  0.4468070000000  0.4193540000000 1.0
C      1  0.5620470000000  0.5224060000000  0.4203880000000 1.0
C      1  0.4973690000000  0.5666270000000  0.4174460000000 1.0
C      1  0.4354400000000  0.5196520000000  0.4180060000000 1.0
C      1  0.4102200000000  0.5278030000000  0.4902250000000 1.0
C      1  0.4449920000000  0.4230920000000  0.4865080000000 1.0
C      1  0.5585780000000  0.4220400000000  0.4888710000000 1.0
C      1  0.5898340000000  0.5360170000000  0.4883430000000 1.0
C      1  0.4992490000000  0.5979050000000  0.4852350000000 1.0
C      1  0.4277690000000  0.5785720000000  0.4891380000000 1.0
C      1  0.3946140000000  0.4565140000000  0.4839390000000 1.0
C      1  0.5126760000000  0.3909610000000  0.4947340000000 1.0
C      1  0.6049780000000  0.4806520000000  0.4845520000000 1.0
C      1  0.5504870000000  0.5958950000000  0.4831480000000 1.0
C      1  0.5438530000000  0.4751220000000  0.4527080000000 1.0
C      1  0.5363710000000  0.5384990000000  0.4524060000000 1.0
C      1  0.4752990000000  0.5466530000000  0.4542400000000 1.0
C      1  0.4488150000000  0.4882410000000  0.4545820000000 1.0
C      1  0.5036110000000  0.4438450000000  0.4594960000000 1.0
C      1  0.4941850000000  0.4319990000000  0.5049420000000 1.0
C      1  0.5620650000000  0.4729600000000  0.5017830000000 1.0
C      1  0.5448590000000  0.5538770000000  0.5056610000000 1.0
C      1  0.4666950000000  0.5588370000000  0.5045570000000 1.0
C      1  0.4355160000000  0.4840260000000  0.5054970000000 1.0
C      1  0.5640960000000  0.4883980000000  0.4719700000000 1.0
C      1  0.5415700000000  0.5665660000000  0.4780620000000 1.0
C      1  0.4506220000000  0.5595180000000  0.4786710000000 1.0
C      1  0.4300210000000  0.4703720000000  0.4766820000000 1.0
C      1  0.5067480000000  0.4176980000000  0.4821190000000 1.0
C      1  0.5674510000000  0.4601520000000  0.5711130000000 1.0
C      1  0.5423160000000  0.5332790000000  0.5600110000000 1.0
C      1  0.4770150000000  0.5494850000000  0.5579520000000 1.0
C      1  0.4420050000000  0.4924630000000  0.5612900000000 1.0
C      1  0.4834870000000  0.4472210000000  0.5589080000000 1.0
C      1  0.4409970000000  0.5664250000000  0.4352740000000 1.0
C      1  0.4179170000000  0.4654170000000  0.4340490000000 1.0
C      1  0.5080880000000  0.4092440000000  0.4336210000000 1.0
C      1  0.5869070000000  0.4807630000000  0.4355290000000 1.0
C      1  0.5443820000000  0.5767510000000  0.4321810000000 1.0
C      1  0.4908090000000  0.4046420000000  0.5740470000000 1.0
C      1  0.5800400000000  0.4451560000000  0.5931290000000 1.0
C      1  0.5656830000000  0.5662070000000  0.5785190000000 1.0
C      1  0.4507510000000  0.5812800000000  0.5744520000000 1.0
C      1  0.4031680000000  0.4828570000000  0.5802930000000 1.0
C      1  0.4731370000000  0.4493940000000  0.6010930000000 1.0
C      1  0.5331710000000  0.4554160000000  0.5985970000000 1.0
C      1  0.5535650000000  0.5195260000000  0.5994740000000 1.0
C      1  0.4946800000000  0.5571830000000  0.5971920000000 1.0
C      1  0.4413270000000  0.5134260000000  0.6000780000000 1.0
C      1  0.4507370000000  0.5453070000000  0.4177350000000 1.0
C      1  0.4413980000000  0.4677690000000  0.4167230000000 1.0
C      1  0.5126480000000  0.4343790000000  0.4181590000000 1.0
C      1  0.5657220000000  0.4927640000000  0.4188960000000 1.0
C      1  0.5266870000000  0.5604110000000  0.4161300000000 1.0
END
