TITL C-3578202-4305-2 -5.56343324407018e-06 125000 -560.08038367056 0 0 91 (C1) n - 1
REM
REM in /home/bkarasulu/work/CARBON/AIRSS/Generating-Clusters/EDIP-Nigel-Params/with-SteepDescent/Higher-Symm/SD-CG/HFTN-CG
REM
REM
REM
REM
REM
REM ./C.cell (12c818d87b63d06a65506943cc24bca4)
REM
REM compiler GCC version 9.2.1 20190827 (Red Hat 9.2.1-1)
REM options -cpp -mtune=generic -march=x86-64 -g -O0 -fpre-include=/usr/include/finclude/math-vector-fortran.h
REM seed 2107401042 -93412672 -488212161 1135938561 292289552 -950103712 -1567513783 278937084 -1309730070 1376278157 1659857854 -8602993 -585664128 1363097798 1021007126 -1410534440 1239509289 512974489 -825658463 572015449 202316477 -469246368 -267062832 214048849 1790198918 -425098718 1398117064 -1282218101 -248177064 1592406536 806556355 467578273 -391764012
REM
CELL 1.54180   50.00000   50.00000   50.00000   90.00000   90.00000   90.00000
LATT -1
SFAC C  
C      1  0.4648480000000  0.4277150000000  0.4771900000000 1.0
C      1  0.4214440000000  0.4783590000000  0.4671100000000 1.0
C      1  0.4810430000000  0.4637220000000  0.4263100000000 1.0
C      1  0.5381210000000  0.5653210000000  0.4781460000000 1.0
C      1  0.4773150000000  0.5728840000000  0.5217010000000 1.0
C      1  0.5334180000000  0.4243900000000  0.5251550000000 1.0
C      1  0.5722600000000  0.5228610000000  0.4795720000000 1.0
C      1  0.4262760000000  0.5239040000000  0.5370860000000 1.0
C      1  0.5645710000000  0.4776620000000  0.5381800000000 1.0
C      1  0.5258450000000  0.5359390000000  0.4262320000000 1.0
C      1  0.4774820000000  0.5389590000000  0.5646490000000 1.0
C      1  0.5216530000000  0.4790140000000  0.5716430000000 1.0
C      1  0.4737300000000  0.4296860000000  0.5208250000000 1.0
C      1  0.4294770000000  0.4797970000000  0.5391840000000 1.0
C      1  0.4814260000000  0.4622210000000  0.5633800000000 1.0
C      1  0.5343370000000  0.5791410000000  0.5199640000000 1.0
C      1  0.4603560000000  0.5639530000000  0.4816490000000 1.0
C      1  0.5374990000000  0.4256180000000  0.4810820000000 1.0
C      1  0.5779070000000  0.5198050000000  0.5363710000000 1.0
C      1  0.4241580000000  0.5211860000000  0.4779700000000 1.0
C      1  0.5649570000000  0.4829600000000  0.4614300000000 1.0
C      1  0.5198360000000  0.5360040000000  0.5770970000000 1.0
C      1  0.4818600000000  0.5391870000000  0.4297810000000 1.0
C      1  0.5230650000000  0.4771370000000  0.4271750000000 1.0
C      1  0.5955740000000  0.5025420000000  0.5182470000000 1.0
C      1  0.5023730000000  0.5182400000000  0.5950890000000 1.0
C      1  0.5164310000000  0.5961540000000  0.5018360000000 1.0
C      1  0.4039630000000  0.4818140000000  0.5258380000000 1.0
C      1  0.5864890000000  0.4793930000000  0.4805150000000 1.0
C      1  0.4005100000000  0.5111900000000  0.4929140000000 1.0
C      1  0.4780240000000  0.4812630000000  0.5850300000000 1.0
C      1  0.5119660000000  0.4902230000000  0.4033510000000 1.0
C      1  0.4830090000000  0.5234630000000  0.4053840000000 1.0
C      1  0.4854460000000  0.4038150000000  0.5126670000000 1.0
C      1  0.5188300000000  0.4033710000000  0.4835040000000 1.0
C      1  0.4796650000000  0.5853300000000  0.4778870000000 1.0
C      1  0.5946830000000  0.5061220000000  0.4887790000000 1.0
C      1  0.5125320000000  0.5203640000000  0.4035000000000 1.0
C      1  0.5180270000000  0.5856480000000  0.4743550000000 1.0
C      1  0.4008860000000  0.4819160000000  0.4877050000000 1.0
C      1  0.5855810000000  0.4746900000000  0.5186900000000 1.0
C      1  0.4025630000000  0.5113320000000  0.5228910000000 1.0
C      1  0.4830440000000  0.4850340000000  0.4063570000000 1.0
C      1  0.5048760000000  0.4886200000000  0.5938080000000 1.0
C      1  0.4742480000000  0.5195330000000  0.5856460000000 1.0
C      1  0.4804960000000  0.4037990000000  0.4838500000000 1.0
C      1  0.5157550000000  0.4027620000000  0.5127830000000 1.0
C      1  0.4867920000000  0.5948050000000  0.5044660000000 1.0
C      1  0.5196500000000  0.4939240000000  0.4518850000000 1.0
C      1  0.4940740000000  0.4518130000000  0.5188060000000 1.0
C      1  0.4500070000000  0.5188580000000  0.4939070000000 1.0
C      1  0.4750840000000  0.5219340000000  0.4531530000000 1.0
C      1  0.5333390000000  0.5235400000000  0.5519490000000 1.0
C      1  0.4788210000000  0.4729530000000  0.5347760000000 1.0
C      1  0.5221140000000  0.5547620000000  0.5330710000000 1.0
C      1  0.4713990000000  0.5356020000000  0.4788470000000 1.0
C      1  0.5233870000000  0.4503040000000  0.4707690000000 1.0
C      1  0.5367380000000  0.4785100000000  0.4720740000000 1.0
C      1  0.4521550000000  0.4718210000000  0.5207330000000 1.0
C      1  0.5529010000000  0.5335630000000  0.5248930000000 1.0
C      1  0.5203880000000  0.4964590000000  0.5462810000000 1.0
C      1  0.4849160000000  0.4475700000000  0.4672830000000 1.0
C      1  0.4495900000000  0.5336250000000  0.5205270000000 1.0
C      1  0.4777190000000  0.5282740000000  0.5363690000000 1.0
C      1  0.5340160000000  0.5206690000000  0.4509050000000 1.0
C      1  0.4723310000000  0.4718800000000  0.4546580000000 1.0
C      1  0.5276560000000  0.5372630000000  0.4786480000000 1.0
C      1  0.4952880000000  0.5481730000000  0.5206230000000 1.0
C      1  0.5197460000000  0.4497450000000  0.5340690000000 1.0
C      1  0.5364670000000  0.4779250000000  0.5273230000000 1.0
C      1  0.4483090000000  0.4690110000000  0.4778700000000 1.0
C      1  0.5470910000000  0.5211860000000  0.4970910000000 1.0
C      1  0.5524930000000  0.4292900000000  0.5048860000000 1.0
C      1  0.4514070000000  0.5628860000000  0.5110400000000 1.0
C      1  0.4509330000000  0.4382980000000  0.5019400000000 1.0
C      1  0.5540350000000  0.5707400000000  0.5012590000000 1.0
C      1  0.4343220000000  0.5031620000000  0.5546330000000 1.0
C      1  0.5057930000000  0.5548190000000  0.4331210000000 1.0
C      1  0.5701500000000  0.4998960000000  0.5552220000000 1.0
C      1  0.4246300000000  0.5040610000000  0.4550370000000 1.0
C      1  0.5632020000000  0.5122470000000  0.4533790000000 1.0
C      1  0.5078880000000  0.4530690000000  0.4304260000000 1.0
C      1  0.5104730000000  0.4528810000000  0.5628520000000 1.0
C      1  0.5000300000000  0.5555800000000  0.5705410000000 1.0
C      1  0.4901730000000  0.4965200000000  0.4626670000000 1.0
C      1  0.4577500000000  0.4901110000000  0.4973260000000 1.0
C      1  0.4929740000000  0.4999570000000  0.5305190000000 1.0
C      1  0.4986950000000  0.5328780000000  0.4933630000000 1.0
C      1  0.5315400000000  0.4935270000000  0.4990460000000 1.0
C      1  0.5001610000000  0.4587700000000  0.4904280000000 1.0
C      1  0.5005140000000  0.5020500000000  0.4991450000000 1.0
END
