TITL C-3577076-40-183 2.04168890471036e-07 125000 -77.9101697538865 0 0 14 (Cs) n - 1
REM
REM in /home/bkarasulu/work/CARBON/AIRSS/Generating-Clusters/EDIP-Nigel-Params/with-SteepDescent/Higher-Symm/SD-CG/HFTN-CG
REM
REM
REM
REM
REM
REM ./C.cell (12c818d87b63d06a65506943cc24bca4)
REM
REM compiler GCC version 9.2.1 20190827 (Red Hat 9.2.1-1)
REM options -cpp -mtune=generic -march=x86-64 -g -O0 -fpre-include=/usr/include/finclude/math-vector-fortran.h
REM seed -830772224 43875397 -234278659 -1790246352 1511500804 -672214133 1143775480 593018496 -275391304 932225515 349881524 2129059838 -50981967 1315375693 -1895856937 -1050857989 1039046152 773118806 1845738127 1628119892 724008373 1600670506 1463764550 -1239001285 663156512 -1395932104 1070282461 -875361607 1804522222 438573498 -436190851 1117494629 -1074186916
REM
CELL 1.54180   50.00000   50.00000   50.00000   90.00000   90.00000   90.00000
LATT -1
SFAC C  
C      1  0.5057050000000  0.4830190000000  0.5378300000000 1.0
C      1  0.5336460000000  0.4888010000000  0.5135110000000 1.0
C      1  0.5328660000000  0.4885310000000  0.4848900000000 1.0
C      1  0.5036440000000  0.4823050000000  0.4622430000000 1.0
C      1  0.4756860000000  0.4834260000000  0.4745390000000 1.0
C      1  0.4730530000000  0.4746750000000  0.5009740000000 1.0
C      1  0.4771180000000  0.4839220000000  0.5270560000000 1.0
C      1  0.4772500000000  0.5247090000000  0.5003870000000 1.0
C      1  0.4781190000000  0.5152290000000  0.5269430000000 1.0
C      1  0.5070750000000  0.5140790000000  0.5383990000000 1.0
C      1  0.5276250000000  0.5167960000000  0.5183840000000 1.0
C      1  0.5265740000000  0.5164320000000  0.4798240000000 1.0
C      1  0.5049650000000  0.5133480000000  0.4610140000000 1.0
C      1  0.4766750000000  0.5147290000000  0.4740060000000 1.0
END
