TITL C-3578208-4450-196 -2.31518119362515e-08 125000 -984.338306397229 0 0 154 (C1) n - 1
REM
REM in /home/bkarasulu/work/CARBON/AIRSS/Generating-Clusters/EDIP-Nigel-Params/with-SteepDescent/Higher-Symm/SD-CG/HFTN-CG
REM
REM
REM
REM
REM
REM ./C.cell (12c818d87b63d06a65506943cc24bca4)
REM
REM compiler GCC version 9.2.1 20190827 (Red Hat 9.2.1-1)
REM options -cpp -mtune=generic -march=x86-64 -g -O0 -fpre-include=/usr/include/finclude/math-vector-fortran.h
REM seed -590188918 -811616571 -1929257669 420941655 -1285786172 -1076326910 90220047 -1583155580 -1347213205 1553311765 861060353 860643143 602444252 979568448 -820618116 -1240526161 284175033 -1645109084 -625747006 1648301605 403743893 459942404 -1151539298 -1527303160 566797840 1301438533 335388938 2016778000 1964325396 -793806120 -559825054 -1403566660 -1771365024
REM
CELL 1.54180   50.00000   50.00000   50.00000   90.00000   90.00000   90.00000
LATT -1
SFAC C  
C      1  0.5562180000000  0.5163110000000  0.5939690000000 1.0
C      1  0.5576740000000  0.4852970000000  0.4055350000000 1.0
C      1  0.4472690000000  0.5141900000000  0.5905400000000 1.0
C      1  0.4483230000000  0.4836850000000  0.4119260000000 1.0
C      1  0.5562210000000  0.5161390000000  0.4059660000000 1.0
C      1  0.5577580000000  0.4854770000000  0.5944490000000 1.0
C      1  0.4474820000000  0.5146740000000  0.4097490000000 1.0
C      1  0.4482440000000  0.4832440000000  0.5881840000000 1.0
C      1  0.5320590000000  0.5667110000000  0.4340200000000 1.0
C      1  0.5311500000000  0.4339190000000  0.5626170000000 1.0
C      1  0.4699210000000  0.5643180000000  0.4359470000000 1.0
C      1  0.4709120000000  0.4335300000000  0.5634840000000 1.0
C      1  0.5316950000000  0.5669250000000  0.5665010000000 1.0
C      1  0.5310750000000  0.4338930000000  0.4373620000000 1.0
C      1  0.4690550000000  0.5640750000000  0.5648980000000 1.0
C      1  0.4708570000000  0.4337550000000  0.4364760000000 1.0
C      1  0.4914700000000  0.4854810000000  0.4314190000000 1.0
C      1  0.4872680000000  0.5134630000000  0.5656550000000 1.0
C      1  0.5188670000000  0.4757160000000  0.4307960000000 1.0
C      1  0.5168600000000  0.5253240000000  0.5654900000000 1.0
C      1  0.4914640000000  0.4853650000000  0.5687250000000 1.0
C      1  0.4874080000000  0.5135770000000  0.4346620000000 1.0
C      1  0.5189080000000  0.4757230000000  0.5693550000000 1.0
C      1  0.5170200000000  0.5252310000000  0.4347450000000 1.0
C      1  0.4841890000000  0.5522870000000  0.5881680000000 1.0
C      1  0.4851310000000  0.4456640000000  0.4127800000000 1.0
C      1  0.5164530000000  0.5549480000000  0.5904650000000 1.0
C      1  0.5171850000000  0.4442410000000  0.4122810000000 1.0
C      1  0.4845340000000  0.5526640000000  0.4123740000000 1.0
C      1  0.4851940000000  0.4454500000000  0.5871850000000 1.0
C      1  0.5165960000000  0.5550740000000  0.4100670000000 1.0
C      1  0.5172530000000  0.4442220000000  0.5876650000000 1.0
C      1  0.5847390000000  0.4528000000000  0.4854340000000 1.0
C      1  0.5852270000000  0.5464200000000  0.5145640000000 1.0
C      1  0.4126440000000  0.4466580000000  0.4849100000000 1.0
C      1  0.4134280000000  0.5473110000000  0.5150520000000 1.0
C      1  0.5847760000000  0.4528140000000  0.5145920000000 1.0
C      1  0.5854440000000  0.5463270000000  0.4849580000000 1.0
C      1  0.4126520000000  0.4465570000000  0.5150000000000 1.0
C      1  0.4136520000000  0.5474900000000  0.4853080000000 1.0
C      1  0.4412170000000  0.5551740000000  0.5579320000000 1.0
C      1  0.4433280000000  0.4428330000000  0.4431650000000 1.0
C      1  0.5592020000000  0.5571700000000  0.5583380000000 1.0
C      1  0.5589910000000  0.4430320000000  0.4426230000000 1.0
C      1  0.4419100000000  0.5555960000000  0.4427310000000 1.0
C      1  0.4433610000000  0.4425710000000  0.5567720000000 1.0
C      1  0.5597160000000  0.5568970000000  0.4412310000000 1.0
C      1  0.5590460000000  0.4431180000000  0.5573890000000 1.0
C      1  0.4386080000000  0.4724080000000  0.5608200000000 1.0
C      1  0.4381870000000  0.5253230000000  0.4366660000000 1.0
C      1  0.5654190000000  0.4738730000000  0.5662940000000 1.0
C      1  0.5650050000000  0.5269130000000  0.4336170000000 1.0
C      1  0.4386470000000  0.4727130000000  0.4392310000000 1.0
C      1  0.4379260000000  0.5249050000000  0.5636570000000 1.0
C      1  0.5653730000000  0.4737070000000  0.4337170000000 1.0
C      1  0.5648350000000  0.5271800000000  0.5662520000000 1.0
C      1  0.4847670000000  0.4255990000000  0.5376120000000 1.0
C      1  0.4848120000000  0.5739520000000  0.4604000000000 1.0
C      1  0.5162950000000  0.4295980000000  0.5364840000000 1.0
C      1  0.5173860000000  0.5749570000000  0.4588530000000 1.0
C      1  0.4846810000000  0.4257050000000  0.4623420000000 1.0
C      1  0.4835700000000  0.5738280000000  0.5404610000000 1.0
C      1  0.5162000000000  0.4296990000000  0.4635020000000 1.0
C      1  0.5152980000000  0.5750330000000  0.5429480000000 1.0
C      1  0.4043210000000  0.4732680000000  0.4737770000000 1.0
C      1  0.4045810000000  0.5224060000000  0.5272700000000 1.0
C      1  0.5857130000000  0.4794020000000  0.4759030000000 1.0
C      1  0.5982970000000  0.5277010000000  0.5304750000000 1.0
C      1  0.4043080000000  0.4730860000000  0.5262290000000 1.0
C      1  0.4047550000000  0.5226980000000  0.4729190000000 1.0
C      1  0.5857770000000  0.4794280000000  0.5240980000000 1.0
C      1  0.5985910000000  0.5274290000000  0.4692870000000 1.0
C      1  0.5422750000000  0.5154190000000  0.5500600000000 1.0
C      1  0.5421700000000  0.4854430000000  0.4491860000000 1.0
C      1  0.4606670000000  0.5146300000000  0.5465050000000 1.0
C      1  0.4515170000000  0.4876830000000  0.4635750000000 1.0
C      1  0.5424740000000  0.5153020000000  0.4499050000000 1.0
C      1  0.5421290000000  0.4855180000000  0.5508720000000 1.0
C      1  0.4607980000000  0.5147830000000  0.4537980000000 1.0
C      1  0.4515020000000  0.4875250000000  0.5365840000000 1.0
C      1  0.4456000000000  0.5871700000000  0.5155500000000 1.0
C      1  0.4474170000000  0.4073720000000  0.4845850000000 1.0
C      1  0.5542980000000  0.5859800000000  0.5141610000000 1.0
C      1  0.5562420000000  0.4118200000000  0.4850330000000 1.0
C      1  0.4461890000000  0.5873950000000  0.4851440000000 1.0
C      1  0.4474770000000  0.4073130000000  0.5152240000000 1.0
C      1  0.5549960000000  0.5862240000000  0.4843300000000 1.0
C      1  0.5563770000000  0.4117480000000  0.5150650000000 1.0
C      1  0.4745050000000  0.4731300000000  0.4767360000000 1.0
C      1  0.5049450000000  0.5359150000000  0.5249680000000 1.0
C      1  0.5026850000000  0.4804290000000  0.4739200000000 1.0
C      1  0.5132510000000  0.5074160000000  0.5152310000000 1.0
C      1  0.4745360000000  0.4730480000000  0.5234090000000 1.0
C      1  0.5050540000000  0.5354820000000  0.4754500000000 1.0
C      1  0.5027130000000  0.4803880000000  0.5262210000000 1.0
C      1  0.5134180000000  0.5073260000000  0.4849560000000 1.0
C      1  0.5677620000000  0.5637000000000  0.4696830000000 1.0
C      1  0.5670280000000  0.4353470000000  0.5293010000000 1.0
C      1  0.4332690000000  0.5643440000000  0.4707470000000 1.0
C      1  0.4361890000000  0.4333130000000  0.5283530000000 1.0
C      1  0.5671600000000  0.5637930000000  0.5295090000000 1.0
C      1  0.5669540000000  0.4353400000000  0.4707500000000 1.0
C      1  0.4328680000000  0.5639830000000  0.5298350000000 1.0
C      1  0.4361630000000  0.4334480000000  0.4715370000000 1.0
C      1  0.5298420000000  0.4046580000000  0.5255130000000 1.0
C      1  0.5313700000000  0.5986380000000  0.4706420000000 1.0
C      1  0.4728050000000  0.3993860000000  0.5290290000000 1.0
C      1  0.4705620000000  0.5977070000000  0.4711740000000 1.0
C      1  0.5296290000000  0.4049220000000  0.4747730000000 1.0
C      1  0.5283260000000  0.5939320000000  0.5246510000000 1.0
C      1  0.4727050000000  0.3994150000000  0.4707460000000 1.0
C      1  0.4692930000000  0.5978590000000  0.5298520000000 1.0
C      1  0.5883520000000  0.4864140000000  0.5516190000000 1.0
C      1  0.5904220000000  0.5152140000000  0.4453160000000 1.0
C      1  0.4099870000000  0.4811920000000  0.5556120000000 1.0
C      1  0.4120280000000  0.5124770000000  0.4463830000000 1.0
C      1  0.5883900000000  0.4861650000000  0.4483280000000 1.0
C      1  0.5902110000000  0.5155070000000  0.5544660000000 1.0
C      1  0.4100520000000  0.4815790000000  0.4444260000000 1.0
C      1  0.4118340000000  0.5120710000000  0.5538020000000 1.0
C      1  0.5471090000000  0.4737440000000  0.4768350000000 1.0
C      1  0.5472090000000  0.5253930000000  0.5216650000000 1.0
C      1  0.4252910000000  0.4930050000000  0.4841310000000 1.0
C      1  0.4610840000000  0.5308420000000  0.5223540000000 1.0
C      1  0.5471560000000  0.4737390000000  0.5232460000000 1.0
C      1  0.5474160000000  0.5254220000000  0.4780960000000 1.0
C      1  0.4252900000000  0.4928710000000  0.5159900000000 1.0
C      1  0.4611580000000  0.5309130000000  0.4780020000000 1.0
C      1  0.5284060000000  0.5505940000000  0.4842320000000 1.0
C      1  0.5209170000000  0.4578810000000  0.5164410000000 1.0
C      1  0.4818830000000  0.5510490000000  0.4827560000000 1.0
C      1  0.4710340000000  0.4447200000000  0.5158790000000 1.0
C      1  0.5281900000000  0.5507390000000  0.5153330000000 1.0
C      1  0.5208680000000  0.4579060000000  0.4836000000000 1.0
C      1  0.4815830000000  0.5511780000000  0.5177850000000 1.0
C      1  0.4709820000000  0.4447760000000  0.4841450000000 1.0
C      1  0.5275310000000  0.5253740000000  0.4043370000000 1.0
C      1  0.5303390000000  0.4740420000000  0.5985530000000 1.0
C      1  0.4763700000000  0.5237370000000  0.4078320000000 1.0
C      1  0.4768530000000  0.4744170000000  0.5912070000000 1.0
C      1  0.5275200000000  0.5253270000000  0.5958390000000 1.0
C      1  0.5302080000000  0.4739730000000  0.4015200000000 1.0
C      1  0.4761480000000  0.5233370000000  0.5925640000000 1.0
C      1  0.4768810000000  0.4747050000000  0.4088470000000 1.0
C      1  0.5148460000000  0.6203510000000  0.4845480000000 1.0
C      1  0.5168430000000  0.3795650000000  0.5148070000000 1.0
C      1  0.4855090000000  0.6211090000000  0.4793760000000 1.0
C      1  0.4880690000000  0.3770560000000  0.5193870000000 1.0
C      1  0.5133270000000  0.6167360000000  0.5137440000000 1.0
C      1  0.5167060000000  0.3797900000000  0.4852110000000 1.0
C      1  0.4845620000000  0.6191100000000  0.5180520000000 1.0
C      1  0.4879670000000  0.3772250000000  0.4806730000000 1.0
C      1  0.5522020000000  0.4956860000000  0.5000760000000 1.0
C      1  0.4601480000000  0.5146770000000  0.5001540000000 1.0
END
