TITL C-3577087-600-649 -1.59843821975822e-06 125000 -702.815280961561 0 0 114 (Ci) n - 1
REM
REM in /home/bkarasulu/work/CARBON/AIRSS/Generating-Clusters/EDIP-Nigel-Params/with-SteepDescent/Higher-Symm/SD-CG/HFTN-CG
REM
REM
REM
REM
REM
REM ./C.cell (12c818d87b63d06a65506943cc24bca4)
REM
REM compiler GCC version 9.2.1 20190827 (Red Hat 9.2.1-1)
REM options -cpp -mtune=generic -march=x86-64 -g -O0 -fpre-include=/usr/include/finclude/math-vector-fortran.h
REM seed -1201874805 384729585 -187302586 -494856994 1829359252 1039641229 2015169802 1250672625 -687257344 -1250968518 -462997456 -1711996010 487785357 1973706055 1165030837 -1407023323 229164228 703914258 756572581 286888792 -1294342934 -1887973387 -122305993 -257727307 1311902282 -960852644 1355898230 1448406637 -1234970304 1953173781 -1500223987 1162494854 -815471721
REM
CELL 1.54180   50.00000   50.00000   50.00000   90.00000   90.00000   90.00000
LATT -1
SFAC C  
C      1  0.5999080000000  0.4807190000000  0.5062950000000 1.0
C      1  0.3996660000000  0.4811460000000  0.4959660000000 1.0
C      1  0.5990490000000  0.4984340000000  0.4824890000000 1.0
C      1  0.4000920000000  0.5192810000000  0.4937050000000 1.0
C      1  0.6003340000000  0.5188540000000  0.5040340000000 1.0
C      1  0.4009510000000  0.5015660000000  0.5175110000000 1.0
C      1  0.4906680000000  0.4445090000000  0.5054110000000 1.0
C      1  0.5170630000000  0.4500570000000  0.4383190000000 1.0
C      1  0.4916290000000  0.5173490000000  0.4307970000000 1.0
C      1  0.5093320000000  0.5554910000000  0.4945890000000 1.0
C      1  0.4829370000000  0.5499430000000  0.5616810000000 1.0
C      1  0.5083710000000  0.4826510000000  0.5692030000000 1.0
C      1  0.5644770000000  0.5498160000000  0.5318000000000 1.0
C      1  0.4326100000000  0.4994990000000  0.5605260000000 1.0
C      1  0.5618230000000  0.4483750000000  0.5268410000000 1.0
C      1  0.4355230000000  0.4501840000000  0.4682000000000 1.0
C      1  0.5673900000000  0.5005010000000  0.4394740000000 1.0
C      1  0.4381770000000  0.5516250000000  0.4731590000000 1.0
C      1  0.5721510000000  0.5269930000000  0.5089860000000 1.0
C      1  0.4292510000000  0.5021890000000  0.5294760000000 1.0
C      1  0.5714270000000  0.4761040000000  0.5139760000000 1.0
C      1  0.4278490000000  0.4730070000000  0.4910140000000 1.0
C      1  0.5707490000000  0.4978110000000  0.4705240000000 1.0
C      1  0.4285730000000  0.5238960000000  0.4860240000000 1.0
C      1  0.5224840000000  0.4402600000000  0.4649520000000 1.0
C      1  0.4811040000000  0.4918700000000  0.4202260000000 1.0
C      1  0.5263930000000  0.5574960000000  0.4546300000000 1.0
C      1  0.4775160000000  0.5597400000000  0.5350480000000 1.0
C      1  0.5188960000000  0.5081300000000  0.5797740000000 1.0
C      1  0.4736070000000  0.4425040000000  0.5453700000000 1.0
C      1  0.5079910000000  0.4611670000000  0.4831550000000 1.0
C      1  0.4916170000000  0.4834010000000  0.4670290000000 1.0
C      1  0.5079620000000  0.5084870000000  0.4584610000000 1.0
C      1  0.4920090000000  0.5388330000000  0.5168450000000 1.0
C      1  0.5083830000000  0.5165990000000  0.5329710000000 1.0
C      1  0.4920380000000  0.4915130000000  0.5415390000000 1.0
C      1  0.5571080000000  0.4745340000000  0.4871570000000 1.0
C      1  0.4411720000000  0.4963410000000  0.4774200000000 1.0
C      1  0.5584490000000  0.5240970000000  0.4807840000000 1.0
C      1  0.4428920000000  0.5254660000000  0.5128430000000 1.0
C      1  0.5588280000000  0.5036590000000  0.5225800000000 1.0
C      1  0.4415510000000  0.4759030000000  0.5192160000000 1.0
C      1  0.5446170000000  0.4552210000000  0.4298750000000 1.0
C      1  0.4649550000000  0.5302260000000  0.4358640000000 1.0
C      1  0.5398830000000  0.5612250000000  0.4966780000000 1.0
C      1  0.4553830000000  0.5447790000000  0.5701250000000 1.0
C      1  0.5350450000000  0.4697740000000  0.5641360000000 1.0
C      1  0.4601170000000  0.4387750000000  0.5033220000000 1.0
C      1  0.4886540000000  0.5871010000000  0.5336780000000 1.0
C      1  0.5038600000000  0.5219380000000  0.6002750000000 1.0
C      1  0.4888170000000  0.4261130000000  0.5667290000000 1.0
C      1  0.5113460000000  0.4128990000000  0.4663220000000 1.0
C      1  0.4961400000000  0.4780620000000  0.3997250000000 1.0
C      1  0.5111830000000  0.5738870000000  0.4332710000000 1.0
C      1  0.5382720000000  0.4480750000000  0.5454900000000 1.0
C      1  0.4507700000000  0.4269280000000  0.4785740000000 1.0
C      1  0.5474000000000  0.4839790000000  0.4245780000000 1.0
C      1  0.4617280000000  0.5519250000000  0.4545100000000 1.0
C      1  0.5492300000000  0.5730720000000  0.5214260000000 1.0
C      1  0.4526000000000  0.5160210000000  0.5754220000000 1.0
C      1  0.4901480000000  0.5921220000000  0.4602260000000 1.0
C      1  0.5153510000000  0.5864020000000  0.5622350000000 1.0
C      1  0.4837560000000  0.4905770000000  0.6118290000000 1.0
C      1  0.5098520000000  0.4078780000000  0.5397740000000 1.0
C      1  0.4846490000000  0.4135980000000  0.4377650000000 1.0
C      1  0.5162440000000  0.5094230000000  0.3881710000000 1.0
C      1  0.4963710000000  0.5835630000000  0.4870110000000 1.0
C      1  0.5008590000000  0.5662480000000  0.5770410000000 1.0
C      1  0.4968260000000  0.4703730000000  0.5957170000000 1.0
C      1  0.5036290000000  0.4164370000000  0.5129890000000 1.0
C      1  0.4991410000000  0.4337520000000  0.4229590000000 1.0
C      1  0.5031740000000  0.5296270000000  0.4042830000000 1.0
C      1  0.5505030000000  0.5663400000000  0.4692400000000 1.0
C      1  0.4408510000000  0.5587820000000  0.5487440000000 1.0
C      1  0.5558920000000  0.4876840000000  0.5666200000000 1.0
C      1  0.4494970000000  0.4336600000000  0.5307600000000 1.0
C      1  0.5591490000000  0.4412180000000  0.4512560000000 1.0
C      1  0.4441080000000  0.5123160000000  0.4333800000000 1.0
C      1  0.4303420000000  0.4551460000000  0.5385880000000 1.0
C      1  0.5631380000000  0.4474560000000  0.4786800000000 1.0
C      1  0.4361140000000  0.4911970000000  0.4489560000000 1.0
C      1  0.5696580000000  0.5448540000000  0.4614120000000 1.0
C      1  0.4368620000000  0.5525440000000  0.5213200000000 1.0
C      1  0.5638860000000  0.5088030000000  0.5510440000000 1.0
C      1  0.5626860000000  0.5301710000000  0.4359670000000 1.0
C      1  0.4380060000000  0.5698500000000  0.4974960000000 1.0
C      1  0.5526830000000  0.5353940000000  0.5558220000000 1.0
C      1  0.4373140000000  0.4698290000000  0.5640330000000 1.0
C      1  0.5619940000000  0.4301500000000  0.5025040000000 1.0
C      1  0.4473170000000  0.4646060000000  0.4441780000000 1.0
C      1  0.5144780000000  0.5492800000000  0.5948640000000 1.0
C      1  0.4785820000000  0.4488750000000  0.5885670000000 1.0
C      1  0.5197300000000  0.4028430000000  0.4929150000000 1.0
C      1  0.4855220000000  0.4507200000000  0.4051360000000 1.0
C      1  0.5214180000000  0.5511250000000  0.4114330000000 1.0
C      1  0.4802700000000  0.5971570000000  0.5070850000000 1.0
C      1  0.5468760000000  0.4064340000000  0.4997720000000 1.0
C      1  0.4775910000000  0.4685400000000  0.4388120000000 1.0
C      1  0.5337330000000  0.5359820000000  0.4354880000000 1.0
C      1  0.4531240000000  0.5935660000000  0.5002280000000 1.0
C      1  0.5224090000000  0.5314600000000  0.5611880000000 1.0
C      1  0.4662670000000  0.4640180000000  0.5645120000000 1.0
C      1  0.4731900000000  0.4168310000000  0.4632990000000 1.0
C      1  0.5332750000000  0.4898360000000  0.3997480000000 1.0
C      1  0.4747170000000  0.5752660000000  0.4438900000000 1.0
C      1  0.5268100000000  0.5831690000000  0.5367010000000 1.0
C      1  0.4667250000000  0.5101640000000  0.6002520000000 1.0
C      1  0.5252830000000  0.4247340000000  0.5561100000000 1.0
C      1  0.4716820000000  0.4949460000000  0.4901550000000 1.0
C      1  0.5243110000000  0.5228280000000  0.4819750000000 1.0
C      1  0.4713490000000  0.5223270000000  0.5034780000000 1.0
C      1  0.5283180000000  0.5050540000000  0.5098450000000 1.0
C      1  0.4756890000000  0.4771720000000  0.5180250000000 1.0
C      1  0.5286510000000  0.4776730000000  0.4965220000000 1.0
END
