TITL C-3577083-591-166 1.89227040380249e-06 125000 -529.290692065097 0 0 87 (C1) n - 1
REM
REM in /home/bkarasulu/work/CARBON/AIRSS/Generating-Clusters/EDIP-Nigel-Params/with-SteepDescent/Higher-Symm/SD-CG/HFTN-CG
REM
REM
REM
REM
REM
REM ./C.cell (12c818d87b63d06a65506943cc24bca4)
REM
REM compiler GCC version 9.2.1 20190827 (Red Hat 9.2.1-1)
REM options -cpp -mtune=generic -march=x86-64 -g -O0 -fpre-include=/usr/include/finclude/math-vector-fortran.h
REM seed 328242261 1445647550 -786614632 -2126159199 70997348 -32049597 -158243979 -1903475254 374209660 -485478975 -1086694677 -1689659573 -549468661 704978396 -838995482 -1899079872 -701762903 -1313384810 -1325175873 2131368323 -782328523 -2112552153 -1111709064 953286965 -1802960402 -455455307 1675151086 -197795334 -1416384166 -1018614278 -674123883 -2093675840 762593858
REM
CELL 1.54180   50.00000   50.00000   50.00000   90.00000   90.00000   90.00000
LATT -1
SFAC C  
C      1  0.5562100000000  0.4573530000000  0.4235470000000 1.0
C      1  0.5384140000000  0.5286880000000  0.5763030000000 1.0
C      1  0.4735070000000  0.4691660000000  0.4155570000000 1.0
C      1  0.4479740000000  0.5377380000000  0.5780890000000 1.0
C      1  0.5531750000000  0.4703090000000  0.5675950000000 1.0
C      1  0.5300840000000  0.5278910000000  0.4133710000000 1.0
C      1  0.4481590000000  0.4617150000000  0.5811230000000 1.0
C      1  0.4447730000000  0.5371580000000  0.4282740000000 1.0
C      1  0.5223540000000  0.4780050000000  0.4296310000000 1.0
C      1  0.5219560000000  0.5084360000000  0.5628800000000 1.0
C      1  0.4987390000000  0.4847180000000  0.4110890000000 1.0
C      1  0.4917580000000  0.5164090000000  0.5631790000000 1.0
C      1  0.5074920000000  0.4804590000000  0.5849170000000 1.0
C      1  0.5054590000000  0.5208070000000  0.4008340000000 1.0
C      1  0.4830150000000  0.4887310000000  0.5700900000000 1.0
C      1  0.4829760000000  0.5192410000000  0.4185340000000 1.0
C      1  0.5247450000000  0.5383560000000  0.4398130000000 1.0
C      1  0.5245130000000  0.4648550000000  0.5686270000000 1.0
C      1  0.4640110000000  0.5559130000000  0.4341880000000 1.0
C      1  0.4640070000000  0.4436840000000  0.5681670000000 1.0
C      1  0.5276030000000  0.5542890000000  0.5789040000000 1.0
C      1  0.5330210000000  0.4416490000000  0.4228820000000 1.0
C      1  0.4621900000000  0.5598640000000  0.5712630000000 1.0
C      1  0.4759130000000  0.4449670000000  0.4294430000000 1.0
C      1  0.5607410000000  0.4835580000000  0.4160990000000 1.0
C      1  0.5606050000000  0.5182470000000  0.5893350000000 1.0
C      1  0.4509090000000  0.4855610000000  0.4192090000000 1.0
C      1  0.4439630000000  0.5116570000000  0.5840080000000 1.0
C      1  0.5626140000000  0.4920890000000  0.5826990000000 1.0
C      1  0.5493320000000  0.5078040000000  0.4124600000000 1.0
C      1  0.4579040000000  0.4875800000000  0.5852160000000 1.0
C      1  0.4405810000000  0.5103190000000  0.4242240000000 1.0
C      1  0.5263910000000  0.5763510000000  0.4693270000000 1.0
C      1  0.5263210000000  0.4341200000000  0.5291900000000 1.0
C      1  0.4798380000000  0.5856180000000  0.4718840000000 1.0
C      1  0.4816960000000  0.4193820000000  0.5269620000000 1.0
C      1  0.5212000000000  0.5589710000000  0.5300870000000 1.0
C      1  0.5306500000000  0.4148260000000  0.4666200000000 1.0
C      1  0.4792340000000  0.5801980000000  0.5301390000000 1.0
C      1  0.4827180000000  0.4150690000000  0.4691840000000 1.0
C      1  0.5195000000000  0.4277000000000  0.4436780000000 1.0
C      1  0.5095280000000  0.5563280000000  0.5570160000000 1.0
C      1  0.4908630000000  0.4272070000000  0.4448800000000 1.0
C      1  0.4843420000000  0.5725130000000  0.5587930000000 1.0
C      1  0.5124540000000  0.4439680000000  0.5524230000000 1.0
C      1  0.5136420000000  0.5643110000000  0.4467460000000 1.0
C      1  0.4857210000000  0.4319470000000  0.5540420000000 1.0
C      1  0.4844650000000  0.5689340000000  0.4489910000000 1.0
C      1  0.5156890000000  0.4864170000000  0.4587740000000 1.0
C      1  0.5271870000000  0.5044580000000  0.5323790000000 1.0
C      1  0.4867570000000  0.4909030000000  0.4583710000000 1.0
C      1  0.4803170000000  0.5282700000000  0.5387990000000 1.0
C      1  0.5033500000000  0.4865370000000  0.5239080000000 1.0
C      1  0.5271000000000  0.5136980000000  0.4677170000000 1.0
C      1  0.4811880000000  0.4737520000000  0.5425510000000 1.0
C      1  0.4777230000000  0.5160660000000  0.4474650000000 1.0
C      1  0.4360490000000  0.5359430000000  0.4884330000000 1.0
C      1  0.4489340000000  0.4572270000000  0.5088630000000 1.0
C      1  0.5671590000000  0.5344320000000  0.4837090000000 1.0
C      1  0.5499080000000  0.4498620000000  0.5197220000000 1.0
C      1  0.4401340000000  0.5506930000000  0.5143370000000 1.0
C      1  0.4498450000000  0.4729380000000  0.4838480000000 1.0
C      1  0.5591090000000  0.5351150000000  0.5105490000000 1.0
C      1  0.5468120000000  0.4643320000000  0.4932030000000 1.0
C      1  0.4703740000000  0.5546100000000  0.5152640000000 1.0
C      1  0.4770470000000  0.4875910000000  0.4854140000000 1.0
C      1  0.5290670000000  0.5323580000000  0.5157930000000 1.0
C      1  0.5201210000000  0.4659990000000  0.4808610000000 1.0
C      1  0.4641790000000  0.5336220000000  0.4773740000000 1.0
C      1  0.4774280000000  0.4475820000000  0.5134210000000 1.0
C      1  0.5116670000000  0.5249920000000  0.4917120000000 1.0
C      1  0.4969120000000  0.4699060000000  0.5000630000000 1.0
C      1  0.4524750000000  0.4780380000000  0.5302830000000 1.0
C      1  0.4275250000000  0.5085240000000  0.4975710000000 1.0
C      1  0.5641510000000  0.4684510000000  0.5399880000000 1.0
C      1  0.5561330000000  0.5106950000000  0.4737220000000 1.0
C      1  0.4269360000000  0.4884800000000  0.4780400000000 1.0
C      1  0.4499940000000  0.5277540000000  0.5354880000000 1.0
C      1  0.5639460000000  0.4870510000000  0.4882740000000 1.0
C      1  0.5734430000000  0.5172390000000  0.5276120000000 1.0
C      1  0.5058300000000  0.5805780000000  0.5158130000000 1.0
C      1  0.5043740000000  0.5819540000000  0.4862370000000 1.0
C      1  0.5074300000000  0.4128370000000  0.4834650000000 1.0
C      1  0.5084100000000  0.4161940000000  0.5130420000000 1.0
C      1  0.4500430000000  0.5044950000000  0.5168940000000 1.0
C      1  0.5562170000000  0.4936980000000  0.5249100000000 1.0
C      1  0.4811640000000  0.5175070000000  0.4965000000000 1.0
END
