TITL C-3577077-324-321 -1.02249731907505e-06 125000 -934.787247399835 0 0 149 (C1) n - 1
REM
REM in /home/bkarasulu/work/CARBON/AIRSS/Generating-Clusters/EDIP-Nigel-Params/with-SteepDescent/Higher-Symm/SD-CG/HFTN-CG
REM
REM
REM
REM
REM
REM ./C.cell (12c818d87b63d06a65506943cc24bca4)
REM
REM compiler GCC version 9.2.1 20190827 (Red Hat 9.2.1-1)
REM options -cpp -mtune=generic -march=x86-64 -g -O0 -fpre-include=/usr/include/finclude/math-vector-fortran.h
REM seed -1686423276 867292810 -1323929561 -382191137 -899142321 -1075019224 1392861026 2100238758 1417458452 -1548116273 1578076888 1356740430 550066754 438998697 -1123691520 1718076473 -448079852 1702277346 1229027324 -1200542975 1412303113 -706167593 1382746181 448952197 2094629576 119237420 -1709552101 1195829888 -1213052465 1999903802 -696565463 -14029807 1714319947
REM
CELL 1.54180   50.00000   50.00000   50.00000   90.00000   90.00000   90.00000
LATT -1
SFAC C  
C      1  0.5618410000000  0.4519900000000  0.4456050000000 1.0
C      1  0.4348570000000  0.4530760000000  0.4504640000000 1.0
C      1  0.5585870000000  0.4616910000000  0.5288630000000 1.0
C      1  0.4399390000000  0.4622840000000  0.5279590000000 1.0
C      1  0.5820120000000  0.5610760000000  0.4694090000000 1.0
C      1  0.4212790000000  0.5590060000000  0.4677500000000 1.0
C      1  0.4380210000000  0.4198710000000  0.5527730000000 1.0
C      1  0.5611110000000  0.4161510000000  0.5511110000000 1.0
C      1  0.5141100000000  0.5143110000000  0.4587730000000 1.0
C      1  0.4881520000000  0.5128280000000  0.4515950000000 1.0
C      1  0.4846920000000  0.4585650000000  0.5516170000000 1.0
C      1  0.5156530000000  0.4587250000000  0.5515970000000 1.0
C      1  0.5876810000000  0.5010450000000  0.5280780000000 1.0
C      1  0.4085340000000  0.4998150000000  0.5246520000000 1.0
C      1  0.4518050000000  0.4106470000000  0.5031820000000 1.0
C      1  0.5577650000000  0.4081990000000  0.4988360000000 1.0
C      1  0.5332500000000  0.5284320000000  0.5019760000000 1.0
C      1  0.4570620000000  0.5324880000000  0.5080560000000 1.0
C      1  0.5087840000000  0.4595450000000  0.3884530000000 1.0
C      1  0.4821950000000  0.4561670000000  0.3892450000000 1.0
C      1  0.5520940000000  0.5868660000000  0.5009080000000 1.0
C      1  0.4421010000000  0.5871090000000  0.5035370000000 1.0
C      1  0.5654990000000  0.4936540000000  0.5721760000000 1.0
C      1  0.4260270000000  0.4955180000000  0.5716110000000 1.0
C      1  0.4084540000000  0.5341380000000  0.4594000000000 1.0
C      1  0.5979850000000  0.5369130000000  0.4630770000000 1.0
C      1  0.5579430000000  0.5107410000000  0.5966650000000 1.0
C      1  0.4419350000000  0.5146220000000  0.5903910000000 1.0
C      1  0.5287880000000  0.5104770000000  0.6038360000000 1.0
C      1  0.4702690000000  0.5115640000000  0.5999420000000 1.0
C      1  0.5289250000000  0.4909970000000  0.4621280000000 1.0
C      1  0.4737920000000  0.4911660000000  0.4609190000000 1.0
C      1  0.4181320000000  0.5274620000000  0.4327730000000 1.0
C      1  0.5902160000000  0.5270880000000  0.4363180000000 1.0
C      1  0.5161780000000  0.5942470000000  0.5425840000000 1.0
C      1  0.4847360000000  0.5956830000000  0.5452070000000 1.0
C      1  0.4614170000000  0.5140830000000  0.4059420000000 1.0
C      1  0.5337750000000  0.5227840000000  0.4015570000000 1.0
C      1  0.4455420000000  0.4414580000000  0.5723100000000 1.0
C      1  0.5540720000000  0.4380330000000  0.5716290000000 1.0
C      1  0.5643120000000  0.5364310000000  0.5460680000000 1.0
C      1  0.4330620000000  0.5355080000000  0.5403300000000 1.0
C      1  0.5956040000000  0.4808510000000  0.4716780000000 1.0
C      1  0.4003270000000  0.4855060000000  0.4684760000000 1.0
C      1  0.5261630000000  0.5780630000000  0.5174090000000 1.0
C      1  0.4719390000000  0.5810480000000  0.5218310000000 1.0
C      1  0.4707090000000  0.4576510000000  0.5237620000000 1.0
C      1  0.5281330000000  0.4561480000000  0.5244300000000 1.0
C      1  0.4837560000000  0.4446120000000  0.4399870000000 1.0
C      1  0.5176600000000  0.4350300000000  0.4244830000000 1.0
C      1  0.4392460000000  0.4683030000000  0.5581650000000 1.0
C      1  0.5624390000000  0.4648470000000  0.5591380000000 1.0
C      1  0.5156960000000  0.4866580000000  0.5902670000000 1.0
C      1  0.4846680000000  0.4864940000000  0.5901110000000 1.0
C      1  0.4845180000000  0.5240870000000  0.3927210000000 1.0
C      1  0.5077370000000  0.5364070000000  0.4042270000000 1.0
C      1  0.4178390000000  0.4426460000000  0.5206690000000 1.0
C      1  0.5788180000000  0.4416210000000  0.5196780000000 1.0
C      1  0.5204760000000  0.3961470000000  0.5191080000000 1.0
C      1  0.4919320000000  0.4021060000000  0.5207180000000 1.0
C      1  0.5168410000000  0.4687190000000  0.4774960000000 1.0
C      1  0.4851260000000  0.4631420000000  0.4659380000000 1.0
C      1  0.4752740000000  0.5517600000000  0.5684550000000 1.0
C      1  0.5279760000000  0.5523520000000  0.5720340000000 1.0
C      1  0.4783330000000  0.4020880000000  0.4954340000000 1.0
C      1  0.5318700000000  0.3949770000000  0.4896560000000 1.0
C      1  0.5156680000000  0.4552400000000  0.5992520000000 1.0
C      1  0.4847390000000  0.4557180000000  0.5995470000000 1.0
C      1  0.4381650000000  0.4310610000000  0.4828150000000 1.0
C      1  0.5660930000000  0.4302480000000  0.4789660000000 1.0
C      1  0.4579040000000  0.5019060000000  0.5512140000000 1.0
C      1  0.5353180000000  0.5100360000000  0.5451920000000 1.0
C      1  0.5643770000000  0.4878650000000  0.5143480000000 1.0
C      1  0.4344600000000  0.4880880000000  0.5137370000000 1.0
C      1  0.4599010000000  0.5034060000000  0.5205090000000 1.0
C      1  0.5363640000000  0.5020790000000  0.5158740000000 1.0
C      1  0.4017990000000  0.5212290000000  0.5060080000000 1.0
C      1  0.5963150000000  0.5236620000000  0.5114490000000 1.0
C      1  0.5235190000000  0.4861920000000  0.5614460000000 1.0
C      1  0.4793610000000  0.4856710000000  0.5616680000000 1.0
C      1  0.5326810000000  0.5943700000000  0.4767860000000 1.0
C      1  0.4610650000000  0.5964660000000  0.4817320000000 1.0
C      1  0.4583690000000  0.4623240000000  0.4021460000000 1.0
C      1  0.5318030000000  0.4694640000000  0.4003570000000 1.0
C      1  0.5705570000000  0.5483180000000  0.4249690000000 1.0
C      1  0.4365990000000  0.5511060000000  0.4246770000000 1.0
C      1  0.5787070000000  0.5118920000000  0.5535020000000 1.0
C      1  0.4151750000000  0.5129900000000  0.5498790000000 1.0
C      1  0.4748100000000  0.4410230000000  0.5752540000000 1.0
C      1  0.5245990000000  0.4400800000000  0.5746790000000 1.0
C      1  0.4333350000000  0.5414740000000  0.5887250000000 1.0
C      1  0.5671380000000  0.5375160000000  0.5939140000000 1.0
C      1  0.5205340000000  0.4172510000000  0.4719970000000 1.0
C      1  0.4900540000000  0.4204100000000  0.4772940000000 1.0
C      1  0.5693950000000  0.4829510000000  0.4854580000000 1.0
C      1  0.4352660000000  0.4814360000000  0.4843500000000 1.0
C      1  0.4830750000000  0.4160420000000  0.4487070000000 1.0
C      1  0.5133000000000  0.4117880000000  0.4410060000000 1.0
C      1  0.5438450000000  0.4152320000000  0.5266650000000 1.0
C      1  0.4584420000000  0.4161550000000  0.5320510000000 1.0
C      1  0.5682120000000  0.5616720000000  0.4960700000000 1.0
C      1  0.4278980000000  0.5630770000000  0.4963100000000 1.0
C      1  0.5878760000000  0.4431560000000  0.4929580000000 1.0
C      1  0.4123700000000  0.4361860000000  0.4940330000000 1.0
C      1  0.5295080000000  0.5490570000000  0.5221260000000 1.0
C      1  0.4783380000000  0.5505770000000  0.5194540000000 1.0
C      1  0.4737170000000  0.5381390000000  0.4518350000000 1.0
C      1  0.5290480000000  0.5369070000000  0.4488560000000 1.0
C      1  0.4468330000000  0.5022640000000  0.4648570000000 1.0
C      1  0.5559780000000  0.5022230000000  0.4672600000000 1.0
C      1  0.5366200000000  0.4437180000000  0.4737470000000 1.0
C      1  0.4551380000000  0.4572760000000  0.4829350000000 1.0
C      1  0.5864110000000  0.4216490000000  0.5388090000000 1.0
C      1  0.4125370000000  0.4239620000000  0.5410120000000 1.0
C      1  0.5170340000000  0.5804830000000  0.5708960000000 1.0
C      1  0.4858870000000  0.5801970000000  0.5713090000000 1.0
C      1  0.4869250000000  0.5883330000000  0.4418170000000 1.0
C      1  0.5117670000000  0.5776310000000  0.4341200000000 1.0
C      1  0.5369240000000  0.5802330000000  0.4514010000000 1.0
C      1  0.4642540000000  0.5812030000000  0.4568970000000 1.0
C      1  0.5652880000000  0.5690940000000  0.4460650000000 1.0
C      1  0.4382000000000  0.5713400000000  0.4466680000000 1.0
C      1  0.5477700000000  0.5284250000000  0.4265780000000 1.0
C      1  0.4643720000000  0.5410340000000  0.4217420000000 1.0
C      1  0.4325890000000  0.5007420000000  0.4369350000000 1.0
C      1  0.5714740000000  0.5014260000000  0.4403600000000 1.0
C      1  0.4162830000000  0.5456040000000  0.5165840000000 1.0
C      1  0.5801790000000  0.5472500000000  0.5203930000000 1.0
C      1  0.5579920000000  0.5516060000000  0.5713910000000 1.0
C      1  0.4446620000000  0.5506720000000  0.5647490000000 1.0
C      1  0.5840130000000  0.4735200000000  0.4445330000000 1.0
C      1  0.4156650000000  0.4765390000000  0.4451700000000 1.0
C      1  0.4838530000000  0.4825230000000  0.5127960000000 1.0
C      1  0.5148990000000  0.4779390000000  0.5074070000000 1.0
C      1  0.4849840000000  0.5970530000000  0.4989900000000 1.0
C      1  0.5090430000000  0.5835850000000  0.4920560000000 1.0
C      1  0.4505660000000  0.4889350000000  0.3991820000000 1.0
C      1  0.5364810000000  0.4961190000000  0.3945290000000 1.0
C      1  0.5988140000000  0.5158980000000  0.4831400000000 1.0
C      1  0.4044820000000  0.5127690000000  0.4781050000000 1.0
C      1  0.5153700000000  0.5361470000000  0.5952070000000 1.0
C      1  0.4855180000000  0.5361840000000  0.5931410000000 1.0
C      1  0.5187900000000  0.5373380000000  0.5467880000000 1.0
C      1  0.4884390000000  0.5385540000000  0.5444970000000 1.0
C      1  0.4497630000000  0.5328890000000  0.4750260000000 1.0
C      1  0.5495400000000  0.5328880000000  0.4777350000000 1.0
C      1  0.4565030000000  0.4501140000000  0.4289180000000 1.0
C      1  0.5396920000000  0.4536130000000  0.4243280000000 1.0
C      1  0.5053950000000  0.5488730000000  0.4318960000000 1.0
END
