TITL C-3578203-1966-153 -3.47112984403531e-06 125000 -370.485051270655 0 0 63 (C1) n - 1
REM
REM in /home/bkarasulu/work/CARBON/AIRSS/Generating-Clusters/EDIP-Nigel-Params/with-SteepDescent/Higher-Symm/SD-CG/HFTN-CG
REM
REM
REM
REM
REM
REM ./C.cell (12c818d87b63d06a65506943cc24bca4)
REM
REM compiler GCC version 9.2.1 20190827 (Red Hat 9.2.1-1)
REM options -cpp -mtune=generic -march=x86-64 -g -O0 -fpre-include=/usr/include/finclude/math-vector-fortran.h
REM seed -1426627504 -768246812 -1361187401 -306737271 238501983 -893799088 1552706009 -886058426 2096373152 1974899975 -314761192 -1879534140 526266618 -1857216983 1822333610 1272493965 -380023855 -1420983385 1348489233 105074046 -770872867 -31180418 475823634 -15066973 1809005467 -2110662320 -1201353530 24940761 -1853976533 -238216709 995516270 908074940 300093669
REM
CELL 1.54180   50.00000   50.00000   50.00000   90.00000   90.00000   90.00000
LATT -1
SFAC C  
C      1  0.5726630000000  0.4549470000000  0.4713620000000 1.0
C      1  0.5045490000000  0.5841010000000  0.4757840000000 1.0
C      1  0.4245520000000  0.4569970000000  0.4707750000000 1.0
C      1  0.4760550000000  0.5382080000000  0.4553350000000 1.0
C      1  0.4783810000000  0.4591770000000  0.4525830000000 1.0
C      1  0.5468420000000  0.5013570000000  0.4514890000000 1.0
C      1  0.4676120000000  0.4453910000000  0.5345380000000 1.0
C      1  0.5677740000000  0.4941920000000  0.5337690000000 1.0
C      1  0.4681020000000  0.5626990000000  0.5367410000000 1.0
C      1  0.5739990000000  0.5371450000000  0.5158710000000 1.0
C      1  0.4308880000000  0.5380790000000  0.5221830000000 1.0
C      1  0.5031970000000  0.4224460000000  0.5127070000000 1.0
C      1  0.4355190000000  0.5124690000000  0.5115470000000 1.0
C      1  0.5199000000000  0.4450060000000  0.5106730000000 1.0
C      1  0.5480160000000  0.5447960000000  0.5084660000000 1.0
C      1  0.4761770000000  0.5087320000000  0.4505100000000 1.0
C      1  0.5037660000000  0.4741960000000  0.4480920000000 1.0
C      1  0.5201420000000  0.5152410000000  0.4494440000000 1.0
C      1  0.4938050000000  0.5331380000000  0.5684680000000 1.0
C      1  0.4728880000000  0.4830770000000  0.5671620000000 1.0
C      1  0.5282180000000  0.4904030000000  0.5672140000000 1.0
C      1  0.4624310000000  0.4951900000000  0.4729500000000 1.0
C      1  0.5212100000000  0.4715880000000  0.4717280000000 1.0
C      1  0.5160550000000  0.5315180000000  0.4738420000000 1.0
C      1  0.5197960000000  0.4720860000000  0.4240170000000 1.0
C      1  0.5128790000000  0.5310880000000  0.4261400000000 1.0
C      1  0.4670970000000  0.4967290000000  0.4256410000000 1.0
C      1  0.4613900000000  0.5133270000000  0.4965660000000 1.0
C      1  0.5050190000000  0.4664870000000  0.4965500000000 1.0
C      1  0.5345410000000  0.5216610000000  0.4955350000000 1.0
C      1  0.5538680000000  0.4715790000000  0.5011140000000 1.0
C      1  0.4956430000000  0.5573510000000  0.5027440000000 1.0
C      1  0.4478040000000  0.4650190000000  0.5008790000000 1.0
C      1  0.5347940000000  0.5217110000000  0.5438060000000 1.0
C      1  0.4678020000000  0.5240490000000  0.5406950000000 1.0
C      1  0.4984210000000  0.4669320000000  0.5424130000000 1.0
C      1  0.4697670000000  0.5126580000000  0.5682300000000 1.0
C      1  0.5033940000000  0.4741040000000  0.5707860000000 1.0
C      1  0.5209960000000  0.5203090000000  0.5697200000000 1.0
C      1  0.4772200000000  0.4334860000000  0.5094280000000 1.0
C      1  0.5747620000000  0.5093830000000  0.5105110000000 1.0
C      1  0.4521860000000  0.5548860000000  0.5136330000000 1.0
C      1  0.4763400000000  0.4555500000000  0.4873940000000 1.0
C      1  0.5559950000000  0.5013220000000  0.4855240000000 1.0
C      1  0.4690030000000  0.5431080000000  0.4894740000000 1.0
C      1  0.4937810000000  0.5863050000000  0.5008060000000 1.0
C      1  0.4256940000000  0.4470820000000  0.4962770000000 1.0
C      1  0.5777660000000  0.4551670000000  0.4981510000000 1.0
C      1  0.5465000000000  0.4579900000000  0.4598350000000 1.0
C      1  0.5139630000000  0.5600460000000  0.4628220000000 1.0
C      1  0.4396270000000  0.4792170000000  0.4599650000000 1.0
C      1  0.5231670000000  0.5087490000000  0.5194990000000 1.0
C      1  0.4788050000000  0.5062160000000  0.5186910000000 1.0
C      1  0.5019060000000  0.4881400000000  0.5192510000000 1.0
C      1  0.4949530000000  0.5558330000000  0.5468790000000 1.0
C      1  0.4552620000000  0.4710240000000  0.5437280000000 1.0
C      1  0.5454030000000  0.4790310000000  0.5436420000000 1.0
C      1  0.4561230000000  0.4719810000000  0.4358950000000 1.0
C      1  0.5461950000000  0.4751890000000  0.4353520000000 1.0
C      1  0.4977690000000  0.5520290000000  0.4391020000000 1.0
C      1  0.5182030000000  0.5517020000000  0.5257200000000 1.0
C      1  0.4353350000000  0.4880740000000  0.5286000000000 1.0
C      1  0.5380890000000  0.4533070000000  0.5317520000000 1.0
END
