TITL C-3578202-4305-105 -2.34079150037436e-06 125000 -1100.89860256782 0 0 174 (Ci) n - 1
REM
REM in /home/bkarasulu/work/CARBON/AIRSS/Generating-Clusters/EDIP-Nigel-Params/with-SteepDescent/Higher-Symm/SD-CG/HFTN-CG
REM
REM
REM
REM
REM
REM ./C.cell (12c818d87b63d06a65506943cc24bca4)
REM
REM compiler GCC version 9.2.1 20190827 (Red Hat 9.2.1-1)
REM options -cpp -mtune=generic -march=x86-64 -g -O0 -fpre-include=/usr/include/finclude/math-vector-fortran.h
REM seed -1769565416 -251254361 278423383 460437413 1466778864 1640779866 -1069010955 830119399 1432635147 2143020299 -313588429 449786938 2064869250 -1889087572 87003069 536720566 -1395010995 -543618730 -1322679293 1587876974 1158312464 -561762315 -335563865 -1741626918 1437792336 460257298 507508445 -2095364020 -528483244 1315298486 -887174860 -1004685324 1560263812
REM
CELL 1.54180   50.00000   50.00000   50.00000   90.00000   90.00000   90.00000
LATT -1
SFAC C  
C      1  0.4666380000000  0.5474140000000  0.4061480000000 1.0
C      1  0.5333620000000  0.4525860000000  0.5938520000000 1.0
C      1  0.4085090000000  0.4951150000000  0.4591920000000 1.0
C      1  0.5914910000000  0.5048850000000  0.5408080000000 1.0
C      1  0.4352250000000  0.4584140000000  0.5192260000000 1.0
C      1  0.5647750000000  0.5415860000000  0.4807740000000 1.0
C      1  0.6084720000000  0.4799840000000  0.4897490000000 1.0
C      1  0.3915280000000  0.5200160000000  0.5102510000000 1.0
C      1  0.4587540000000  0.5691290000000  0.5635380000000 1.0
C      1  0.5412460000000  0.4308710000000  0.4364620000000 1.0
C      1  0.4697200000000  0.5703210000000  0.4229500000000 1.0
C      1  0.5302800000000  0.4296790000000  0.5770500000000 1.0
C      1  0.5051450000000  0.5261500000000  0.5086020000000 1.0
C      1  0.4948550000000  0.4738500000000  0.4913980000000 1.0
C      1  0.4446340000000  0.4723270000000  0.6015050000000 1.0
C      1  0.5553660000000  0.5276730000000  0.3984950000000 1.0
C      1  0.4766390000000  0.4589130000000  0.4045560000000 1.0
C      1  0.5233610000000  0.5410870000000  0.5954440000000 1.0
C      1  0.5405500000000  0.4943370000000  0.4847670000000 1.0
C      1  0.4594500000000  0.5056630000000  0.5152330000000 1.0
C      1  0.5712030000000  0.5630880000000  0.5729440000000 1.0
C      1  0.4287970000000  0.4369120000000  0.4270560000000 1.0
C      1  0.4779620000000  0.5962950000000  0.4656300000000 1.0
C      1  0.5220380000000  0.4037050000000  0.5343700000000 1.0
C      1  0.4689370000000  0.5841100000000  0.5407100000000 1.0
C      1  0.5310630000000  0.4158900000000  0.4592900000000 1.0
C      1  0.5497110000000  0.5183300000000  0.4664620000000 1.0
C      1  0.4502890000000  0.4816700000000  0.5335380000000 1.0
C      1  0.4969050000000  0.4732990000000  0.3882810000000 1.0
C      1  0.5030950000000  0.5267010000000  0.6117190000000 1.0
C      1  0.5648790000000  0.5074790000000  0.4426260000000 1.0
C      1  0.4351210000000  0.4925210000000  0.5573740000000 1.0
C      1  0.5336570000000  0.5777610000000  0.5424940000000 1.0
C      1  0.4663430000000  0.4222390000000  0.4575060000000 1.0
C      1  0.4943640000000  0.4405910000000  0.5361290000000 1.0
C      1  0.5056360000000  0.5594090000000  0.4638710000000 1.0
C      1  0.3997690000000  0.5450480000000  0.5004440000000 1.0
C      1  0.6002310000000  0.4549520000000  0.4995560000000 1.0
C      1  0.4761040000000  0.5516450000000  0.4664820000000 1.0
C      1  0.5238960000000  0.4483550000000  0.5335180000000 1.0
C      1  0.4854220000000  0.4524250000000  0.6171100000000 1.0
C      1  0.5145780000000  0.5475750000000  0.3828900000000 1.0
C      1  0.5235050000000  0.5295560000000  0.4544040000000 1.0
C      1  0.4764950000000  0.4704440000000  0.5455960000000 1.0
C      1  0.4974920000000  0.4347130000000  0.4586060000000 1.0
C      1  0.5025080000000  0.5652870000000  0.5413940000000 1.0
C      1  0.5081680000000  0.4959910000000  0.6157820000000 1.0
C      1  0.4918320000000  0.5040090000000  0.3842180000000 1.0
C      1  0.4087860000000  0.4988900000000  0.5489160000000 1.0
C      1  0.5912140000000  0.5011100000000  0.4510840000000 1.0
C      1  0.4637470000000  0.4699590000000  0.4789240000000 1.0
C      1  0.5362530000000  0.5300410000000  0.5210760000000 1.0
C      1  0.5456170000000  0.5576790000000  0.4286810000000 1.0
C      1  0.4543830000000  0.4423210000000  0.5713190000000 1.0
C      1  0.4972890000000  0.3967850000000  0.4381110000000 1.0
C      1  0.5027110000000  0.6032150000000  0.5618890000000 1.0
C      1  0.4993350000000  0.4169960000000  0.4176690000000 1.0
C      1  0.5006650000000  0.5830040000000  0.5823310000000 1.0
C      1  0.5674840000000  0.4293960000000  0.5293250000000 1.0
C      1  0.4325160000000  0.5706040000000  0.4706750000000 1.0
C      1  0.4866410000000  0.4897390000000  0.5686170000000 1.0
C      1  0.5133590000000  0.5102610000000  0.4313830000000 1.0
C      1  0.4840490000000  0.5177920000000  0.5552610000000 1.0
C      1  0.5159510000000  0.4822080000000  0.4447390000000 1.0
C      1  0.4010380000000  0.4968240000000  0.5225410000000 1.0
C      1  0.5989620000000  0.5031760000000  0.4774590000000 1.0
C      1  0.4464520000000  0.5156300000000  0.4691530000000 1.0
C      1  0.5535480000000  0.4843700000000  0.5308470000000 1.0
C      1  0.4751540000000  0.5214710000000  0.4587400000000 1.0
C      1  0.5248460000000  0.4785290000000  0.5412600000000 1.0
C      1  0.5597620000000  0.5120930000000  0.5202840000000 1.0
C      1  0.4402380000000  0.4879070000000  0.4797160000000 1.0
C      1  0.4061390000000  0.4685160000000  0.4799900000000 1.0
C      1  0.5938610000000  0.5314840000000  0.5200100000000 1.0
C      1  0.4820160000000  0.5955520000000  0.4948050000000 1.0
C      1  0.5179840000000  0.4044480000000  0.5051950000000 1.0
C      1  0.4154420000000  0.5458470000000  0.4763530000000 1.0
C      1  0.5845580000000  0.4541530000000  0.5236470000000 1.0
C      1  0.5651980000000  0.5328830000000  0.4255460000000 1.0
C      1  0.4348020000000  0.4671170000000  0.5744540000000 1.0
C      1  0.5935840000000  0.5614920000000  0.5282330000000 1.0
C      1  0.4064160000000  0.4385080000000  0.4717670000000 1.0
C      1  0.5809800000000  0.4467080000000  0.4570990000000 1.0
C      1  0.4190200000000  0.5532920000000  0.5429010000000 1.0
C      1  0.5433410000000  0.5530630000000  0.5019570000000 1.0
C      1  0.4566590000000  0.4469370000000  0.4980430000000 1.0
C      1  0.5498050000000  0.5802020000000  0.5152480000000 1.0
C      1  0.4501950000000  0.4197980000000  0.4847520000000 1.0
C      1  0.5528320000000  0.4985510000000  0.5984470000000 1.0
C      1  0.4471680000000  0.5014490000000  0.4015530000000 1.0
C      1  0.4599620000000  0.5910710000000  0.5135760000000 1.0
C      1  0.5400380000000  0.4089290000000  0.4864240000000 1.0
C      1  0.4848760000000  0.4339160000000  0.5084610000000 1.0
C      1  0.5151240000000  0.5660840000000  0.4915390000000 1.0
C      1  0.5754840000000  0.4915210000000  0.5816070000000 1.0
C      1  0.4245160000000  0.5084790000000  0.4183930000000 1.0
C      1  0.4977820000000  0.4836270000000  0.5229020000000 1.0
C      1  0.5022180000000  0.5163730000000  0.4770980000000 1.0
C      1  0.4681170000000  0.4048050000000  0.5374030000000 1.0
C      1  0.5318830000000  0.5951950000000  0.4625970000000 1.0
C      1  0.4841200000000  0.4806710000000  0.6200780000000 1.0
C      1  0.5158800000000  0.5193290000000  0.3799220000000 1.0
C      1  0.5529240000000  0.5778660000000  0.4492240000000 1.0
C      1  0.4470760000000  0.4221340000000  0.5507760000000 1.0
C      1  0.4925700000000  0.4601310000000  0.4397020000000 1.0
C      1  0.5074300000000  0.5398690000000  0.5602980000000 1.0
C      1  0.5863590000000  0.5835760000000  0.4847720000000 1.0
C      1  0.4136410000000  0.4164240000000  0.5152280000000 1.0
C      1  0.5466980000000  0.5799200000000  0.5703830000000 1.0
C      1  0.4533020000000  0.4200800000000  0.4296170000000 1.0
C      1  0.4670860000000  0.3991490000000  0.5059340000000 1.0
C      1  0.5329140000000  0.6008510000000  0.4940660000000 1.0
C      1  0.4570100000000  0.5196210000000  0.5966980000000 1.0
C      1  0.5429900000000  0.4803790000000  0.4033020000000 1.0
C      1  0.5332970000000  0.4477620000000  0.5042320000000 1.0
C      1  0.4667030000000  0.5522380000000  0.4957680000000 1.0
C      1  0.5610100000000  0.5352980000000  0.5700940000000 1.0
C      1  0.4389900000000  0.4647020000000  0.4299060000000 1.0
C      1  0.5046100000000  0.6095440000000  0.5350010000000 1.0
C      1  0.4953900000000  0.3904560000000  0.4649990000000 1.0
C      1  0.5890110000000  0.5269850000000  0.4914400000000 1.0
C      1  0.4109890000000  0.4730150000000  0.5085600000000 1.0
C      1  0.5211790000000  0.4365550000000  0.4164240000000 1.0
C      1  0.4788210000000  0.5634450000000  0.5835760000000 1.0
C      1  0.5259370000000  0.5718130000000  0.5912550000000 1.0
C      1  0.4740630000000  0.4281870000000  0.4087450000000 1.0
C      1  0.5279830000000  0.4817110000000  0.5954010000000 1.0
C      1  0.4720170000000  0.5182890000000  0.4045990000000 1.0
C      1  0.4954420000000  0.5824490000000  0.4228350000000 1.0
C      1  0.5045580000000  0.4175510000000  0.5771650000000 1.0
C      1  0.5595470000000  0.4524620000000  0.4408000000000 1.0
C      1  0.4404530000000  0.5475380000000  0.5592000000000 1.0
C      1  0.5838210000000  0.5153650000000  0.5672360000000 1.0
C      1  0.4161790000000  0.4846350000000  0.4327640000000 1.0
C      1  0.4939850000000  0.3934400000000  0.4932340000000 1.0
C      1  0.5060150000000  0.6065600000000  0.5067660000000 1.0
C      1  0.5406910000000  0.4265720000000  0.5470110000000 1.0
C      1  0.4593090000000  0.5734280000000  0.4529890000000 1.0
C      1  0.4285460000000  0.5289150000000  0.4375850000000 1.0
C      1  0.5714540000000  0.4710850000000  0.5624150000000 1.0
C      1  0.4965030000000  0.4126400000000  0.5493340000000 1.0
C      1  0.5034970000000  0.5873600000000  0.4506660000000 1.0
C      1  0.4675690000000  0.4913000000000  0.5980110000000 1.0
C      1  0.5324310000000  0.5087000000000  0.4019890000000 1.0
C      1  0.4144980000000  0.5631710000000  0.5175320000000 1.0
C      1  0.5855020000000  0.4368290000000  0.4824680000000 1.0
C      1  0.4614040000000  0.4463990000000  0.6028450000000 1.0
C      1  0.5385960000000  0.5536010000000  0.3971550000000 1.0
C      1  0.5917340000000  0.5680510000000  0.5551040000000 1.0
C      1  0.4082660000000  0.4319490000000  0.4448960000000 1.0
C      1  0.4498020000000  0.5269400000000  0.4973650000000 1.0
C      1  0.5501980000000  0.4730600000000  0.5026350000000 1.0
C      1  0.4503260000000  0.4720380000000  0.4038290000000 1.0
C      1  0.5496740000000  0.5279620000000  0.5961710000000 1.0
C      1  0.4643070000000  0.4657960000000  0.4497350000000 1.0
C      1  0.5356930000000  0.5342040000000  0.5502650000000 1.0
C      1  0.4202140000000  0.4178500000000  0.4879620000000 1.0
C      1  0.5797860000000  0.5821500000000  0.5120380000000 1.0
C      1  0.4842500000000  0.5138660000000  0.4309300000000 1.0
C      1  0.5157500000000  0.4861340000000  0.5690700000000 1.0
C      1  0.4259370000000  0.4335960000000  0.5336290000000 1.0
C      1  0.5740630000000  0.5664040000000  0.4663710000000 1.0
C      1  0.5932300000000  0.4726640000000  0.5442360000000 1.0
C      1  0.4067700000000  0.5273360000000  0.4557640000000 1.0
C      1  0.5050470000000  0.4458190000000  0.4889220000000 1.0
C      1  0.4949530000000  0.5541810000000  0.5110780000000 1.0
C      1  0.4518680000000  0.5207390000000  0.5669250000000 1.0
C      1  0.5481320000000  0.4792610000000  0.4330750000000 1.0
C      1  0.4363300000000  0.5764580000000  0.5010270000000 1.0
C      1  0.5636700000000  0.4235420000000  0.4989730000000 1.0
C      1  0.5137120000000  0.4892010000000  0.4743550000000 1.0
C      1  0.4862880000000  0.5107990000000  0.5256450000000 1.0
C      1  0.5224610000000  0.4604720000000  0.3975030000000 1.0
C      1  0.4775390000000  0.5395280000000  0.6024970000000 1.0
END
