TITL C-3577080-309-672 5.76717604546836e-08 125000 -541.241215056414 0 0 87 (C1) n - 1
REM
REM in /home/bkarasulu/work/CARBON/AIRSS/Generating-Clusters/EDIP-Nigel-Params/with-SteepDescent/Higher-Symm/SD-CG/HFTN-CG
REM
REM
REM
REM
REM
REM ./C.cell (12c818d87b63d06a65506943cc24bca4)
REM
REM compiler GCC version 9.2.1 20190827 (Red Hat 9.2.1-1)
REM options -cpp -mtune=generic -march=x86-64 -g -O0 -fpre-include=/usr/include/finclude/math-vector-fortran.h
REM seed 1420353926 -846593417 403463147 -694912011 -378128496 -1225693376 2036992030 -1933510653 758793019 -508542711 -333035912 1731370967 1351811064 2003223583 -944171579 379625349 -672311016 -1393103847 -611211010 1785764937 121930280 -1677336730 677909933 460128152 2020289321 -331145311 19231544 -2007151484 1244896957 -935763761 -1172023463 1184458004 985250062
REM
CELL 1.54180   50.00000   50.00000   50.00000   90.00000   90.00000   90.00000
LATT -1
SFAC C  
C      1  0.5013230000000  0.4676430000000  0.4725810000000 1.0
C      1  0.5265550000000  0.5127030000000  0.4716640000000 1.0
C      1  0.4759680000000  0.5123190000000  0.4715770000000 1.0
C      1  0.4991790000000  0.4713010000000  0.5251210000000 1.0
C      1  0.5250630000000  0.5155570000000  0.5250290000000 1.0
C      1  0.4738480000000  0.5157320000000  0.5239600000000 1.0
C      1  0.5009660000000  0.5271240000000  0.4717890000000 1.0
C      1  0.5267820000000  0.4833900000000  0.4721290000000 1.0
C      1  0.4756960000000  0.4827270000000  0.4717850000000 1.0
C      1  0.4995910000000  0.5305350000000  0.5239130000000 1.0
C      1  0.5247850000000  0.4859960000000  0.5253090000000 1.0
C      1  0.4738570000000  0.4862310000000  0.5249610000000 1.0
C      1  0.4819460000000  0.5921550000000  0.5259240000000 1.0
C      1  0.4404930000000  0.4433640000000  0.5181880000000 1.0
C      1  0.5796990000000  0.4772540000000  0.5189490000000 1.0
C      1  0.4805220000000  0.5807500000000  0.4832170000000 1.0
C      1  0.4351870000000  0.4377830000000  0.4743520000000 1.0
C      1  0.5858980000000  0.4727700000000  0.4753800000000 1.0
C      1  0.4797340000000  0.4137180000000  0.5230350000000 1.0
C      1  0.4290500000000  0.5615240000000  0.5258620000000 1.0
C      1  0.5809250000000  0.5248080000000  0.5203350000000 1.0
C      1  0.4802070000000  0.4205060000000  0.4794450000000 1.0
C      1  0.4397540000000  0.5570280000000  0.4831790000000 1.0
C      1  0.5850970000000  0.5244270000000  0.4759280000000 1.0
C      1  0.4277030000000  0.5312050000000  0.4905670000000 1.0
C      1  0.5072360000000  0.4265940000000  0.4884800000000 1.0
C      1  0.5701080000000  0.5499570000000  0.4828920000000 1.0
C      1  0.4168890000000  0.5355540000000  0.5181570000000 1.0
C      1  0.5084880000000  0.4151550000000  0.5155010000000 1.0
C      1  0.5627140000000  0.5455300000000  0.5111440000000 1.0
C      1  0.4213150000000  0.4640760000000  0.4818260000000 1.0
C      1  0.5088550000000  0.5781830000000  0.4907980000000 1.0
C      1  0.5708840000000  0.4484400000000  0.4827830000000 1.0
C      1  0.4301450000000  0.4688950000000  0.5095560000000 1.0
C      1  0.5105700000000  0.5897900000000  0.5183560000000 1.0
C      1  0.5622410000000  0.4557150000000  0.5099320000000 1.0
C      1  0.4564510000000  0.4735600000000  0.4496400000000 1.0
C      1  0.5445660000000  0.4725600000000  0.4501250000000 1.0
C      1  0.5015120000000  0.5506210000000  0.4522170000000 1.0
C      1  0.4553420000000  0.4765560000000  0.5474160000000 1.0
C      1  0.5423750000000  0.4746250000000  0.5477160000000 1.0
C      1  0.5001680000000  0.5515380000000  0.5458900000000 1.0
C      1  0.4554360000000  0.5238540000000  0.4520730000000 1.0
C      1  0.5445690000000  0.5245680000000  0.4500310000000 1.0
C      1  0.5017020000000  0.4478790000000  0.4487830000000 1.0
C      1  0.4552020000000  0.5255490000000  0.5458460000000 1.0
C      1  0.5425600000000  0.5270220000000  0.5475850000000 1.0
C      1  0.5001710000000  0.4504140000000  0.5473410000000 1.0
C      1  0.4722930000000  0.5167570000000  0.5720620000000 1.0
C      1  0.4995010000000  0.4703030000000  0.5732660000000 1.0
C      1  0.5256540000000  0.5168690000000  0.5726940000000 1.0
C      1  0.4736040000000  0.5148550000000  0.4245220000000 1.0
C      1  0.5003300000000  0.4688870000000  0.4242190000000 1.0
C      1  0.5270920000000  0.5150710000000  0.4241350000000 1.0
C      1  0.4725750000000  0.4859910000000  0.5727830000000 1.0
C      1  0.4991320000000  0.5323680000000  0.5720700000000 1.0
C      1  0.5258870000000  0.4856860000000  0.5730220000000 1.0
C      1  0.4733370000000  0.4842670000000  0.4242340000000 1.0
C      1  0.5004710000000  0.5302290000000  0.4245830000000 1.0
C      1  0.5268890000000  0.4840150000000  0.4240690000000 1.0
C      1  0.4521090000000  0.4465670000000  0.5446480000000 1.0
C      1  0.5702250000000  0.4859750000000  0.5453070000000 1.0
C      1  0.4764240000000  0.5692030000000  0.5424240000000 1.0
C      1  0.4518560000000  0.4437440000000  0.4501380000000 1.0
C      1  0.5721980000000  0.4840870000000  0.4525840000000 1.0
C      1  0.4773920000000  0.5680150000000  0.4568490000000 1.0
C      1  0.4516760000000  0.5549280000000  0.5424390000000 1.0
C      1  0.5704880000000  0.5152260000000  0.5460510000000 1.0
C      1  0.4767730000000  0.4316240000000  0.5459000000000 1.0
C      1  0.4523820000000  0.5534410000000  0.4568570000000 1.0
C      1  0.5722940000000  0.5129580000000  0.4518290000000 1.0
C      1  0.4774430000000  0.4298800000000  0.4519740000000 1.0
C      1  0.4299200000000  0.5129870000000  0.4656540000000 1.0
C      1  0.5272700000000  0.4266110000000  0.4667290000000 1.0
C      1  0.5493780000000  0.5533480000000  0.4607610000000 1.0
C      1  0.4262530000000  0.5153940000000  0.5390120000000 1.0
C      1  0.5224350000000  0.4305200000000  0.5377910000000 1.0
C      1  0.5500140000000  0.5611280000000  0.5328720000000 1.0
C      1  0.4289170000000  0.4837870000000  0.4598220000000 1.0
C      1  0.5236160000000  0.5673390000000  0.4659650000000 1.0
C      1  0.5505540000000  0.4434640000000  0.4603350000000 1.0
C      1  0.4226730000000  0.4870090000000  0.5319130000000 1.0
C      1  0.5233340000000  0.5717000000000  0.5393320000000 1.0
C      1  0.5493770000000  0.4411070000000  0.5322610000000 1.0
C      1  0.4542160000000  0.4243570000000  0.4974350000000 1.0
C      1  0.4576410000000  0.5731690000000  0.5024910000000 1.0
C      1  0.5870520000000  0.5019470000000  0.5003510000000 1.0
END
