TITL C-3577086-586-423 -2.50918166134829e-05 125000 -644.833750365016 0 0 106 (C1) n - 1
REM
REM in /home/bkarasulu/work/CARBON/AIRSS/Generating-Clusters/EDIP-Nigel-Params/with-SteepDescent/Higher-Symm/SD-CG/HFTN-CG
REM
REM
REM
REM
REM
REM ./C.cell (12c818d87b63d06a65506943cc24bca4)
REM
REM compiler GCC version 9.2.1 20190827 (Red Hat 9.2.1-1)
REM options -cpp -mtune=generic -march=x86-64 -g -O0 -fpre-include=/usr/include/finclude/math-vector-fortran.h
REM seed -967158878 1515405324 487996585 293434959 1336220327 -11946631 1629377011 1998124262 187869096 -1820342601 -1093552832 1737263156 96669327 1181672495 -480656296 -1015152238 -387681506 1771407214 745863712 689796986 1475950628 -1969795352 -61032240 1793811462 -116196405 319332056 197527851 -379715949 -1840793357 -1070686387 -1469127889 690560148 1510666569
REM
CELL 1.54180   50.00000   50.00000   50.00000   90.00000   90.00000   90.00000
LATT -1
SFAC C  
C      1  0.4951400000000  0.4212330000000  0.5339650000000 1.0
C      1  0.4972720000000  0.4133330000000  0.4825260000000 1.0
C      1  0.4967030000000  0.4376050000000  0.4388350000000 1.0
C      1  0.4894120000000  0.4773460000000  0.4081360000000 1.0
C      1  0.4887530000000  0.5228690000000  0.4177850000000 1.0
C      1  0.4904180000000  0.5712370000000  0.4391230000000 1.0
C      1  0.4939650000000  0.5887420000000  0.4864350000000 1.0
C      1  0.4994980000000  0.5833430000000  0.5353280000000 1.0
C      1  0.4986490000000  0.5493220000000  0.5732250000000 1.0
C      1  0.4960810000000  0.5012000000000  0.5919200000000 1.0
C      1  0.4925140000000  0.4559090000000  0.5691370000000 1.0
C      1  0.4759170000000  0.5051260000000  0.4502060000000 1.0
C      1  0.4865590000000  0.5331060000000  0.4601610000000 1.0
C      1  0.4728270000000  0.5407530000000  0.4845420000000 1.0
C      1  0.4866260000000  0.5473640000000  0.5101200000000 1.0
C      1  0.4734350000000  0.5305600000000  0.5308710000000 1.0
C      1  0.4852670000000  0.5098510000000  0.5489570000000 1.0
C      1  0.4681390000000  0.4850500000000  0.5484600000000 1.0
C      1  0.4656140000000  0.4686210000000  0.5216950000000 1.0
C      1  0.4885220000000  0.4514920000000  0.5029150000000 1.0
C      1  0.4789030000000  0.4559290000000  0.4746020000000 1.0
C      1  0.4905910000000  0.4818610000000  0.4609210000000 1.0
C      1  0.5234920000000  0.4231620000000  0.4845930000000 1.0
C      1  0.5252350000000  0.4389570000000  0.4408570000000 1.0
C      1  0.5165760000000  0.4853630000000  0.4184960000000 1.0
C      1  0.5184300000000  0.5151070000000  0.4181930000000 1.0
C      1  0.5176520000000  0.5641130000000  0.4409420000000 1.0
C      1  0.5216680000000  0.5821810000000  0.4833130000000 1.0
C      1  0.5240180000000  0.5706530000000  0.5295160000000 1.0
C      1  0.5256930000000  0.5451850000000  0.5650910000000 1.0
C      1  0.5219010000000  0.4996570000000  0.5802610000000 1.0
C      1  0.5204500000000  0.4573720000000  0.5659200000000 1.0
C      1  0.5234010000000  0.4260380000000  0.5341340000000 1.0
C      1  0.4453090000000  0.5478190000000  0.4359900000000 1.0
C      1  0.4501690000000  0.5760040000000  0.4665920000000 1.0
C      1  0.4517780000000  0.5802840000000  0.5209070000000 1.0
C      1  0.4550240000000  0.5700700000000  0.5499710000000 1.0
C      1  0.4550570000000  0.5289620000000  0.5867460000000 1.0
C      1  0.4517080000000  0.4797380000000  0.5837250000000 1.0
C      1  0.4504870000000  0.4347660000000  0.5479800000000 1.0
C      1  0.4525120000000  0.4123480000000  0.5054020000000 1.0
C      1  0.4547650000000  0.4260150000000  0.4588230000000 1.0
C      1  0.4497210000000  0.4586700000000  0.4290040000000 1.0
C      1  0.4461270000000  0.4999220000000  0.4192640000000 1.0
C      1  0.5625180000000  0.4650480000000  0.4641280000000 1.0
C      1  0.5717110000000  0.4946970000000  0.4675370000000 1.0
C      1  0.5599840000000  0.5162390000000  0.4487790000000 1.0
C      1  0.5728750000000  0.5404910000000  0.4608770000000 1.0
C      1  0.5599290000000  0.5493530000000  0.4870230000000 1.0
C      1  0.5711560000000  0.5285600000000  0.5075570000000 1.0
C      1  0.5608250000000  0.5251640000000  0.5364190000000 1.0
C      1  0.5746680000000  0.5030780000000  0.5494700000000 1.0
C      1  0.5776620000000  0.4663840000000  0.5390750000000 1.0
C      1  0.5632050000000  0.4530740000000  0.5175560000000 1.0
C      1  0.5759890000000  0.4543110000000  0.4895840000000 1.0
C      1  0.4803980000000  0.4750700000000  0.5890130000000 1.0
C      1  0.4784090000000  0.4350750000000  0.5534820000000 1.0
C      1  0.4813490000000  0.4133730000000  0.5079500000000 1.0
C      1  0.4829300000000  0.4192120000000  0.4569030000000 1.0
C      1  0.4777550000000  0.4549100000000  0.4231910000000 1.0
C      1  0.4716500000000  0.5014720000000  0.4065170000000 1.0
C      1  0.4732630000000  0.5498230000000  0.4271760000000 1.0
C      1  0.4773140000000  0.5845420000000  0.4621770000000 1.0
C      1  0.4813760000000  0.5777070000000  0.5124580000000 1.0
C      1  0.4845850000000  0.5725560000000  0.5589060000000 1.0
C      1  0.4821900000000  0.5237450000000  0.5770220000000 1.0
C      1  0.5305110000000  0.5172360000000  0.4462550000000 1.0
C      1  0.5166720000000  0.5414520000000  0.4594010000000 1.0
C      1  0.5297570000000  0.5540180000000  0.4857260000000 1.0
C      1  0.5174730000000  0.5464900000000  0.5132830000000 1.0
C      1  0.5314660000000  0.5283100000000  0.5416300000000 1.0
C      1  0.5165940000000  0.5018210000000  0.5510390000000 1.0
C      1  0.5235120000000  0.4725720000000  0.5420450000000 1.0
C      1  0.5332550000000  0.4509730000000  0.5220900000000 1.0
C      1  0.5188130000000  0.4499370000000  0.4955520000000 1.0
C      1  0.5330850000000  0.4589630000000  0.4604900000000 1.0
C      1  0.5178530000000  0.4829670000000  0.4499810000000 1.0
C      1  0.4475340000000  0.5409300000000  0.5397090000000 1.0
C      1  0.4395200000000  0.5233320000000  0.5640140000000 1.0
C      1  0.4408400000000  0.4938390000000  0.5600880000000 1.0
C      1  0.4424770000000  0.4507380000000  0.5257150000000 1.0
C      1  0.4385290000000  0.4364300000000  0.5005510000000 1.0
C      1  0.4483940000000  0.4504280000000  0.4738090000000 1.0
C      1  0.4377100000000  0.4707930000000  0.4524620000000 1.0
C      1  0.4454050000000  0.5015830000000  0.4484420000000 1.0
C      1  0.4344560000000  0.5307500000000  0.4567070000000 1.0
C      1  0.4455870000000  0.5507030000000  0.4805810000000 1.0
C      1  0.4357610000000  0.5572670000000  0.5094140000000 1.0
C      1  0.6013270000000  0.5312540000000  0.4655130000000 1.0
C      1  0.6152090000000  0.5410820000000  0.4880340000000 1.0
C      1  0.6007160000000  0.5322550000000  0.5098920000000 1.0
C      1  0.6130740000000  0.5250610000000  0.5335940000000 1.0
C      1  0.6031820000000  0.5067340000000  0.5519860000000 1.0
C      1  0.6184270000000  0.4834600000000  0.5560820000000 1.0
C      1  0.6061810000000  0.4640910000000  0.5399290000000 1.0
C      1  0.6171700000000  0.4593520000000  0.5148310000000 1.0
C      1  0.6042960000000  0.4624420000000  0.4903420000000 1.0
C      1  0.6126100000000  0.4819030000000  0.4722350000000 1.0
C      1  0.6068670000000  0.5038210000000  0.4564940000000 1.0
C      1  0.5124030000000  0.5029950000000  0.5050910000000 1.0
C      1  0.4610480000000  0.4889100000000  0.5014140000000 1.0
C      1  0.4366150000000  0.5018090000000  0.5000950000000 1.0
C      1  0.4861230000000  0.5016860000000  0.4999470000000 1.0
C      1  0.4115370000000  0.5072990000000  0.5009330000000 1.0
C      1  0.5638000000000  0.5022430000000  0.4956160000000 1.0
C      1  0.5377050000000  0.4955160000000  0.5020240000000 1.0
END
