TITL C-3578204-4308-442 -1.35480492717042e-06 125000 -510.319050513726 0 0 83 (C1) n - 1
REM
REM in /home/bkarasulu/work/CARBON/AIRSS/Generating-Clusters/EDIP-Nigel-Params/with-SteepDescent/Higher-Symm/SD-CG/HFTN-CG
REM
REM
REM
REM
REM
REM ./C.cell (12c818d87b63d06a65506943cc24bca4)
REM
REM compiler GCC version 9.2.1 20190827 (Red Hat 9.2.1-1)
REM options -cpp -mtune=generic -march=x86-64 -g -O0 -fpre-include=/usr/include/finclude/math-vector-fortran.h
REM seed 1424203506 -774792420 437528284 123170202 -1598127015 718294744 174149467 -121756723 111303138 1255434332 -284477374 -474921985 1106022640 -1983968373 1060125145 1660746579 27857929 -832228153 -2068978879 848999385 299793334 -1118215591 -884748419 535056080 -510879071 -1530665324 -1552563230 -282482775 1841735119 2033703279 -440905836 373381780 610426303
REM
CELL 1.54180   50.00000   50.00000   50.00000   90.00000   90.00000   90.00000
LATT -1
SFAC C  
C      1  0.4749490000000  0.5122130000000  0.5818270000000 1.0
C      1  0.4994850000000  0.4717470000000  0.5824530000000 1.0
C      1  0.5246640000000  0.5145660000000  0.5826200000000 1.0
C      1  0.5609990000000  0.5038520000000  0.5495650000000 1.0
C      1  0.4654780000000  0.5490740000000  0.5491670000000 1.0
C      1  0.4720540000000  0.4455830000000  0.5500350000000 1.0
C      1  0.4774790000000  0.4264980000000  0.4786220000000 1.0
C      1  0.5804260000000  0.5211150000000  0.4769630000000 1.0
C      1  0.4429480000000  0.5590590000000  0.4761930000000 1.0
C      1  0.4980990000000  0.5401040000000  0.4717950000000 1.0
C      1  0.4666130000000  0.4772170000000  0.4708820000000 1.0
C      1  0.5357590000000  0.4817750000000  0.4718380000000 1.0
C      1  0.4987000000000  0.4501730000000  0.5633770000000 1.0
C      1  0.5439390000000  0.5249970000000  0.5636270000000 1.0
C      1  0.4563740000000  0.5233630000000  0.5626580000000 1.0
C      1  0.5444540000000  0.5088640000000  0.4802350000000 1.0
C      1  0.4706180000000  0.5330080000000  0.4796470000000 1.0
C      1  0.4869600000000  0.4569710000000  0.4785480000000 1.0
C      1  0.4478850000000  0.5503470000000  0.5253530000000 1.0
C      1  0.4797670000000  0.4290080000000  0.5269180000000 1.0
C      1  0.5705380000000  0.5195800000000  0.5262340000000 1.0
C      1  0.5246450000000  0.5161200000000  0.5027680000000 1.0
C      1  0.4736280000000  0.5122780000000  0.5022870000000 1.0
C      1  0.5023070000000  0.4697690000000  0.5024390000000 1.0
C      1  0.5539010000000  0.5433130000000  0.5224200000000 1.0
C      1  0.4352510000000  0.5243750000000  0.5212180000000 1.0
C      1  0.5088210000000  0.4308050000000  0.5225680000000 1.0
C      1  0.4752980000000  0.4848740000000  0.5883390000000 1.0
C      1  0.5229870000000  0.4867410000000  0.5808180000000 1.0
C      1  0.4993340000000  0.5260170000000  0.5803560000000 1.0
C      1  0.4578310000000  0.5671360000000  0.4521900000000 1.0
C      1  0.4620260000000  0.4296390000000  0.4523530000000 1.0
C      1  0.5807350000000  0.5047490000000  0.4523780000000 1.0
C      1  0.5219070000000  0.4328820000000  0.4547940000000 1.0
C      1  0.5482280000000  0.5522990000000  0.4565470000000 1.0
C      1  0.4314710000000  0.5151890000000  0.4551440000000 1.0
C      1  0.4408710000000  0.4447680000000  0.4961850000000 1.0
C      1  0.5741470000000  0.4793330000000  0.4941150000000 1.0
C      1  0.4814000000000  0.5774910000000  0.4972690000000 1.0
C      1  0.5174780000000  0.4833150000000  0.4468370000000 1.0
C      1  0.5068680000000  0.5231580000000  0.4474840000000 1.0
C      1  0.4772500000000  0.4938600000000  0.4469220000000 1.0
C      1  0.5271810000000  0.4993130000000  0.5324360000000 1.0
C      1  0.4880110000000  0.5230300000000  0.5324750000000 1.0
C      1  0.4854730000000  0.4775700000000  0.5326550000000 1.0
C      1  0.5429460000000  0.4716170000000  0.5374080000000 1.0
C      1  0.5026620000000  0.5511330000000  0.5381830000000 1.0
C      1  0.4533190000000  0.4768470000000  0.5372100000000 1.0
C      1  0.4157290000000  0.5205220000000  0.5011860000000 1.0
C      1  0.5217030000000  0.4171640000000  0.5014180000000 1.0
C      1  0.5603160000000  0.5626360000000  0.5028420000000 1.0
C      1  0.5009320000000  0.5707790000000  0.4403290000000 1.0
C      1  0.4387900000000  0.4652620000000  0.4392170000000 1.0
C      1  0.5617140000000  0.4637850000000  0.4411130000000 1.0
C      1  0.5413950000000  0.5588820000000  0.4827660000000 1.0
C      1  0.4287470000000  0.5059710000000  0.4813200000000 1.0
C      1  0.5307230000000  0.4342580000000  0.4813250000000 1.0
C      1  0.5213590000000  0.4479710000000  0.5437420000000 1.0
C      1  0.5338670000000  0.5457200000000  0.5444420000000 1.0
C      1  0.4423530000000  0.5057430000000  0.5434440000000 1.0
C      1  0.4542590000000  0.5669670000000  0.5016650000000 1.0
C      1  0.4614580000000  0.4244210000000  0.5034000000000 1.0
C      1  0.5820920000000  0.5067440000000  0.5021170000000 1.0
C      1  0.4654280000000  0.5436300000000  0.4337950000000 1.0
C      1  0.4793100000000  0.4475910000000  0.4332850000000 1.0
C      1  0.5563600000000  0.5093920000000  0.4340160000000 1.0
C      1  0.5386170000000  0.5249670000000  0.4534810000000 1.0
C      1  0.4600860000000  0.5202550000000  0.4527720000000 1.0
C      1  0.5031940000000  0.4550020000000  0.4517570000000 1.0
C      1  0.5541500000000  0.4638460000000  0.5109120000000 1.0
C      1  0.5039660000000  0.5646150000000  0.5117100000000 1.0
C      1  0.4420060000000  0.4708940000000  0.5104510000000 1.0
C      1  0.5782390000000  0.4764420000000  0.4612830000000 1.0
C      1  0.4829480000000  0.5798650000000  0.4606120000000 1.0
C      1  0.4382350000000  0.4454030000000  0.4598990000000 1.0
C      1  0.5434090000000  0.4823810000000  0.4285810000000 1.0
C      1  0.4952660000000  0.5452850000000  0.4282300000000 1.0
C      1  0.4637870000000  0.4730470000000  0.4272790000000 1.0
C      1  0.5311550000000  0.4613340000000  0.4926840000000 1.0
C      1  0.5174440000000  0.5456520000000  0.4933340000000 1.0
C      1  0.4519590000000  0.4916130000000  0.4921190000000 1.0
C      1  0.5010520000000  0.4999110000000  0.5484260000000 1.0
C      1  0.5002570000000  0.4993620000000  0.4975040000000 1.0
END
