TITL C-3577090-796-239 -1.79986917935731e-06 125000 -982.248799766324 0 0 158 (C1) n - 1
REM
REM in /home/bkarasulu/work/CARBON/AIRSS/Generating-Clusters/EDIP-Nigel-Params/with-SteepDescent/Higher-Symm/SD-CG/HFTN-CG
REM
REM
REM
REM
REM
REM ./C.cell (12c818d87b63d06a65506943cc24bca4)
REM
REM compiler GCC version 9.2.1 20190827 (Red Hat 9.2.1-1)
REM options -cpp -mtune=generic -march=x86-64 -g -O0 -fpre-include=/usr/include/finclude/math-vector-fortran.h
REM seed 237678422 -815659285 824569727 2059875839 112274025 225152759 632299106 -1136831856 573814798 -787405099 213922433 -245254798 2113992101 1416949799 -1892201966 47896215 821127177 -1222473864 -646953260 -803940027 -687704848 -1713256726 -1828668398 1216844931 -1939067473 -1867782469 -1075199677 -1364058242 -1161366311 1073619643 1543713655 1221513507 -2121047720
REM
CELL 1.54180   50.00000   50.00000   50.00000   90.00000   90.00000   90.00000
LATT -1
SFAC C  
C      1  0.5717540000000  0.4280350000000  0.4972970000000 1.0
C      1  0.5250570000000  0.4087120000000  0.5031310000000 1.0
C      1  0.4683110000000  0.4112870000000  0.4983190000000 1.0
C      1  0.4215360000000  0.4384460000000  0.5015450000000 1.0
C      1  0.4032540000000  0.4852590000000  0.5014280000000 1.0
C      1  0.4123970000000  0.5381280000000  0.5005270000000 1.0
C      1  0.4514800000000  0.5803420000000  0.4974440000000 1.0
C      1  0.5035070000000  0.5943980000000  0.5039570000000 1.0
C      1  0.5491920000000  0.5778860000000  0.5043190000000 1.0
C      1  0.5862270000000  0.5414930000000  0.4980030000000 1.0
C      1  0.5973540000000  0.4883830000000  0.4941370000000 1.0
C      1  0.5742360000000  0.5132510000000  0.5647200000000 1.0
C      1  0.5767820000000  0.4791200000000  0.5523710000000 1.0
C      1  0.5654970000000  0.4534630000000  0.5662810000000 1.0
C      1  0.5005950000000  0.4224330000000  0.5684450000000 1.0
C      1  0.4712730000000  0.4282610000000  0.5686840000000 1.0
C      1  0.4163300000000  0.4686820000000  0.5625380000000 1.0
C      1  0.4095230000000  0.4963280000000  0.5639360000000 1.0
C      1  0.4379210000000  0.5540710000000  0.5668440000000 1.0
C      1  0.4600590000000  0.5718510000000  0.5702600000000 1.0
C      1  0.5292470000000  0.5712720000000  0.5660160000000 1.0
C      1  0.5552610000000  0.5456140000000  0.5555520000000 1.0
C      1  0.5033580000000  0.4506580000000  0.5345360000000 1.0
C      1  0.4820450000000  0.4665340000000  0.5495290000000 1.0
C      1  0.4592790000000  0.4713340000000  0.5311350000000 1.0
C      1  0.4509330000000  0.5011910000000  0.5287390000000 1.0
C      1  0.4645970000000  0.5232010000000  0.5413340000000 1.0
C      1  0.4837430000000  0.5424250000000  0.5312110000000 1.0
C      1  0.5099770000000  0.5405160000000  0.5409460000000 1.0
C      1  0.5367130000000  0.5314860000000  0.5341480000000 1.0
C      1  0.5395200000000  0.5037260000000  0.5401070000000 1.0
C      1  0.5502500000000  0.4784390000000  0.5327330000000 1.0
C      1  0.5299460000000  0.4588260000000  0.5402630000000 1.0
C      1  0.5012280000000  0.4230190000000  0.4630560000000 1.0
C      1  0.4492440000000  0.4460360000000  0.4589780000000 1.0
C      1  0.4240630000000  0.4671450000000  0.4587070000000 1.0
C      1  0.4280120000000  0.4997610000000  0.4578670000000 1.0
C      1  0.4351110000000  0.5472910000000  0.4523030000000 1.0
C      1  0.4924740000000  0.5702080000000  0.4594800000000 1.0
C      1  0.5242960000000  0.5764150000000  0.4609430000000 1.0
C      1  0.5470130000000  0.5531910000000  0.4604760000000 1.0
C      1  0.5781700000000  0.5185980000000  0.4539830000000 1.0
C      1  0.5678400000000  0.4598230000000  0.4556630000000 1.0
C      1  0.5537040000000  0.4330920000000  0.4569060000000 1.0
C      1  0.4435590000000  0.5912650000000  0.5241650000000 1.0
C      1  0.5040170000000  0.6019150000000  0.5339300000000 1.0
C      1  0.5616850000000  0.5900310000000  0.5279420000000 1.0
C      1  0.6003430000000  0.5451980000000  0.5241400000000 1.0
C      1  0.6142640000000  0.4873590000000  0.5187520000000 1.0
C      1  0.5804980000000  0.4368410000000  0.5227900000000 1.0
C      1  0.5310100000000  0.4053060000000  0.5327370000000 1.0
C      1  0.4651230000000  0.4003930000000  0.5256210000000 1.0
C      1  0.4137950000000  0.4311450000000  0.5305600000000 1.0
C      1  0.3825060000000  0.4850390000000  0.5229750000000 1.0
C      1  0.4060690000000  0.5397850000000  0.5294120000000 1.0
C      1  0.5459140000000  0.4251660000000  0.4291020000000 1.0
C      1  0.4897510000000  0.4072000000000  0.4416910000000 1.0
C      1  0.4452380000000  0.4269780000000  0.4346570000000 1.0
C      1  0.4133320000000  0.4642200000000  0.4296940000000 1.0
C      1  0.4126690000000  0.5137260000000  0.4342450000000 1.0
C      1  0.4351890000000  0.5640020000000  0.4275640000000 1.0
C      1  0.4803510000000  0.5864260000000  0.4355560000000 1.0
C      1  0.5296180000000  0.5885170000000  0.4332190000000 1.0
C      1  0.5684600000000  0.5576380000000  0.4378940000000 1.0
C      1  0.5928910000000  0.5081360000000  0.4288790000000 1.0
C      1  0.5810710000000  0.4594680000000  0.4269970000000 1.0
C      1  0.4760180000000  0.5434020000000  0.4097340000000 1.0
C      1  0.5037890000000  0.5564710000000  0.4057640000000 1.0
C      1  0.5321150000000  0.5470900000000  0.4082800000000 1.0
C      1  0.5506060000000  0.5235460000000  0.4050690000000 1.0
C      1  0.5517060000000  0.4932600000000  0.4056680000000 1.0
C      1  0.5379550000000  0.4658270000000  0.4031450000000 1.0
C      1  0.5108190000000  0.4517450000000  0.4069590000000 1.0
C      1  0.4806760000000  0.4485350000000  0.4102810000000 1.0
C      1  0.4552990000000  0.4639380000000  0.4041870000000 1.0
C      1  0.4467890000000  0.4926830000000  0.4090550000000 1.0
C      1  0.4539010000000  0.5223040000000  0.4050160000000 1.0
C      1  0.5296370000000  0.4574640000000  0.4904750000000 1.0
C      1  0.4976980000000  0.4495700000000  0.5053260000000 1.0
C      1  0.4665440000000  0.4593910000000  0.5041140000000 1.0
C      1  0.4604340000000  0.4827590000000  0.4882030000000 1.0
C      1  0.4477730000000  0.5061440000000  0.4999850000000 1.0
C      1  0.4599570000000  0.5328280000000  0.4895550000000 1.0
C      1  0.4852490000000  0.5464020000000  0.5018800000000 1.0
C      1  0.5115480000000  0.5358050000000  0.4909530000000 1.0
C      1  0.5392490000000  0.5316910000000  0.5029700000000 1.0
C      1  0.5532920000000  0.5060620000000  0.4910540000000 1.0
C      1  0.5523710000000  0.4769460000000  0.5017600000000 1.0
C      1  0.4502720000000  0.4356930000000  0.4911470000000 1.0
C      1  0.4081350000000  0.4606280000000  0.4856000000000 1.0
C      1  0.4185830000000  0.5089300000000  0.4900230000000 1.0
C      1  0.4369120000000  0.5537530000000  0.4900830000000 1.0
C      1  0.4818670000000  0.5760380000000  0.4913520000000 1.0
C      1  0.5287020000000  0.5912540000000  0.4883950000000 1.0
C      1  0.5580700000000  0.5528870000000  0.4913630000000 1.0
C      1  0.5908630000000  0.5160590000000  0.4823240000000 1.0
C      1  0.5780040000000  0.4647250000000  0.4885690000000 1.0
C      1  0.5438610000000  0.4286210000000  0.4864750000000 1.0
C      1  0.4976820000000  0.4203210000000  0.4932520000000 1.0
C      1  0.5106980000000  0.5547690000000  0.5829100000000 1.0
C      1  0.5289530000000  0.5325360000000  0.5867220000000 1.0
C      1  0.5484410000000  0.5117640000000  0.5830780000000 1.0
C      1  0.5398000000000  0.4856380000000  0.5895270000000 1.0
C      1  0.5418810000000  0.4581620000000  0.5831550000000 1.0
C      1  0.5202430000000  0.4392340000000  0.5814150000000 1.0
C      1  0.4651930000000  0.4546610000000  0.5806150000000 1.0
C      1  0.4394400000000  0.4685650000000  0.5812870000000 1.0
C      1  0.4323290000000  0.5054970000000  0.5815440000000 1.0
C      1  0.4477310000000  0.5306380000000  0.5813690000000 1.0
C      1  0.4799260000000  0.5520970000000  0.5812000000000 1.0
C      1  0.4183720000000  0.5610830000000  0.5449850000000 1.0
C      1  0.4635740000000  0.5891800000000  0.5461820000000 1.0
C      1  0.5262770000000  0.5983690000000  0.5531770000000 1.0
C      1  0.5729500000000  0.5711310000000  0.5472410000000 1.0
C      1  0.6030630000000  0.5231430000000  0.5421460000000 1.0
C      1  0.6041180000000  0.4702630000000  0.5394570000000 1.0
C      1  0.5642940000000  0.4313610000000  0.5459280000000 1.0
C      1  0.5086860000000  0.4000800000000  0.5504470000000 1.0
C      1  0.4541550000000  0.4192650000000  0.5453850000000 1.0
C      1  0.3986450000000  0.4506190000000  0.5459380000000 1.0
C      1  0.3866550000000  0.5037200000000  0.5458990000000 1.0
C      1  0.5042940000000  0.5846560000000  0.4173820000000 1.0
C      1  0.5482530000000  0.5697350000000  0.4190790000000 1.0
C      1  0.5759810000000  0.5339330000000  0.4181330000000 1.0
C      1  0.5797430000000  0.4862660000000  0.4136650000000 1.0
C      1  0.5589500000000  0.4456200000000  0.4114090000000 1.0
C      1  0.5168980000000  0.4262980000000  0.4220930000000 1.0
C      1  0.4724250000000  0.4217160000000  0.4224370000000 1.0
C      1  0.4327610000000  0.4463950000000  0.4150940000000 1.0
C      1  0.4177110000000  0.4905970000000  0.4157350000000 1.0
C      1  0.4280690000000  0.5345800000000  0.4159720000000 1.0
C      1  0.4626270000000  0.5691700000000  0.4176110000000 1.0
C      1  0.4882610000000  0.3891170000000  0.5355850000000 1.0
C      1  0.4272270000000  0.4147660000000  0.5485640000000 1.0
C      1  0.3755470000000  0.4596880000000  0.5324080000000 1.0
C      1  0.3815000000000  0.5305060000000  0.5394830000000 1.0
C      1  0.4174450000000  0.5857250000000  0.5319520000000 1.0
C      1  0.4810540000000  0.6106310000000  0.5473900000000 1.0
C      1  0.5488480000000  0.6107210000000  0.5417200000000 1.0
C      1  0.5992640000000  0.5687600000000  0.5389500000000 1.0
C      1  0.6248670000000  0.5091520000000  0.5325870000000 1.0
C      1  0.6065860000000  0.4445500000000  0.5287640000000 1.0
C      1  0.5554980000000  0.4046250000000  0.5465740000000 1.0
C      1  0.4741550000000  0.4610450000000  0.4520280000000 1.0
C      1  0.4740920000000  0.4866580000000  0.4640380000000 1.0
C      1  0.4567400000000  0.5053850000000  0.4503680000000 1.0
C      1  0.4611470000000  0.5323230000000  0.4594190000000 1.0
C      1  0.4881260000000  0.5414500000000  0.4523120000000 1.0
C      1  0.5084610000000  0.5240810000000  0.4650230000000 1.0
C      1  0.5341910000000  0.5272820000000  0.4534980000000 1.0
C      1  0.5521770000000  0.5064660000000  0.4611040000000 1.0
C      1  0.5456420000000  0.4793610000000  0.4515990000000 1.0
C      1  0.5206570000000  0.4699090000000  0.4638300000000 1.0
C      1  0.5018640000000  0.4496520000000  0.4491440000000 1.0
C      1  0.4985990000000  0.5011650000000  0.5237800000000 1.0
C      1  0.5038900000000  0.4928630000000  0.4989410000000 1.0
C      1  0.4937540000000  0.4925070000000  0.5499710000000 1.0
C      1  0.5023300000000  0.4941610000000  0.4710750000000 1.0
END
