TITL C-3577078-809-718 -1.086307500933e-06 125000 -654.96090892861 0 0 107 (C1) n - 1
REM
REM in /home/bkarasulu/work/CARBON/AIRSS/Generating-Clusters/EDIP-Nigel-Params/with-SteepDescent/Higher-Symm/SD-CG/HFTN-CG
REM
REM
REM
REM
REM
REM ./C.cell (12c818d87b63d06a65506943cc24bca4)
REM
REM compiler GCC version 9.2.1 20190827 (Red Hat 9.2.1-1)
REM options -cpp -mtune=generic -march=x86-64 -g -O0 -fpre-include=/usr/include/finclude/math-vector-fortran.h
REM seed 657402186 492331673 1539165448 1607048792 -1313247019 2003474121 1139325652 417771878 1492474629 2104782158 -1294622673 1947685281 953777779 -2076496915 -988766424 2637432 -553127960 991132533 -1235902283 1774353219 311272766 2060299276 296956220 -958088688 2136103631 1830483537 545515844 2120967871 24250265 1697031392 20773604 -1653458488 -1435734524
REM
CELL 1.54180   50.00000   50.00000   50.00000   90.00000   90.00000   90.00000
LATT -1
SFAC C  
C      1  0.4315270000000  0.5019610000000  0.5593120000000 1.0
C      1  0.4529080000000  0.5092710000000  0.5124130000000 1.0
C      1  0.5373860000000  0.4860560000000  0.4222580000000 1.0
C      1  0.4477000000000  0.4347410000000  0.5473420000000 1.0
C      1  0.5291960000000  0.4740390000000  0.5595970000000 1.0
C      1  0.4435460000000  0.4602050000000  0.4497720000000 1.0
C      1  0.4573010000000  0.4111960000000  0.5073050000000 1.0
C      1  0.5592660000000  0.4952170000000  0.4405550000000 1.0
C      1  0.5507470000000  0.5242130000000  0.5570430000000 1.0
C      1  0.5153900000000  0.5495360000000  0.4419810000000 1.0
C      1  0.4326310000000  0.5252130000000  0.4931170000000 1.0
C      1  0.4959170000000  0.5445960000000  0.4966720000000 1.0
C      1  0.4306190000000  0.4718290000000  0.5205460000000 1.0
C      1  0.5054350000000  0.4313900000000  0.5615270000000 1.0
C      1  0.4802750000000  0.4703580000000  0.4574930000000 1.0
C      1  0.4844660000000  0.4609300000000  0.5378090000000 1.0
C      1  0.4718500000000  0.4471140000000  0.5125160000000 1.0
C      1  0.5585720000000  0.4753820000000  0.5633920000000 1.0
C      1  0.5924450000000  0.5274120000000  0.5254450000000 1.0
C      1  0.4416100000000  0.4490350000000  0.4763310000000 1.0
C      1  0.4599830000000  0.5651340000000  0.5393470000000 1.0
C      1  0.5065870000000  0.4120710000000  0.5069740000000 1.0
C      1  0.4702800000000  0.5224630000000  0.5376260000000 1.0
C      1  0.4685570000000  0.4996140000000  0.4647460000000 1.0
C      1  0.5794950000000  0.5385940000000  0.4852320000000 1.0
C      1  0.4306150000000  0.5424610000000  0.5283230000000 1.0
C      1  0.5087960000000  0.5189970000000  0.4969180000000 1.0
C      1  0.4521150000000  0.5232350000000  0.5618880000000 1.0
C      1  0.5168630000000  0.5866370000000  0.4894690000000 1.0
C      1  0.5281120000000  0.4230090000000  0.5468560000000 1.0
C      1  0.5702480000000  0.5243680000000  0.4361500000000 1.0
C      1  0.5090880000000  0.4578180000000  0.5747690000000 1.0
C      1  0.5381250000000  0.5549950000000  0.4608270000000 1.0
C      1  0.4167100000000  0.5148840000000  0.5371820000000 1.0
C      1  0.4668040000000  0.4911710000000  0.4939810000000 1.0
C      1  0.4935480000000  0.5038720000000  0.5769940000000 1.0
C      1  0.4855810000000  0.5487700000000  0.5837790000000 1.0
C      1  0.5149330000000  0.5440720000000  0.5906820000000 1.0
C      1  0.4887230000000  0.5656930000000  0.4507190000000 1.0
C      1  0.4465740000000  0.5067460000000  0.4270860000000 1.0
C      1  0.5308880000000  0.5618450000000  0.5707920000000 1.0
C      1  0.4379360000000  0.4652010000000  0.5499500000000 1.0
C      1  0.4815720000000  0.5342400000000  0.4145710000000 1.0
C      1  0.4517580000000  0.4655960000000  0.4996040000000 1.0
C      1  0.5241340000000  0.4731700000000  0.5208950000000 1.0
C      1  0.5228670000000  0.5277310000000  0.5410200000000 1.0
C      1  0.4096560000000  0.5066300000000  0.4881240000000 1.0
C      1  0.4566970000000  0.5355610000000  0.4285930000000 1.0
C      1  0.4842660000000  0.4746510000000  0.5800390000000 1.0
C      1  0.5067060000000  0.4774930000000  0.4719720000000 1.0
C      1  0.5940400000000  0.5153680000000  0.4982480000000 1.0
C      1  0.5742220000000  0.5122120000000  0.5421840000000 1.0
C      1  0.4572180000000  0.4239910000000  0.4778850000000 1.0
C      1  0.4782590000000  0.4237220000000  0.5485610000000 1.0
C      1  0.5568060000000  0.5375150000000  0.4157510000000 1.0
C      1  0.5389640000000  0.5799330000000  0.4733350000000 1.0
C      1  0.4650740000000  0.5852520000000  0.4896710000000 1.0
C      1  0.5832150000000  0.4867200000000  0.4999900000000 1.0
C      1  0.5267160000000  0.4585930000000  0.4266340000000 1.0
C      1  0.5795530000000  0.4753630000000  0.4459150000000 1.0
C      1  0.5785860000000  0.4620020000000  0.4707690000000 1.0
C      1  0.5125090000000  0.5652680000000  0.5090320000000 1.0
C      1  0.4683440000000  0.5449300000000  0.5075540000000 1.0
C      1  0.5321190000000  0.4190850000000  0.5192480000000 1.0
C      1  0.5189110000000  0.5085280000000  0.4165460000000 1.0
C      1  0.4467540000000  0.5666170000000  0.4758620000000 1.0
C      1  0.5139600000000  0.5064210000000  0.4705660000000 1.0
C      1  0.5439220000000  0.4940090000000  0.5158820000000 1.0
C      1  0.4828370000000  0.4058510000000  0.5240100000000 1.0
C      1  0.4113330000000  0.4943440000000  0.5162120000000 1.0
C      1  0.5311600000000  0.5206090000000  0.5140290000000 1.0
C      1  0.4852020000000  0.5597440000000  0.5559890000000 1.0
C      1  0.5186130000000  0.4589440000000  0.4938630000000 1.0
C      1  0.4585300000000  0.4442840000000  0.4302300000000 1.0
C      1  0.4721420000000  0.4906000000000  0.4214540000000 1.0
C      1  0.4153880000000  0.4906960000000  0.4651320000000 1.0
C      1  0.4756860000000  0.4619520000000  0.4144110000000 1.0
C      1  0.4911410000000  0.5082270000000  0.4087480000000 1.0
C      1  0.5736770000000  0.4835320000000  0.5384400000000 1.0
C      1  0.5538340000000  0.4449100000000  0.4735100000000 1.0
C      1  0.5580990000000  0.5521120000000  0.5651560000000 1.0
C      1  0.4907740000000  0.5862740000000  0.4732700000000 1.0
C      1  0.4759110000000  0.4316310000000  0.4542200000000 1.0
C      1  0.5452060000000  0.5052320000000  0.4678130000000 1.0
C      1  0.4709100000000  0.5227480000000  0.5847170000000 1.0
C      1  0.4993650000000  0.4844210000000  0.5287960000000 1.0
C      1  0.5451330000000  0.5037470000000  0.5783560000000 1.0
C      1  0.5540520000000  0.4859250000000  0.4894910000000 1.0
C      1  0.5816970000000  0.5537100000000  0.5197500000000 1.0
C      1  0.4975060000000  0.4360700000000  0.4926220000000 1.0
C      1  0.4623190000000  0.5517460000000  0.4538190000000 1.0
C      1  0.5189550000000  0.5135730000000  0.5904680000000 1.0
C      1  0.4391170000000  0.5041440000000  0.4551530000000 1.0
C      1  0.5591420000000  0.5335330000000  0.4640000000000 1.0
C      1  0.4645650000000  0.5848770000000  0.5184250000000 1.0
C      1  0.5056730000000  0.4298510000000  0.4623580000000 1.0
C      1  0.4658610000000  0.4742760000000  0.5558890000000 1.0
C      1  0.5488830000000  0.4354630000000  0.5009760000000 1.0
C      1  0.4975880000000  0.5090440000000  0.5461450000000 1.0
C      1  0.4371590000000  0.4221320000000  0.5246220000000 1.0
C      1  0.5136080000000  0.5577440000000  0.5454360000000 1.0
C      1  0.5706940000000  0.5644340000000  0.5431540000000 1.0
C      1  0.4271590000000  0.5544640000000  0.4946660000000 1.0
C      1  0.5302920000000  0.4450640000000  0.4535090000000 1.0
C      1  0.5024670000000  0.4534270000000  0.4133160000000 1.0
C      1  0.5287360000000  0.5362580000000  0.4168950000000 1.0
C      1  0.4934090000000  0.5224630000000  0.4497840000000 1.0
END
