TITL C-3577080-309-385 6.71211629950646e-08 125000 -422.226824862389 0 0 69 (C1) n - 1
REM
REM in /home/bkarasulu/work/CARBON/AIRSS/Generating-Clusters/EDIP-Nigel-Params/with-SteepDescent/Higher-Symm/SD-CG/HFTN-CG
REM
REM
REM
REM
REM
REM ./C.cell (12c818d87b63d06a65506943cc24bca4)
REM
REM compiler GCC version 9.2.1 20190827 (Red Hat 9.2.1-1)
REM options -cpp -mtune=generic -march=x86-64 -g -O0 -fpre-include=/usr/include/finclude/math-vector-fortran.h
REM seed 569578832 2027291527 15123791 1664252408 1953924687 56372296 -145787238 -678104573 32023157 -501815095 -1835722126 -1357898738 1071890491 1938879953 -61161327 1873337326 -1542736164 2090892018 1511214459 -876943867 1215903077 -310965073 1562850142 -380458597 471932941 1410838885 465760533 -1307612030 1602373588 -1718701194 52952323 -2065070202 -1495415367
REM
CELL 1.54180   50.00000   50.00000   50.00000   90.00000   90.00000   90.00000
LATT -1
SFAC C  
C      1  0.4505000000000  0.5551720000000  0.5033560000000 1.0
C      1  0.4882720000000  0.5564350000000  0.5494470000000 1.0
C      1  0.5445920000000  0.5579470000000  0.5261310000000 1.0
C      1  0.5363960000000  0.5536820000000  0.4687290000000 1.0
C      1  0.4791160000000  0.5591740000000  0.4504090000000 1.0
C      1  0.5388410000000  0.5410800000000  0.5513290000000 1.0
C      1  0.5635200000000  0.5428930000000  0.4775580000000 1.0
C      1  0.4981240000000  0.5405840000000  0.4359710000000 1.0
C      1  0.4422280000000  0.5386970000000  0.4800440000000 1.0
C      1  0.4633640000000  0.5388200000000  0.5499120000000 1.0
C      1  0.4974590000000  0.5108750000000  0.5678470000000 1.0
C      1  0.5674820000000  0.5129360000000  0.5223340000000 1.0
C      1  0.5423480000000  0.5138300000000  0.4429290000000 1.0
C      1  0.4553810000000  0.5181690000000  0.4378520000000 1.0
C      1  0.4297350000000  0.5137750000000  0.5187540000000 1.0
C      1  0.4909220000000  0.4610950000000  0.4510770000000 1.0
C      1  0.4470010000000  0.4554240000000  0.4846690000000 1.0
C      1  0.4685230000000  0.4538710000000  0.5480890000000 1.0
C      1  0.5402970000000  0.4552940000000  0.5459400000000 1.0
C      1  0.5562080000000  0.4592190000000  0.4736310000000 1.0
C      1  0.5353800000000  0.4781820000000  0.5641400000000 1.0
C      1  0.5763020000000  0.4792410000000  0.4831020000000 1.0
C      1  0.5067430000000  0.4772760000000  0.4318380000000 1.0
C      1  0.4352830000000  0.4763190000000  0.4645910000000 1.0
C      1  0.4486680000000  0.4759650000000  0.5488020000000 1.0
C      1  0.5561010000000  0.4968450000000  0.5676420000000 1.0
C      1  0.5857190000000  0.4989580000000  0.4652610000000 1.0
C      1  0.4928600000000  0.4947370000000  0.4151840000000 1.0
C      1  0.4151140000000  0.4933870000000  0.4750100000000 1.0
C      1  0.4501820000000  0.4933400000000  0.5709170000000 1.0
C      1  0.4649830000000  0.4332710000000  0.5285100000000 1.0
C      1  0.5142730000000  0.4418590000000  0.5396310000000 1.0
C      1  0.5432310000000  0.4447040000000  0.4982320000000 1.0
C      1  0.5053230000000  0.4514590000000  0.4767100000000 1.0
C      1  0.4697320000000  0.4367640000000  0.4813620000000 1.0
C      1  0.5522210000000  0.5153970000000  0.5469320000000 1.0
C      1  0.5643350000000  0.5170240000000  0.4631540000000 1.0
C      1  0.4819150000000  0.5193480000000  0.4233210000000 1.0
C      1  0.4234650000000  0.5170580000000  0.4893260000000 1.0
C      1  0.4688640000000  0.5130250000000  0.5625110000000 1.0
C      1  0.5669800000000  0.4858800000000  0.5102230000000 1.0
C      1  0.5242410000000  0.4907040000000  0.4504050000000 1.0
C      1  0.4565470000000  0.4970070000000  0.4598570000000 1.0
C      1  0.4470370000000  0.4896240000000  0.5228390000000 1.0
C      1  0.5090980000000  0.4869270000000  0.5558870000000 1.0
C      1  0.5212270000000  0.5776680000000  0.4826930000000 1.0
C      1  0.4906830000000  0.5756040000000  0.4764060000000 1.0
C      1  0.4759470000000  0.5711230000000  0.5020440000000 1.0
C      1  0.4951160000000  0.5700520000000  0.5234160000000 1.0
C      1  0.5223710000000  0.5751470000000  0.5132000000000 1.0
C      1  0.5104290000000  0.5386870000000  0.5624220000000 1.0
C      1  0.5639880000000  0.5399730000000  0.5080040000000 1.0
C      1  0.5281800000000  0.5412820000000  0.4405410000000 1.0
C      1  0.4520880000000  0.5443700000000  0.4524800000000 1.0
C      1  0.4432360000000  0.5397630000000  0.5281350000000 1.0
C      1  0.5517280000000  0.4625520000000  0.5199170000000 1.0
C      1  0.5285190000000  0.4732780000000  0.4749730000000 1.0
C      1  0.4838200000000  0.4875520000000  0.4679160000000 1.0
C      1  0.4616810000000  0.4777710000000  0.4992560000000 1.0
C      1  0.4952050000000  0.4651100000000  0.5393250000000 1.0
C      1  0.4994240000000  0.5263340000000  0.5268620000000 1.0
C      1  0.5273320000000  0.5266030000000  0.5117040000000 1.0
C      1  0.5206280000000  0.5334490000000  0.4834600000000 1.0
C      1  0.4920140000000  0.5371010000000  0.4793460000000 1.0
C      1  0.4774220000000  0.5269010000000  0.5038820000000 1.0
C      1  0.4821550000000  0.4275650000000  0.5062760000000 1.0
C      1  0.5114900000000  0.4296750000000  0.5130720000000 1.0
C      1  0.4911310000000  0.4707090000000  0.5076180000000 1.0
C      1  0.4993830000000  0.4978710000000  0.4966150000000 1.0
END
