TITL C-3577091-527-389 1.81483871928346e-06 125000 -436.742070758387 0 0 71 (C1) n - 1
REM
REM in /home/bkarasulu/work/CARBON/AIRSS/Generating-Clusters/EDIP-Nigel-Params/with-SteepDescent/Higher-Symm/SD-CG/HFTN-CG
REM
REM
REM
REM
REM
REM ./C.cell (12c818d87b63d06a65506943cc24bca4)
REM
REM compiler GCC version 9.2.1 20190827 (Red Hat 9.2.1-1)
REM options -cpp -mtune=generic -march=x86-64 -g -O0 -fpre-include=/usr/include/finclude/math-vector-fortran.h
REM seed 656722571 -1883218441 -82156324 -17258973 -135258557 -891015057 368663534 79198759 -920913522 -2036542766 1959397115 -126555597 -1296190456 1709595934 -606321656 -1896494079 -1915864584 -92505223 -224263254 -206251910 -1272585006 -724599439 -1346747098 2138030315 190261956 -630305544 -2071704043 -1149461755 624143569 -1733861061 2045498222 -574343698 334623829
REM
CELL 1.54180   50.00000   50.00000   50.00000   90.00000   90.00000   90.00000
LATT -1
SFAC C  
C      1  0.5183070000000  0.4659840000000  0.5726420000000 1.0
C      1  0.5145230000000  0.5248160000000  0.5652090000000 1.0
C      1  0.5260730000000  0.5053600000000  0.5332320000000 1.0
C      1  0.5059780000000  0.4834200000000  0.5289470000000 1.0
C      1  0.4541780000000  0.5434010000000  0.5422040000000 1.0
C      1  0.4704750000000  0.4607970000000  0.5481890000000 1.0
C      1  0.4808310000000  0.5148950000000  0.4345230000000 1.0
C      1  0.4816300000000  0.4863620000000  0.4379920000000 1.0
C      1  0.5073390000000  0.4772690000000  0.4812730000000 1.0
C      1  0.5010500000000  0.5068510000000  0.4783880000000 1.0
C      1  0.4535090000000  0.4445800000000  0.4841800000000 1.0
C      1  0.4494740000000  0.5621410000000  0.4731250000000 1.0
C      1  0.4563700000000  0.4822450000000  0.5274490000000 1.0
C      1  0.4399340000000  0.5372930000000  0.5181970000000 1.0
C      1  0.5706420000000  0.4536150000000  0.5262890000000 1.0
C      1  0.5636980000000  0.5455390000000  0.5222710000000 1.0
C      1  0.4910680000000  0.4216920000000  0.4889890000000 1.0
C      1  0.4895460000000  0.5754830000000  0.4868160000000 1.0
C      1  0.5787100000000  0.4694610000000  0.5022860000000 1.0
C      1  0.5713280000000  0.5209690000000  0.5094450000000 1.0
C      1  0.5040380000000  0.5305650000000  0.4412410000000 1.0
C      1  0.5072910000000  0.4723040000000  0.4373540000000 1.0
C      1  0.4881640000000  0.5080160000000  0.5609650000000 1.0
C      1  0.4948750000000  0.4781400000000  0.5556300000000 1.0
C      1  0.4094760000000  0.5130540000000  0.4930650000000 1.0
C      1  0.4236730000000  0.4887050000000  0.4881880000000 1.0
C      1  0.4253260000000  0.4880880000000  0.5197180000000 1.0
C      1  0.4176350000000  0.5188510000000  0.5202310000000 1.0
C      1  0.4991110000000  0.4380410000000  0.5120520000000 1.0
C      1  0.4825660000000  0.5519370000000  0.5059420000000 1.0
C      1  0.5349430000000  0.4356360000000  0.4832540000000 1.0
C      1  0.5367620000000  0.5618890000000  0.4775450000000 1.0
C      1  0.5353590000000  0.4656010000000  0.4798130000000 1.0
C      1  0.5269930000000  0.5211130000000  0.4913940000000 1.0
C      1  0.5533050000000  0.4759720000000  0.4581470000000 1.0
C      1  0.5447530000000  0.5323150000000  0.4698660000000 1.0
C      1  0.4559880000000  0.4741510000000  0.4432910000000 1.0
C      1  0.4552440000000  0.5256500000000  0.4418400000000 1.0
C      1  0.4933320000000  0.5220800000000  0.5108710000000 1.0
C      1  0.4950800000000  0.4676340000000  0.5052800000000 1.0
C      1  0.5024850000000  0.5582810000000  0.4428900000000 1.0
C      1  0.5073010000000  0.4450440000000  0.4456350000000 1.0
C      1  0.4505100000000  0.4510290000000  0.4571730000000 1.0
C      1  0.4482110000000  0.5517220000000  0.4474260000000 1.0
C      1  0.4521360000000  0.4886600000000  0.4786410000000 1.0
C      1  0.4674390000000  0.5151060000000  0.4763540000000 1.0
C      1  0.5279660000000  0.4412430000000  0.5594460000000 1.0
C      1  0.5185750000000  0.5506210000000  0.5500770000000 1.0
C      1  0.5724240000000  0.5204000000000  0.4786090000000 1.0
C      1  0.5752000000000  0.4918040000000  0.4712430000000 1.0
C      1  0.5392430000000  0.5068350000000  0.5617060000000 1.0
C      1  0.5391720000000  0.4839220000000  0.5772580000000 1.0
C      1  0.5430320000000  0.4453200000000  0.5332330000000 1.0
C      1  0.5346730000000  0.5483440000000  0.5255380000000 1.0
C      1  0.4958560000000  0.5663080000000  0.5490110000000 1.0
C      1  0.5041090000000  0.4262720000000  0.5561480000000 1.0
C      1  0.5108810000000  0.5709900000000  0.4665410000000 1.0
C      1  0.5115190000000  0.4265560000000  0.4670210000000 1.0
C      1  0.4741900000000  0.5618640000000  0.5327620000000 1.0
C      1  0.4837170000000  0.4347400000000  0.5385900000000 1.0
C      1  0.4636180000000  0.4186960000000  0.4855740000000 1.0
C      1  0.4654310000000  0.5849800000000  0.4755850000000 1.0
C      1  0.5381620000000  0.5691900000000  0.5056600000000 1.0
C      1  0.5283000000000  0.4312800000000  0.5123120000000 1.0
C      1  0.5296230000000  0.5187270000000  0.4469690000000 1.0
C      1  0.5320500000000  0.4895220000000  0.4421880000000 1.0
C      1  0.4650260000000  0.4698090000000  0.5000850000000 1.0
C      1  0.4571360000000  0.5408420000000  0.4928110000000 1.0
C      1  0.5494800000000  0.4764440000000  0.5032920000000 1.0
C      1  0.5448840000000  0.5052720000000  0.5100510000000 1.0
C      1  0.4723280000000  0.5117970000000  0.5341650000000 1.0
END
