TITL C-3577080-309-318 1.21042953142945e-06 125000 -1146.83137285689 0 0 186 (C1) n - 1
REM
REM in /home/bkarasulu/work/CARBON/AIRSS/Generating-Clusters/EDIP-Nigel-Params/with-SteepDescent/Higher-Symm/SD-CG/HFTN-CG
REM
REM
REM
REM
REM
REM ./C.cell (12c818d87b63d06a65506943cc24bca4)
REM
REM compiler GCC version 9.2.1 20190827 (Red Hat 9.2.1-1)
REM options -cpp -mtune=generic -march=x86-64 -g -O0 -fpre-include=/usr/include/finclude/math-vector-fortran.h
REM seed -1289703845 1177744449 255292412 713048723 2055572394 -541269927 -1063854270 -588528968 -1214490451 174498891 -1557075283 -1086360160 311820658 1651479934 1514850825 784822515 560359145 2106943454 1114730206 800939219 -212379660 -303779436 606331809 -2026692509 1643924874 1308347968 -609921382 -605703022 556093859 -751967668 1565222229 1626778085 1975247822
REM
CELL 1.54180   50.00000   50.00000   50.00000   90.00000   90.00000   90.00000
LATT -1
SFAC C  
C      1  0.4487450000000  0.4960450000000  0.5910140000000 1.0
C      1  0.5148110000000  0.5791490000000  0.4596810000000 1.0
C      1  0.5773110000000  0.4502860000000  0.5163260000000 1.0
C      1  0.5471270000000  0.4911280000000  0.5820890000000 1.0
C      1  0.4477170000000  0.4711810000000  0.4163440000000 1.0
C      1  0.5378170000000  0.5110260000000  0.4295530000000 1.0
C      1  0.4835100000000  0.4408950000000  0.4613470000000 1.0
C      1  0.5092010000000  0.4127120000000  0.5418740000000 1.0
C      1  0.4894420000000  0.5714010000000  0.5405530000000 1.0
C      1  0.4324140000000  0.5454380000000  0.5142510000000 1.0
C      1  0.5628980000000  0.5389600000000  0.4859660000000 1.0
C      1  0.4107850000000  0.4589140000000  0.4894740000000 1.0
C      1  0.4508510000000  0.4994840000000  0.4185530000000 1.0
C      1  0.5201290000000  0.5705350000000  0.5379540000000 1.0
C      1  0.5799930000000  0.4480640000000  0.4869230000000 1.0
C      1  0.5362350000000  0.4797440000000  0.4330950000000 1.0
C      1  0.4492320000000  0.4672760000000  0.5913030000000 1.0
C      1  0.5440490000000  0.5193150000000  0.5873050000000 1.0
C      1  0.4803490000000  0.4075170000000  0.5434600000000 1.0
C      1  0.5137760000000  0.4395880000000  0.4579000000000 1.0
C      1  0.4864900000000  0.5703840000000  0.4648330000000 1.0
C      1  0.4359460000000  0.5395040000000  0.4832550000000 1.0
C      1  0.5692050000000  0.5423360000000  0.5159480000000 1.0
C      1  0.4109020000000  0.4515560000000  0.5176830000000 1.0
C      1  0.5410430000000  0.4948000000000  0.3826140000000 1.0
C      1  0.4993910000000  0.3679320000000  0.5276330000000 1.0
C      1  0.3693290000000  0.5415120000000  0.4924380000000 1.0
C      1  0.4781340000000  0.5144280000000  0.3681320000000 1.0
C      1  0.5377230000000  0.5250070000000  0.6154230000000 1.0
C      1  0.4778010000000  0.4876420000000  0.6277890000000 1.0
C      1  0.5063740000000  0.6152030000000  0.5521550000000 1.0
C      1  0.4890940000000  0.6350800000000  0.4532470000000 1.0
C      1  0.5166440000000  0.3740140000000  0.4613010000000 1.0
C      1  0.6114220000000  0.4496520000000  0.4793850000000 1.0
C      1  0.3727630000000  0.4832990000000  0.5020930000000 1.0
C      1  0.6331530000000  0.5412000000000  0.5121830000000 1.0
C      1  0.5281160000000  0.5014570000000  0.6273700000000 1.0
C      1  0.4914270000000  0.3714750000000  0.4526700000000 1.0
C      1  0.3658150000000  0.5515580000000  0.5169560000000 1.0
C      1  0.4666670000000  0.5072890000000  0.6109360000000 1.0
C      1  0.5348880000000  0.5161790000000  0.3991620000000 1.0
C      1  0.4700100000000  0.4905300000000  0.3592110000000 1.0
C      1  0.5155760000000  0.6380410000000  0.4540920000000 1.0
C      1  0.4830620000000  0.6005840000000  0.5468720000000 1.0
C      1  0.5184480000000  0.3844980000000  0.5399130000000 1.0
C      1  0.6237980000000  0.4586830000000  0.5028870000000 1.0
C      1  0.3868250000000  0.4723130000000  0.4806000000000 1.0
C      1  0.6327780000000  0.5440530000000  0.4855890000000 1.0
C      1  0.5285440000000  0.3947010000000  0.4732010000000 1.0
C      1  0.3797030000000  0.4870730000000  0.5281190000000 1.0
C      1  0.4809920000000  0.5262570000000  0.3933800000000 1.0
C      1  0.4708750000000  0.6175050000000  0.4614820000000 1.0
C      1  0.5308100000000  0.6172180000000  0.5400830000000 1.0
C      1  0.4751610000000  0.3714230000000  0.5152010000000 1.0
C      1  0.6146830000000  0.5314280000000  0.5287820000000 1.0
C      1  0.3880730000000  0.5283730000000  0.4786620000000 1.0
C      1  0.6060200000000  0.4723020000000  0.4603130000000 1.0
C      1  0.5345260000000  0.4687280000000  0.3844570000000 1.0
C      1  0.4844450000000  0.4612750000000  0.6229400000000 1.0
C      1  0.5254000000000  0.5502660000000  0.6143000000000 1.0
C      1  0.5444690000000  0.3838890000000  0.5306080000000 1.0
C      1  0.3903570000000  0.4876510000000  0.4573760000000 1.0
C      1  0.4832820000000  0.5266520000000  0.6003610000000 1.0
C      1  0.4692540000000  0.6108150000000  0.5242940000000 1.0
C      1  0.5345140000000  0.6221710000000  0.4645250000000 1.0
C      1  0.4766940000000  0.3929810000000  0.4593400000000 1.0
C      1  0.6108930000000  0.5353660000000  0.4728310000000 1.0
C      1  0.3856840000000  0.5481000000000  0.5345160000000 1.0
C      1  0.6161950000000  0.4737510000000  0.5242200000000 1.0
C      1  0.5264830000000  0.4753130000000  0.6187990000000 1.0
C      1  0.4653130000000  0.4662630000000  0.3697280000000 1.0
C      1  0.5275810000000  0.5400510000000  0.3864710000000 1.0
C      1  0.4550470000000  0.5042920000000  0.5173140000000 1.0
C      1  0.4908260000000  0.5112460000000  0.4497390000000 1.0
C      1  0.5310250000000  0.4721280000000  0.4862930000000 1.0
C      1  0.5320600000000  0.5221690000000  0.5412510000000 1.0
C      1  0.4696550000000  0.5249710000000  0.4722390000000 1.0
C      1  0.5435550000000  0.4971230000000  0.4926760000000 1.0
C      1  0.5200150000000  0.4695570000000  0.4592690000000 1.0
C      1  0.4723390000000  0.4844420000000  0.5320260000000 1.0
C      1  0.5129260000000  0.4999060000000  0.5387600000000 1.0
C      1  0.4876170000000  0.5473970000000  0.4870000000000 1.0
C      1  0.5257050000000  0.5447040000000  0.5232150000000 1.0
C      1  0.4866400000000  0.4701430000000  0.5091520000000 1.0
C      1  0.4579030000000  0.4987830000000  0.4864440000000 1.0
C      1  0.4897520000000  0.4961880000000  0.5569630000000 1.0
C      1  0.5154350000000  0.4608770000000  0.5100130000000 1.0
C      1  0.5341320000000  0.5232960000000  0.4796290000000 1.0
C      1  0.4580990000000  0.5343080000000  0.5235510000000 1.0
C      1  0.5530350000000  0.4961150000000  0.5218770000000 1.0
C      1  0.5288820000000  0.4767920000000  0.5317960000000 1.0
C      1  0.4940270000000  0.4836270000000  0.4606450000000 1.0
C      1  0.5197680000000  0.5213890000000  0.4512760000000 1.0
C      1  0.4751760000000  0.5584240000000  0.5133120000000 1.0
C      1  0.5146620000000  0.5374040000000  0.4968000000000 1.0
C      1  0.4750150000000  0.4732210000000  0.4813720000000 1.0
C      1  0.4822860000000  0.5953370000000  0.5031590000000 1.0
C      1  0.5865100000000  0.5222800000000  0.4763410000000 1.0
C      1  0.5266360000000  0.4712960000000  0.5897110000000 1.0
C      1  0.5160430000000  0.4283140000000  0.5096670000000 1.0
C      1  0.4740830000000  0.4168080000000  0.4752350000000 1.0
C      1  0.5295820000000  0.5972920000000  0.4778490000000 1.0
C      1  0.4246260000000  0.4941210000000  0.4859160000000 1.0
C      1  0.5871850000000  0.4777000000000  0.5243350000000 1.0
C      1  0.4105970000000  0.5354890000000  0.5345880000000 1.0
C      1  0.4905360000000  0.5271430000000  0.5724360000000 1.0
C      1  0.5020140000000  0.5460430000000  0.3963210000000 1.0
C      1  0.4705660000000  0.4626230000000  0.3978210000000 1.0
C      1  0.4681660000000  0.5934050000000  0.4762110000000 1.0
C      1  0.5881020000000  0.5210460000000  0.5285280000000 1.0
C      1  0.5195770000000  0.4677220000000  0.4091960000000 1.0
C      1  0.5307320000000  0.4225030000000  0.4791040000000 1.0
C      1  0.4695470000000  0.4000960000000  0.5175080000000 1.0
C      1  0.5306700000000  0.5949210000000  0.5213490000000 1.0
C      1  0.4075600000000  0.4792290000000  0.5316590000000 1.0
C      1  0.5791250000000  0.4785680000000  0.4746590000000 1.0
C      1  0.4146060000000  0.5204840000000  0.4744320000000 1.0
C      1  0.4796680000000  0.5067930000000  0.4173420000000 1.0
C      1  0.5221120000000  0.5305970000000  0.5696190000000 1.0
C      1  0.4787030000000  0.4583040000000  0.5941680000000 1.0
C      1  0.4275610000000  0.4289920000000  0.5273680000000 1.0
C      1  0.4298850000000  0.5123420000000  0.4337320000000 1.0
C      1  0.5186260000000  0.4297350000000  0.4308760000000 1.0
C      1  0.5749140000000  0.5708110000000  0.5190420000000 1.0
C      1  0.4338030000000  0.5661360000000  0.4707750000000 1.0
C      1  0.5596600000000  0.4302360000000  0.4723790000000 1.0
C      1  0.5657190000000  0.4733850000000  0.4329990000000 1.0
C      1  0.4299670000000  0.4597070000000  0.5709510000000 1.0
C      1  0.5690430000000  0.5312770000000  0.5767260000000 1.0
C      1  0.4770640000000  0.5595580000000  0.4378600000000 1.0
C      1  0.5337840000000  0.5720640000000  0.5662690000000 1.0
C      1  0.4662750000000  0.4203460000000  0.5641100000000 1.0
C      1  0.4457150000000  0.4221990000000  0.4812750000000 1.0
C      1  0.4320290000000  0.5061890000000  0.5691860000000 1.0
C      1  0.5118450000000  0.4278240000000  0.5686840000000 1.0
C      1  0.5611460000000  0.5669190000000  0.4752430000000 1.0
C      1  0.4342720000000  0.5745290000000  0.5169410000000 1.0
C      1  0.5592730000000  0.4347470000000  0.5327770000000 1.0
C      1  0.5674750000000  0.4868930000000  0.5624810000000 1.0
C      1  0.4227460000000  0.4650940000000  0.4304730000000 1.0
C      1  0.5649700000000  0.5205250000000  0.4380750000000 1.0
C      1  0.4762980000000  0.5515510000000  0.5599740000000 1.0
C      1  0.5237630000000  0.5698420000000  0.4339170000000 1.0
C      1  0.4723430000000  0.4387750000000  0.4340290000000 1.0
C      1  0.4268140000000  0.5418420000000  0.4284500000000 1.0
C      1  0.5455930000000  0.4253470000000  0.4234660000000 1.0
C      1  0.4193750000000  0.4165790000000  0.5529840000000 1.0
C      1  0.5772510000000  0.4473910000000  0.4298370000000 1.0
C      1  0.4136340000000  0.4365060000000  0.5732830000000 1.0
C      1  0.5775620000000  0.5570000000000  0.5840830000000 1.0
C      1  0.4512820000000  0.5581210000000  0.4250570000000 1.0
C      1  0.5629780000000  0.5743990000000  0.5678500000000 1.0
C      1  0.4411200000000  0.4092080000000  0.5711580000000 1.0
C      1  0.5752780000000  0.5814930000000  0.5442700000000 1.0
C      1  0.4192590000000  0.5644270000000  0.4462760000000 1.0
C      1  0.5662930000000  0.4248010000000  0.4440020000000 1.0
C      1  0.4258130000000  0.5339500000000  0.5604430000000 1.0
C      1  0.5347730000000  0.4442610000000  0.5772890000000 1.0
C      1  0.4306630000000  0.4193690000000  0.4555970000000 1.0
C      1  0.5801970000000  0.4622630000000  0.5649670000000 1.0
C      1  0.4142050000000  0.4402060000000  0.4426570000000 1.0
C      1  0.5724960000000  0.5488730000000  0.4303870000000 1.0
C      1  0.4466840000000  0.5566260000000  0.5600860000000 1.0
C      1  0.5500030000000  0.5666500000000  0.4222120000000 1.0
C      1  0.4477360000000  0.4234790000000  0.4319320000000 1.0
C      1  0.5759820000000  0.5702320000000  0.4508780000000 1.0
C      1  0.4391150000000  0.5798990000000  0.5445170000000 1.0
C      1  0.5598350000000  0.4430400000000  0.5607470000000 1.0
C      1  0.5812710000000  0.5125120000000  0.5574550000000 1.0
C      1  0.5195360000000  0.5635360000000  0.5902950000000 1.0
C      1  0.4169190000000  0.4827120000000  0.5600980000000 1.0
C      1  0.5830940000000  0.4965410000000  0.4402900000000 1.0
C      1  0.4099960000000  0.4902370000000  0.4374260000000 1.0
C      1  0.4854680000000  0.4309660000000  0.5826920000000 1.0
C      1  0.5004780000000  0.5595330000000  0.4213400000000 1.0
C      1  0.4955080000000  0.4373810000000  0.4137990000000 1.0
C      1  0.5608080000000  0.5862860000000  0.4983150000000 1.0
C      1  0.4411350000000  0.4111410000000  0.5083990000000 1.0
C      1  0.5522680000000  0.4090940000000  0.5254990000000 1.0
C      1  0.4332430000000  0.5871080000000  0.4906190000000 1.0
C      1  0.4246870000000  0.4980790000000  0.5160030000000 1.0
C      1  0.5112690000000  0.6022000000000  0.5005890000000 1.0
C      1  0.4889920000000  0.4146700000000  0.5004590000000 1.0
C      1  0.5871540000000  0.4987610000000  0.4963870000000 1.0
C      1  0.4980590000000  0.4765430000000  0.5792150000000 1.0
C      1  0.4924560000000  0.4810070000000  0.4060790000000 1.0
END
