TITL C-3577081-279-193 -0.00010033605350498 125000 -662.87934482209 0 0 105 (C1) n - 1
REM
REM in /home/bkarasulu/work/CARBON/AIRSS/Generating-Clusters/EDIP-Nigel-Params/with-SteepDescent/Higher-Symm/SD-CG/HFTN-CG
REM
REM
REM
REM
REM
REM ./C.cell (12c818d87b63d06a65506943cc24bca4)
REM
REM compiler GCC version 9.2.1 20190827 (Red Hat 9.2.1-1)
REM options -cpp -mtune=generic -march=x86-64 -g -O0 -fpre-include=/usr/include/finclude/math-vector-fortran.h
REM seed 2126879183 664376728 -1980374633 996091909 -1822580817 1796329227 -1944984807 -1065162449 -1123264848 -1263960713 -697758105 434532268 -2025793641 1688525241 -1374286118 -210736955 -1928691362 -106640640 -1335325874 -529987539 -1636019606 -1239204417 1667275917 -452941983 -55972809 -1064703248 1557702389 1856615607 -985305058 372503363 1558321436 -2004211750 27121921
REM
CELL 1.54180   50.00000   50.00000   50.00000   90.00000   90.00000   90.00000
LATT -1
SFAC C  
C      1  0.4683440000000  0.5442770000000  0.4330970000000 1.0
C      1  0.5538730000000  0.5064150000000  0.4344040000000 1.0
C      1  0.4791040000000  0.4538060000000  0.4375210000000 1.0
C      1  0.4696720000000  0.5427310000000  0.5614040000000 1.0
C      1  0.5528820000000  0.5055660000000  0.5629840000000 1.0
C      1  0.4772550000000  0.4520300000000  0.5647440000000 1.0
C      1  0.5186060000000  0.4553420000000  0.5165190000000 1.0
C      1  0.4550670000000  0.5040110000000  0.5161790000000 1.0
C      1  0.5223770000000  0.5321980000000  0.5207420000000 1.0
C      1  0.5203680000000  0.4566430000000  0.4850770000000 1.0
C      1  0.4535710000000  0.5071110000000  0.4859520000000 1.0
C      1  0.5231610000000  0.5332420000000  0.4887460000000 1.0
C      1  0.4990480000000  0.4323910000000  0.4448710000000 1.0
C      1  0.4385500000000  0.5395470000000  0.4392600000000 1.0
C      1  0.5633430000000  0.5340570000000  0.4415540000000 1.0
C      1  0.4969630000000  0.4320930000000  0.5551530000000 1.0
C      1  0.4418680000000  0.5363740000000  0.5526460000000 1.0
C      1  0.5641270000000  0.5334940000000  0.5582630000000 1.0
C      1  0.4487270000000  0.4597910000000  0.5564230000000 1.0
C      1  0.4920810000000  0.5615060000000  0.5509400000000 1.0
C      1  0.5583110000000  0.4764600000000  0.5524200000000 1.0
C      1  0.4505950000000  0.4638090000000  0.4464210000000 1.0
C      1  0.4903230000000  0.5644420000000  0.4402650000000 1.0
C      1  0.5620440000000  0.4778160000000  0.4415770000000 1.0
C      1  0.5882720000000  0.4831690000000  0.5133070000000 1.0
C      1  0.4416250000000  0.4318880000000  0.5145430000000 1.0
C      1  0.4727350000000  0.5841890000000  0.5099990000000 1.0
C      1  0.5894990000000  0.4871110000000  0.4830630000000 1.0
C      1  0.4402980000000  0.4349820000000  0.4851420000000 1.0
C      1  0.4689500000000  0.5844200000000  0.4802660000000 1.0
C      1  0.4656660000000  0.4265320000000  0.4744290000000 1.0
C      1  0.4509980000000  0.5628610000000  0.4749410000000 1.0
C      1  0.5762250000000  0.5123320000000  0.4820080000000 1.0
C      1  0.4675640000000  0.4218070000000  0.5184460000000 1.0
C      1  0.4513570000000  0.5675450000000  0.5189340000000 1.0
C      1  0.5758660000000  0.5069490000000  0.5253090000000 1.0
C      1  0.4307370000000  0.5105680000000  0.4433290000000 1.0
C      1  0.5417020000000  0.5552800000000  0.4455140000000 1.0
C      1  0.5281460000000  0.4376390000000  0.4460330000000 1.0
C      1  0.4308340000000  0.5089580000000  0.5526480000000 1.0
C      1  0.5424870000000  0.5536520000000  0.5538130000000 1.0
C      1  0.5261590000000  0.4362900000000  0.5553390000000 1.0
C      1  0.4970710000000  0.5234030000000  0.4768200000000 1.0
C      1  0.5234060000000  0.4851270000000  0.4769490000000 1.0
C      1  0.4970980000000  0.4947080000000  0.4723800000000 1.0
C      1  0.4957390000000  0.5173880000000  0.5286410000000 1.0
C      1  0.5159240000000  0.4840550000000  0.5290190000000 1.0
C      1  0.4776210000000  0.4832250000000  0.5243900000000 1.0
C      1  0.4484550000000  0.4897030000000  0.4328390000000 1.0
C      1  0.5160380000000  0.5529800000000  0.4304310000000 1.0
C      1  0.5393220000000  0.4609620000000  0.4315600000000 1.0
C      1  0.4460860000000  0.4877150000000  0.5665260000000 1.0
C      1  0.5158060000000  0.5502320000000  0.5643930000000 1.0
C      1  0.5364280000000  0.4613650000000  0.5655180000000 1.0
C      1  0.5823320000000  0.5344100000000  0.5330230000000 1.0
C      1  0.4913680000000  0.4162570000000  0.5316460000000 1.0
C      1  0.4312400000000  0.5510250000000  0.5298090000000 1.0
C      1  0.5811900000000  0.5353960000000  0.4660680000000 1.0
C      1  0.4913140000000  0.4160200000000  0.4676130000000 1.0
C      1  0.4263240000000  0.5542870000000  0.4633690000000 1.0
C      1  0.5298510000000  0.5054680000000  0.4178250000000 1.0
C      1  0.4906360000000  0.4736160000000  0.4189660000000 1.0
C      1  0.4817040000000  0.5237470000000  0.4166810000000 1.0
C      1  0.5292250000000  0.5049880000000  0.5809400000000 1.0
C      1  0.4888590000000  0.4730300000000  0.5815300000000 1.0
C      1  0.4810250000000  0.5231860000000  0.5803050000000 1.0
C      1  0.4132910000000  0.5338500000000  0.5126530000000 1.0
C      1  0.5706640000000  0.5562550000000  0.5145640000000 1.0
C      1  0.5153670000000  0.4113190000000  0.5154830000000 1.0
C      1  0.4123550000000  0.5331360000000  0.4817190000000 1.0
C      1  0.5690630000000  0.5561580000000  0.4841710000000 1.0
C      1  0.5148730000000  0.4128590000000  0.4858630000000 1.0
C      1  0.4967650000000  0.5755590000000  0.5245080000000 1.0
C      1  0.5708420000000  0.4632500000000  0.5277790000000 1.0
C      1  0.4315380000000  0.4515820000000  0.5331330000000 1.0
C      1  0.4917760000000  0.5835620000000  0.4628150000000 1.0
C      1  0.5774390000000  0.4677440000000  0.4652240000000 1.0
C      1  0.4339180000000  0.4598190000000  0.4712580000000 1.0
C      1  0.5130130000000  0.6004730000000  0.4692280000000 1.0
C      1  0.5840440000000  0.4412660000000  0.4706800000000 1.0
C      1  0.4149520000000  0.4805380000000  0.4819950000000 1.0
C      1  0.5238780000000  0.5824920000000  0.5149730000000 1.0
C      1  0.5591490000000  0.4393350000000  0.5148750000000 1.0
C      1  0.4053130000000  0.4594500000000  0.5277620000000 1.0
C      1  0.5379290000000  0.5047550000000  0.5215090000000 1.0
C      1  0.4865030000000  0.4552910000000  0.5110130000000 1.0
C      1  0.4698470000000  0.5330070000000  0.5187970000000 1.0
C      1  0.5397840000000  0.5064340000000  0.4903710000000 1.0
C      1  0.4878010000000  0.4585620000000  0.4785190000000 1.0
C      1  0.4705890000000  0.5320190000000  0.4869600000000 1.0
C      1  0.5106820000000  0.5277310000000  0.4168200000000 1.0
C      1  0.5198690000000  0.4781270000000  0.4172320000000 1.0
C      1  0.4720620000000  0.4961790000000  0.4170530000000 1.0
C      1  0.5101290000000  0.5276050000000  0.5818220000000 1.0
C      1  0.5180840000000  0.4781310000000  0.5808620000000 1.0
C      1  0.4702460000000  0.4956250000000  0.5816960000000 1.0
C      1  0.4262390000000  0.5073910000000  0.4729790000000 1.0
C      1  0.5403640000000  0.5588610000000  0.4756320000000 1.0
C      1  0.5383070000000  0.4243640000000  0.4713790000000 1.0
C      1  0.4172270000000  0.5066360000000  0.5253400000000 1.0
C      1  0.5445020000000  0.5641100000000  0.5268400000000 1.0
C      1  0.5379530000000  0.4243510000000  0.5304110000000 1.0
C      1  0.5631180000000  0.4316190000000  0.4865520000000 1.0
C      1  0.4075640000000  0.4818820000000  0.5112750000000 1.0
C      1  0.5295190000000  0.5850570000000  0.4859450000000 1.0
END
