TITL C-3578198-8939-268 -7.65263022187829e-07 125000 -926.7382231297 0 0 149 (C1) n - 1
REM
REM in /home/bkarasulu/work/CARBON/AIRSS/Generating-Clusters/EDIP-Nigel-Params/with-SteepDescent/Higher-Symm/SD-CG/HFTN-CG
REM
REM
REM
REM
REM
REM ./C.cell (12c818d87b63d06a65506943cc24bca4)
REM
REM compiler GCC version 9.2.1 20190827 (Red Hat 9.2.1-1)
REM options -cpp -mtune=generic -march=x86-64 -g -O0 -fpre-include=/usr/include/finclude/math-vector-fortran.h
REM seed -1588189097 1526561710 1306433156 63142095 869568495 -1067288892 1580388907 917276281 -2101825026 1565523015 1299298761 -1203473531 -1044479050 -1306898857 -1556260761 -1932410868 -1829062247 -1214378423 -386949037 -940413899 1642474472 -909613088 45129558 1137926234 -1474004934 -639218237 1750752316 1145164784 -577069556 1778698021 1622688143 -206251437 698199555
REM
CELL 1.54180   50.00000   50.00000   50.00000   90.00000   90.00000   90.00000
LATT -1
SFAC C  
C      1  0.5634060000000  0.4693220000000  0.4269700000000 1.0
C      1  0.5599750000000  0.5571670000000  0.4500500000000 1.0
C      1  0.5558390000000  0.5586410000000  0.5358440000000 1.0
C      1  0.5756190000000  0.4823340000000  0.5702170000000 1.0
C      1  0.5754010000000  0.4195560000000  0.5079410000000 1.0
C      1  0.4381260000000  0.5267810000000  0.4298150000000 1.0
C      1  0.4430540000000  0.4494230000000  0.4560240000000 1.0
C      1  0.4312020000000  0.4472070000000  0.5350650000000 1.0
C      1  0.4223290000000  0.5230370000000  0.5803380000000 1.0
C      1  0.4355670000000  0.5765710000000  0.5096600000000 1.0
C      1  0.4142740000000  0.4983170000000  0.5352790000000 1.0
C      1  0.4092950000000  0.4741410000000  0.4993910000000 1.0
C      1  0.4167220000000  0.4890460000000  0.4519390000000 1.0
C      1  0.4171090000000  0.5482280000000  0.4716560000000 1.0
C      1  0.4285650000000  0.5410470000000  0.5404740000000 1.0
C      1  0.5933750000000  0.5141050000000  0.5373580000000 1.0
C      1  0.5830610000000  0.5474960000000  0.4979500000000 1.0
C      1  0.5836030000000  0.5103190000000  0.4390830000000 1.0
C      1  0.5811010000000  0.4482970000000  0.4705330000000 1.0
C      1  0.5804600000000  0.4602260000000  0.5321090000000 1.0
C      1  0.5031630000000  0.3883090000000  0.5022640000000 1.0
C      1  0.5179850000000  0.4762120000000  0.4074470000000 1.0
C      1  0.5167170000000  0.5863390000000  0.4392010000000 1.0
C      1  0.4960430000000  0.5899290000000  0.5711100000000 1.0
C      1  0.4967510000000  0.4770720000000  0.6073270000000 1.0
C      1  0.4772120000000  0.5995300000000  0.5039160000000 1.0
C      1  0.4804040000000  0.5161820000000  0.4057900000000 1.0
C      1  0.4989950000000  0.4073920000000  0.4236150000000 1.0
C      1  0.4979240000000  0.4065960000000  0.5579920000000 1.0
C      1  0.4976620000000  0.5254110000000  0.6136410000000 1.0
C      1  0.5044880000000  0.5678570000000  0.5888820000000 1.0
C      1  0.5217090000000  0.4513160000000  0.5765380000000 1.0
C      1  0.5238060000000  0.4006700000000  0.4729270000000 1.0
C      1  0.5276430000000  0.5039200000000  0.4173470000000 1.0
C      1  0.5083740000000  0.5781020000000  0.4754560000000 1.0
C      1  0.4930220000000  0.4410380000000  0.5723800000000 1.0
C      1  0.4787230000000  0.5559420000000  0.5997200000000 1.0
C      1  0.4762540000000  0.5737790000000  0.4757920000000 1.0
C      1  0.4726810000000  0.4913120000000  0.4228010000000 1.0
C      1  0.4940050000000  0.4033920000000  0.4612440000000 1.0
C      1  0.4501170000000  0.4266620000000  0.4742070000000 1.0
C      1  0.4260010000000  0.5002470000000  0.4263310000000 1.0
C      1  0.4268440000000  0.5745960000000  0.4820410000000 1.0
C      1  0.4430480000000  0.5387330000000  0.5668570000000 1.0
C      1  0.4476660000000  0.4612380000000  0.5547230000000 1.0
C      1  0.5682140000000  0.5662090000000  0.4790130000000 1.0
C      1  0.5753470000000  0.4934900000000  0.4167950000000 1.0
C      1  0.5708640000000  0.4227830000000  0.4811560000000 1.0
C      1  0.5697960000000  0.4561850000000  0.5790260000000 1.0
C      1  0.5446840000000  0.5502200000000  0.5612090000000 1.0
C      1  0.4764590000000  0.5307350000000  0.4516570000000 1.0
C      1  0.4876930000000  0.5276880000000  0.4984470000000 1.0
C      1  0.4908050000000  0.5077750000000  0.5414520000000 1.0
C      1  0.4837610000000  0.4722190000000  0.5096700000000 1.0
C      1  0.4911460000000  0.4885760000000  0.4687090000000 1.0
C      1  0.5213720000000  0.4916630000000  0.4722090000000 1.0
C      1  0.5150660000000  0.4590830000000  0.5066060000000 1.0
C      1  0.5230670000000  0.5018420000000  0.5280920000000 1.0
C      1  0.5163220000000  0.5350110000000  0.4992760000000 1.0
C      1  0.5268110000000  0.5369150000000  0.4522950000000 1.0
C      1  0.4718530000000  0.4846640000000  0.5351920000000 1.0
C      1  0.4598350000000  0.4575930000000  0.4962090000000 1.0
C      1  0.4699950000000  0.5016930000000  0.4522180000000 1.0
C      1  0.4731840000000  0.5435790000000  0.4778070000000 1.0
C      1  0.4767820000000  0.5330640000000  0.5255390000000 1.0
C      1  0.5464000000000  0.5163480000000  0.5435010000000 1.0
C      1  0.5266440000000  0.5531390000000  0.4788760000000 1.0
C      1  0.5325220000000  0.5072470000000  0.4486130000000 1.0
C      1  0.5319420000000  0.4609260000000  0.4773420000000 1.0
C      1  0.5328850000000  0.4737650000000  0.5249560000000 1.0
C      1  0.5081020000000  0.5276620000000  0.4103270000000 1.0
C      1  0.4978000000000  0.5803310000000  0.5125780000000 1.0
C      1  0.5109980000000  0.5203450000000  0.5873540000000 1.0
C      1  0.5198630000000  0.4216200000000  0.5438340000000 1.0
C      1  0.5152540000000  0.4293830000000  0.4329940000000 1.0
C      1  0.4915570000000  0.4647300000000  0.4198980000000 1.0
C      1  0.4894490000000  0.4144110000000  0.5054330000000 1.0
C      1  0.4773010000000  0.4861170000000  0.5881060000000 1.0
C      1  0.4727050000000  0.5771790000000  0.5563060000000 1.0
C      1  0.4928650000000  0.5695290000000  0.4350960000000 1.0
C      1  0.5459230000000  0.5820320000000  0.5208010000000 1.0
C      1  0.5520390000000  0.4991100000000  0.5675420000000 1.0
C      1  0.5575890000000  0.4189070000000  0.5516760000000 1.0
C      1  0.5588570000000  0.4250870000000  0.4386840000000 1.0
C      1  0.5607010000000  0.5379960000000  0.4065020000000 1.0
C      1  0.4464000000000  0.4337800000000  0.5124490000000 1.0
C      1  0.4303860000000  0.5014930000000  0.5959930000000 1.0
C      1  0.4257180000000  0.5884990000000  0.5535830000000 1.0
C      1  0.4409460000000  0.5740800000000  0.4364560000000 1.0
C      1  0.4433630000000  0.4528920000000  0.4246930000000 1.0
C      1  0.4657070000000  0.5663870000000  0.4198680000000 1.0
C      1  0.4519330000000  0.5974060000000  0.5466880000000 1.0
C      1  0.4565730000000  0.4993800000000  0.6051700000000 1.0
C      1  0.4662470000000  0.4149710000000  0.5238120000000 1.0
C      1  0.4695030000000  0.4409980000000  0.4168580000000 1.0
C      1  0.5393360000000  0.4311170000000  0.4173540000000 1.0
C      1  0.5377620000000  0.3980900000000  0.5358290000000 1.0
C      1  0.5328730000000  0.4993110000000  0.5892090000000 1.0
C      1  0.5202850000000  0.5939670000000  0.5277190000000 1.0
C      1  0.5362510000000  0.5537860000000  0.4085930000000 1.0
C      1  0.5483340000000  0.4391710000000  0.5723550000000 1.0
C      1  0.5432810000000  0.4253080000000  0.4670530000000 1.0
C      1  0.5543750000000  0.5094030000000  0.4028300000000 1.0
C      1  0.5485410000000  0.5817180000000  0.4923850000000 1.0
C      1  0.5193160000000  0.5465840000000  0.5750250000000 1.0
C      1  0.4598940000000  0.5596000000000  0.5769680000000 1.0
C      1  0.4479350000000  0.5851470000000  0.4634250000000 1.0
C      1  0.4456580000000  0.4814680000000  0.4150540000000 1.0
C      1  0.4794040000000  0.4221130000000  0.4783670000000 1.0
C      1  0.4705930000000  0.4614280000000  0.5723190000000 1.0
C      1  0.4589200000000  0.5367090000000  0.4113150000000 1.0
C      1  0.4513770000000  0.5998360000000  0.5169180000000 1.0
C      1  0.4693540000000  0.5226300000000  0.6167180000000 1.0
C      1  0.4720450000000  0.4152990000000  0.5516160000000 1.0
C      1  0.4733390000000  0.4154130000000  0.4301420000000 1.0
C      1  0.5429290000000  0.4593130000000  0.4090410000000 1.0
C      1  0.5309700000000  0.3884990000000  0.5089380000000 1.0
C      1  0.5221620000000  0.4728030000000  0.5968060000000 1.0
C      1  0.5164800000000  0.5990480000000  0.5547750000000 1.0
C      1  0.5409530000000  0.5724310000000  0.4306600000000 1.0
C      1  0.5708110000000  0.5210520000000  0.4957040000000 1.0
C      1  0.5683510000000  0.5074850000000  0.5226900000000 1.0
C      1  0.5619490000000  0.4766140000000  0.5154050000000 1.0
C      1  0.5624040000000  0.4699270000000  0.4814840000000 1.0
C      1  0.5717260000000  0.4968570000000  0.4650690000000 1.0
C      1  0.4394210000000  0.4807170000000  0.4953150000000 1.0
C      1  0.4446780000000  0.4977140000000  0.5232260000000 1.0
C      1  0.4466550000000  0.5279510000000  0.5195060000000 1.0
C      1  0.4247910000000  0.5224980000000  0.4881880000000 1.0
C      1  0.4390000000000  0.4996870000000  0.4697710000000 1.0
C      1  0.5769300000000  0.4312240000000  0.5327010000000 1.0
C      1  0.5781140000000  0.4476180000000  0.4404440000000 1.0
C      1  0.5767040000000  0.5390710000000  0.4321030000000 1.0
C      1  0.5821620000000  0.5494960000000  0.5278230000000 1.0
C      1  0.5967560000000  0.4883350000000  0.5509960000000 1.0
C      1  0.4205080000000  0.5691590000000  0.5333180000000 1.0
C      1  0.4240620000000  0.5492180000000  0.4421910000000 1.0
C      1  0.4168440000000  0.4601720000000  0.4525020000000 1.0
C      1  0.4077570000000  0.4614100000000  0.5257530000000 1.0
C      1  0.4050980000000  0.5183270000000  0.5562990000000 1.0
C      1  0.4841400000000  0.5616010000000  0.5326810000000 1.0
C      1  0.4898430000000  0.5079940000000  0.5711200000000 1.0
C      1  0.5109780000000  0.4317110000000  0.5166970000000 1.0
C      1  0.5009900000000  0.5413090000000  0.4370620000000 1.0
C      1  0.5045210000000  0.4544560000000  0.4438340000000 1.0
C      1  0.4035250000000  0.5052090000000  0.5046510000000 1.0
C      1  0.5918660000000  0.5067030000000  0.4826150000000 1.0
C      1  0.4832890000000  0.4975530000000  0.4942900000000 1.0
C      1  0.5284060000000  0.5090770000000  0.4983840000000 1.0
END
