TITL C-3577087-600-489 -1.80070478419871e-06 125000 -778.01666894254 0 0 124 (C1) n - 1
REM
REM in /home/bkarasulu/work/CARBON/AIRSS/Generating-Clusters/EDIP-Nigel-Params/with-SteepDescent/Higher-Symm/SD-CG/HFTN-CG
REM
REM
REM
REM
REM
REM ./C.cell (12c818d87b63d06a65506943cc24bca4)
REM
REM compiler GCC version 9.2.1 20190827 (Red Hat 9.2.1-1)
REM options -cpp -mtune=generic -march=x86-64 -g -O0 -fpre-include=/usr/include/finclude/math-vector-fortran.h
REM seed 1459682166 867899534 -1442868729 -503813105 -332670186 -2084281739 -372307104 1772594294 1399612122 1146959613 -424347600 -2023506471 788536541 2029460784 -688805251 -487672929 -1912448940 923851019 -1319620540 167770177 72909734 -518091977 -178854384 -1218436284 -954703785 1918428932 911095055 -1575923434 -536065608 3662519 -856691709 1474580280 -1694724704
REM
CELL 1.54180   50.00000   50.00000   50.00000   90.00000   90.00000   90.00000
LATT -1
SFAC C  
C      1  0.5610290000000  0.4601280000000  0.4162170000000 1.0
C      1  0.4235880000000  0.5504980000000  0.4921850000000 1.0
C      1  0.4236330000000  0.4346520000000  0.5110520000000 1.0
C      1  0.4156690000000  0.4650820000000  0.4668600000000 1.0
C      1  0.5314240000000  0.5670990000000  0.4207730000000 1.0
C      1  0.4676440000000  0.5801850000000  0.5512200000000 1.0
C      1  0.4444170000000  0.5577290000000  0.4727980000000 1.0
C      1  0.4353730000000  0.4493410000000  0.4543220000000 1.0
C      1  0.5414520000000  0.4950210000000  0.5682600000000 1.0
C      1  0.5578110000000  0.5438240000000  0.4733990000000 1.0
C      1  0.4535200000000  0.4160510000000  0.5375430000000 1.0
C      1  0.4655500000000  0.5164580000000  0.5116060000000 1.0
C      1  0.5074500000000  0.5539940000000  0.4309380000000 1.0
C      1  0.4574960000000  0.4010000000000  0.5118380000000 1.0
C      1  0.4522150000000  0.4294380000000  0.4713960000000 1.0
C      1  0.4152230000000  0.4789340000000  0.5729740000000 1.0
C      1  0.5058930000000  0.4517150000000  0.4895790000000 1.0
C      1  0.4960620000000  0.4369150000000  0.5539650000000 1.0
C      1  0.5379410000000  0.4312700000000  0.4561460000000 1.0
C      1  0.5056170000000  0.4617820000000  0.5656270000000 1.0
C      1  0.4628420000000  0.5331950000000  0.4807080000000 1.0
C      1  0.4369130000000  0.4138410000000  0.4932940000000 1.0
C      1  0.4844610000000  0.4094930000000  0.5004360000000 1.0
C      1  0.4823730000000  0.5701860000000  0.4333470000000 1.0
C      1  0.5228010000000  0.5355930000000  0.5111140000000 1.0
C      1  0.5484650000000  0.5589330000000  0.5167900000000 1.0
C      1  0.5533060000000  0.4282170000000  0.5096490000000 1.0
C      1  0.4427810000000  0.4951360000000  0.4325760000000 1.0
C      1  0.4541170000000  0.5766240000000  0.5249490000000 1.0
C      1  0.4822510000000  0.4181200000000  0.4626040000000 1.0
C      1  0.5161820000000  0.4825630000000  0.4140730000000 1.0
C      1  0.4613250000000  0.5598630000000  0.5718330000000 1.0
C      1  0.4773330000000  0.5313270000000  0.5352510000000 1.0
C      1  0.4832510000000  0.4389290000000  0.5057940000000 1.0
C      1  0.5772730000000  0.4751420000000  0.5474130000000 1.0
C      1  0.5096690000000  0.5620490000000  0.5672500000000 1.0
C      1  0.5178000000000  0.4252730000000  0.4767050000000 1.0
C      1  0.5537360000000  0.4552940000000  0.5524390000000 1.0
C      1  0.5312880000000  0.5844840000000  0.5103730000000 1.0
C      1  0.5500630000000  0.5205090000000  0.4156910000000 1.0
C      1  0.4973730000000  0.5815650000000  0.5482280000000 1.0
C      1  0.5212570000000  0.4385450000000  0.4343980000000 1.0
C      1  0.5692400000000  0.4956410000000  0.5252740000000 1.0
C      1  0.4344700000000  0.5549520000000  0.5192020000000 1.0
C      1  0.4477460000000  0.5121680000000  0.5774370000000 1.0
C      1  0.4385940000000  0.5463780000000  0.4459000000000 1.0
C      1  0.4875500000000  0.5535190000000  0.5851230000000 1.0
C      1  0.5568780000000  0.5547870000000  0.5460960000000 1.0
C      1  0.4929570000000  0.4376470000000  0.4419840000000 1.0
C      1  0.4409460000000  0.4596990000000  0.5065740000000 1.0
C      1  0.5843410000000  0.4891290000000  0.4447010000000 1.0
C      1  0.5016600000000  0.5799480000000  0.5185520000000 1.0
C      1  0.5740790000000  0.4618300000000  0.4412240000000 1.0
C      1  0.5414340000000  0.4997850000000  0.5384920000000 1.0
C      1  0.5569360000000  0.5151800000000  0.4696170000000 1.0
C      1  0.4592140000000  0.4958440000000  0.4730560000000 1.0
C      1  0.5940370000000  0.4596860000000  0.5046280000000 1.0
C      1  0.4774310000000  0.4588770000000  0.4313570000000 1.0
C      1  0.4875760000000  0.4807850000000  0.5789540000000 1.0
C      1  0.5722530000000  0.5059900000000  0.4252260000000 1.0
C      1  0.4195570000000  0.5070090000000  0.5795810000000 1.0
C      1  0.5096640000000  0.5446500000000  0.4611050000000 1.0
C      1  0.5325910000000  0.4097900000000  0.4979540000000 1.0
C      1  0.5176340000000  0.4233520000000  0.5394550000000 1.0
C      1  0.5327420000000  0.5573220000000  0.4735400000000 1.0
C      1  0.5882800000000  0.5193970000000  0.5278660000000 1.0
C      1  0.4592360000000  0.4853760000000  0.5736030000000 1.0
C      1  0.4974370000000  0.5104980000000  0.5461420000000 1.0
C      1  0.4918880000000  0.4815850000000  0.5285720000000 1.0
C      1  0.4048700000000  0.4902260000000  0.5478520000000 1.0
C      1  0.4304550000000  0.4810640000000  0.4864050000000 1.0
C      1  0.5343320000000  0.4654600000000  0.5720670000000 1.0
C      1  0.4871890000000  0.4740560000000  0.4659250000000 1.0
C      1  0.4520400000000  0.4679640000000  0.4400590000000 1.0
C      1  0.4729240000000  0.4394240000000  0.5354220000000 1.0
C      1  0.4475980000000  0.4986720000000  0.5268380000000 1.0
C      1  0.4871820000000  0.4976290000000  0.5027750000000 1.0
C      1  0.4730850000000  0.5247750000000  0.4191230000000 1.0
C      1  0.5939670000000  0.5349710000000  0.5031080000000 1.0
C      1  0.5236780000000  0.5229950000000  0.5383870000000 1.0
C      1  0.5138790000000  0.5097380000000  0.4939380000000 1.0
C      1  0.4683030000000  0.5903570000000  0.5038460000000 1.0
C      1  0.4622750000000  0.4501170000000  0.4894390000000 1.0
C      1  0.4569570000000  0.5042390000000  0.4099910000000 1.0
C      1  0.4575300000000  0.4700520000000  0.5325370000000 1.0
C      1  0.5014090000000  0.5295690000000  0.4150610000000 1.0
C      1  0.5399310000000  0.4806170000000  0.4695730000000 1.0
C      1  0.5801880000000  0.5353150000000  0.5512380000000 1.0
C      1  0.5816130000000  0.5003080000000  0.4729570000000 1.0
C      1  0.6021780000000  0.5190560000000  0.4808760000000 1.0
C      1  0.5565320000000  0.4536830000000  0.4644310000000 1.0
C      1  0.5371810000000  0.4441040000000  0.5292600000000 1.0
C      1  0.4966110000000  0.5508060000000  0.5109350000000 1.0
C      1  0.4597840000000  0.5840670000000  0.4767600000000 1.0
C      1  0.5748440000000  0.4814080000000  0.4970600000000 1.0
C      1  0.5300800000000  0.5855000000000  0.4808520000000 1.0
C      1  0.5744650000000  0.5084450000000  0.5685310000000 1.0
C      1  0.5713990000000  0.5534670000000  0.4968830000000 1.0
C      1  0.4894010000000  0.5268510000000  0.5934000000000 1.0
C      1  0.5320680000000  0.4865910000000  0.4977000000000 1.0
C      1  0.5503170000000  0.5482880000000  0.4159700000000 1.0
C      1  0.4997000000000  0.5068120000000  0.5767130000000 1.0
C      1  0.5104840000000  0.4039150000000  0.5170300000000 1.0
C      1  0.4873600000000  0.5498880000000  0.4817510000000 1.0
C      1  0.5970820000000  0.4598280000000  0.5326760000000 1.0
C      1  0.5133630000000  0.4874120000000  0.4522960000000 1.0
C      1  0.5127310000000  0.5153630000000  0.4646940000000 1.0
C      1  0.5338200000000  0.5424270000000  0.5605710000000 1.0
C      1  0.5064170000000  0.5960730000000  0.4696330000000 1.0
C      1  0.5335970000000  0.4618430000000  0.4227030000000 1.0
C      1  0.4272760000000  0.5361810000000  0.5397730000000 1.0
C      1  0.4820690000000  0.5870950000000  0.4581320000000 1.0
C      1  0.4400170000000  0.4648270000000  0.5725500000000 1.0
C      1  0.5462610000000  0.5235020000000  0.5817480000000 1.0
C      1  0.4527090000000  0.5347760000000  0.5571980000000 1.0
C      1  0.5228320000000  0.5100430000000  0.4163220000000 1.0
C      1  0.5186500000000  0.4655590000000  0.5134760000000 1.0
C      1  0.4200900000000  0.5078030000000  0.5290840000000 1.0
C      1  0.4264300000000  0.4248240000000  0.5376000000000 1.0
C      1  0.4150680000000  0.5236110000000  0.4808010000000 1.0
C      1  0.5719590000000  0.4425630000000  0.4904580000000 1.0
C      1  0.4609400000000  0.5497620000000  0.4274410000000 1.0
C      1  0.4126000000000  0.5019600000000  0.4998960000000 1.0
C      1  0.4320400000000  0.5172990000000  0.4534270000000 1.0
END
