TITL C-3577083-591-585 -4.21677320951648e-06 125000 -1029.40716595284 0 0 163 (C1) n - 1
REM
REM in /home/bkarasulu/work/CARBON/AIRSS/Generating-Clusters/EDIP-Nigel-Params/with-SteepDescent/Higher-Symm/SD-CG/HFTN-CG
REM
REM
REM
REM
REM
REM ./C.cell (12c818d87b63d06a65506943cc24bca4)
REM
REM compiler GCC version 9.2.1 20190827 (Red Hat 9.2.1-1)
REM options -cpp -mtune=generic -march=x86-64 -g -O0 -fpre-include=/usr/include/finclude/math-vector-fortran.h
REM seed -2033997142 -1087087006 -1883796384 -1317623708 -1557695295 389417221 1632462153 -604419672 1754887630 -196663556 1769686090 1024029472 -99327353 -470459050 1670917535 -1010020885 -1528084194 -61429373 -2091420317 -1661757492 -98619217 -860593004 139512656 1109259030 -434266699 123356135 -44518624 -283323676 -1445905204 -886008146 -7995219 1227729585 816103911
REM
CELL 1.54180   50.00000   50.00000   50.00000   90.00000   90.00000   90.00000
LATT -1
SFAC C  
C      1  0.4902520000000  0.4089300000000  0.5080040000000 1.0
C      1  0.4899000000000  0.4278180000000  0.5563100000000 1.0
C      1  0.4896890000000  0.4696820000000  0.5879950000000 1.0
C      1  0.4899300000000  0.5219510000000  0.5921940000000 1.0
C      1  0.4900250000000  0.5676680000000  0.5655500000000 1.0
C      1  0.4886350000000  0.5888910000000  0.5177020000000 1.0
C      1  0.4883970000000  0.5875060000000  0.4655310000000 1.0
C      1  0.4889220000000  0.5560790000000  0.4225380000000 1.0
C      1  0.4901660000000  0.5061610000000  0.4059230000000 1.0
C      1  0.4911350000000  0.4557340000000  0.4200000000000 1.0
C      1  0.4913370000000  0.4186340000000  0.4567000000000 1.0
C      1  0.4384040000000  0.4984310000000  0.5486160000000 1.0
C      1  0.4239490000000  0.5261960000000  0.5488610000000 1.0
C      1  0.4374170000000  0.5446560000000  0.5257320000000 1.0
C      1  0.4385190000000  0.5463900000000  0.4927770000000 1.0
C      1  0.4241440000000  0.5397340000000  0.4649490000000 1.0
C      1  0.4386880000000  0.5144070000000  0.4525840000000 1.0
C      1  0.4259880000000  0.4856110000000  0.4493610000000 1.0
C      1  0.4401170000000  0.4648810000000  0.4675010000000 1.0
C      1  0.4257330000000  0.4497450000000  0.4911940000000 1.0
C      1  0.4399210000000  0.4575900000000  0.5175790000000 1.0
C      1  0.4251040000000  0.4722460000000  0.5402820000000 1.0
C      1  0.5192920000000  0.4061570000000  0.5091030000000 1.0
C      1  0.5189210000000  0.4264750000000  0.5574560000000 1.0
C      1  0.5188280000000  0.4693610000000  0.5886930000000 1.0
C      1  0.5190450000000  0.5219950000000  0.5923090000000 1.0
C      1  0.5189550000000  0.5682350000000  0.5656490000000 1.0
C      1  0.5174800000000  0.5915550000000  0.5181030000000 1.0
C      1  0.5175270000000  0.5880550000000  0.4652910000000 1.0
C      1  0.5180250000000  0.5558800000000  0.4225810000000 1.0
C      1  0.5190890000000  0.5061160000000  0.4046180000000 1.0
C      1  0.5197800000000  0.4558200000000  0.4209380000000 1.0
C      1  0.5200860000000  0.4244080000000  0.4613360000000 1.0
C      1  0.4460970000000  0.4962990000000  0.5923590000000 1.0
C      1  0.4482910000000  0.5457350000000  0.5793620000000 1.0
C      1  0.4467320000000  0.5830450000000  0.5441420000000 1.0
C      1  0.4451960000000  0.5900890000000  0.4929170000000 1.0
C      1  0.4463730000000  0.5713550000000  0.4445980000000 1.0
C      1  0.4460820000000  0.5317990000000  0.4123450000000 1.0
C      1  0.4496930000000  0.4809950000000  0.4133170000000 1.0
C      1  0.4482790000000  0.4353490000000  0.4352130000000 1.0
C      1  0.4488260000000  0.4143690000000  0.4812840000000 1.0
C      1  0.4469930000000  0.4161320000000  0.5319100000000 1.0
C      1  0.4480350000000  0.4495790000000  0.5708680000000 1.0
C      1  0.6187560000000  0.4492940000000  0.5067020000000 1.0
C      1  0.6253560000000  0.4642320000000  0.5294380000000 1.0
C      1  0.6161540000000  0.4839540000000  0.5470410000000 1.0
C      1  0.6237630000000  0.5102230000000  0.5407300000000 1.0
C      1  0.6143290000000  0.5352800000000  0.5324330000000 1.0
C      1  0.6222120000000  0.5432740000000  0.5071140000000 1.0
C      1  0.6119520000000  0.5441560000000  0.4814310000000 1.0
C      1  0.6204200000000  0.5245580000000  0.4639330000000 1.0
C      1  0.6114140000000  0.5007810000000  0.4530260000000 1.0
C      1  0.6234170000000  0.4777820000000  0.4631290000000 1.0
C      1  0.6285720000000  0.4602040000000  0.4829470000000 1.0
C      1  0.5628190000000  0.4124460000000  0.5348820000000 1.0
C      1  0.5620490000000  0.4459730000000  0.5752600000000 1.0
C      1  0.5624050000000  0.4951620000000  0.5929840000000 1.0
C      1  0.5622610000000  0.5464340000000  0.5807210000000 1.0
C      1  0.5617090000000  0.5830840000000  0.5428760000000 1.0
C      1  0.5608490000000  0.5927820000000  0.4911670000000 1.0
C      1  0.5605860000000  0.5725580000000  0.4430860000000 1.0
C      1  0.5616730000000  0.5310300000000  0.4121420000000 1.0
C      1  0.5622210000000  0.4785470000000  0.4076070000000 1.0
C      1  0.5619580000000  0.4312640000000  0.4336510000000 1.0
C      1  0.5629750000000  0.4070190000000  0.4823610000000 1.0
C      1  0.5263860000000  0.5383940000000  0.4853130000000 1.0
C      1  0.5362780000000  0.5228570000000  0.4632700000000 1.0
C      1  0.5183790000000  0.4976570000000  0.4595500000000 1.0
C      1  0.5338390000000  0.4725940000000  0.4594710000000 1.0
C      1  0.5195470000000  0.4514530000000  0.4772510000000 1.0
C      1  0.5336430000000  0.4510110000000  0.5021790000000 1.0
C      1  0.5466450000000  0.4644520000000  0.5230360000000 1.0
C      1  0.5331380000000  0.4831720000000  0.5387010000000 1.0
C      1  0.5439190000000  0.5085790000000  0.5433660000000 1.0
C      1  0.5298790000000  0.5295820000000  0.5307540000000 1.0
C      1  0.5408180000000  0.5450690000000  0.5094880000000 1.0
C      1  0.5732410000000  0.5115100000000  0.5495270000000 1.0
C      1  0.5849070000000  0.5382780000000  0.5364130000000 1.0
C      1  0.5709590000000  0.5500350000000  0.5098580000000 1.0
C      1  0.5824880000000  0.5480280000000  0.4806730000000 1.0
C      1  0.5677860000000  0.5265050000000  0.4596810000000 1.0
C      1  0.5816800000000  0.5005710000000  0.4477800000000 1.0
C      1  0.5674990000000  0.4722070000000  0.4550090000000 1.0
C      1  0.5806750000000  0.4521290000000  0.4752320000000 1.0
C      1  0.5891260000000  0.4446980000000  0.5045350000000 1.0
C      1  0.5751040000000  0.4587050000000  0.5301690000000 1.0
C      1  0.5865690000000  0.4820770000000  0.5501130000000 1.0
C      1  0.3857380000000  0.4981920000000  0.5500620000000 1.0
C      1  0.3945650000000  0.5241530000000  0.5446400000000 1.0
C      1  0.3851260000000  0.5365650000000  0.5214220000000 1.0
C      1  0.3851620000000  0.5412570000000  0.4947790000000 1.0
C      1  0.3945580000000  0.5350430000000  0.4690260000000 1.0
C      1  0.3860250000000  0.5106400000000  0.4581360000000 1.0
C      1  0.3962440000000  0.4854940000000  0.4512920000000 1.0
C      1  0.3871680000000  0.4627520000000  0.4649190000000 1.0
C      1  0.3955830000000  0.4546190000000  0.4905300000000 1.0
C      1  0.3882100000000  0.4773800000000  0.5079930000000 1.0
C      1  0.3947320000000  0.4747540000000  0.5369300000000 1.0
C      1  0.4842250000000  0.4518570000000  0.4880310000000 1.0
C      1  0.4705720000000  0.4541130000000  0.5187310000000 1.0
C      1  0.4809470000000  0.4723500000000  0.5411690000000 1.0
C      1  0.4686170000000  0.4980860000000  0.5530310000000 1.0
C      1  0.4794130000000  0.5253030000000  0.5466870000000 1.0
C      1  0.4686960000000  0.5457370000000  0.5276380000000 1.0
C      1  0.4692670000000  0.5509270000000  0.4921730000000 1.0
C      1  0.4790000000000  0.5415010000000  0.4655170000000 1.0
C      1  0.4689410000000  0.5185790000000  0.4492210000000 1.0
C      1  0.4844890000000  0.4916670000000  0.4516290000000 1.0
C      1  0.4705250000000  0.4641600000000  0.4638010000000 1.0
C      1  0.4756130000000  0.4245720000000  0.5294490000000 1.0
C      1  0.4775350000000  0.4537870000000  0.5654860000000 1.0
C      1  0.4749300000000  0.4963420000000  0.5841740000000 1.0
C      1  0.4773680000000  0.5410930000000  0.5726900000000 1.0
C      1  0.4749550000000  0.5737480000000  0.5395610000000 1.0
C      1  0.4741700000000  0.5818310000000  0.4922040000000 1.0
C      1  0.4760220000000  0.5659400000000  0.4481680000000 1.0
C      1  0.4748960000000  0.5290830000000  0.4198940000000 1.0
C      1  0.4789250000000  0.4828510000000  0.4207220000000 1.0
C      1  0.4764130000000  0.4418590000000  0.4423180000000 1.0
C      1  0.4781270000000  0.4210180000000  0.4833980000000 1.0
C      1  0.4361910000000  0.5054550000000  0.4094610000000 1.0
C      1  0.4348490000000  0.4586790000000  0.4240400000000 1.0
C      1  0.4365810000000  0.4220690000000  0.4572020000000 1.0
C      1  0.4335230000000  0.4155560000000  0.5058000000000 1.0
C      1  0.4355550000000  0.4312770000000  0.5530580000000 1.0
C      1  0.4349880000000  0.4715020000000  0.5834850000000 1.0
C      1  0.4329260000000  0.5218600000000  0.5855940000000 1.0
C      1  0.4364300000000  0.5663640000000  0.5644390000000 1.0
C      1  0.4324900000000  0.5818310000000  0.5183970000000 1.0
C      1  0.4340600000000  0.5820390000000  0.4677540000000 1.0
C      1  0.4319480000000  0.5512150000000  0.4294700000000 1.0
C      1  0.5751080000000  0.5040480000000  0.4173440000000 1.0
C      1  0.5733390000000  0.4589060000000  0.4280840000000 1.0
C      1  0.5736910000000  0.4264800000000  0.4618100000000 1.0
C      1  0.5772950000000  0.4151730000000  0.5080820000000 1.0
C      1  0.5749770000000  0.4353260000000  0.5501380000000 1.0
C      1  0.5763090000000  0.4723830000000  0.5782890000000 1.0
C      1  0.5748170000000  0.5189830000000  0.5791960000000 1.0
C      1  0.5759090000000  0.5601830000000  0.5573300000000 1.0
C      1  0.5737870000000  0.5800570000000  0.5153320000000 1.0
C      1  0.5741820000000  0.5760350000000  0.4695570000000 1.0
C      1  0.5722490000000  0.5457920000000  0.4357790000000 1.0
C      1  0.5324200000000  0.4460030000000  0.5756660000000 1.0
C      1  0.5326280000000  0.4952730000000  0.5942710000000 1.0
C      1  0.5325970000000  0.5468160000000  0.5817450000000 1.0
C      1  0.5318840000000  0.5834770000000  0.5433640000000 1.0
C      1  0.5310980000000  0.5934060000000  0.4914340000000 1.0
C      1  0.5311210000000  0.5742630000000  0.4422680000000 1.0
C      1  0.5321300000000  0.5321520000000  0.4101970000000 1.0
C      1  0.5327340000000  0.4792180000000  0.4074160000000 1.0
C      1  0.5323130000000  0.4315190000000  0.4337660000000 1.0
C      1  0.5329770000000  0.4049010000000  0.4821010000000 1.0
C      1  0.5329560000000  0.4121430000000  0.5351040000000 1.0
C      1  0.5814650000000  0.4976230000000  0.4977880000000 1.0
C      1  0.4291430000000  0.5032980000000  0.4944470000000 1.0
C      1  0.4557930000000  0.5060440000000  0.4986120000000 1.0
C      1  0.5058840000000  0.4882840000000  0.4997610000000 1.0
C      1  0.4022380000000  0.5005610000000  0.4989930000000 1.0
C      1  0.5300360000000  0.5032120000000  0.5019420000000 1.0
C      1  0.5554440000000  0.4942750000000  0.4914850000000 1.0
C      1  0.6060960000000  0.4945150000000  0.5052230000000 1.0
C      1  0.4801750000000  0.4954300000000  0.4969990000000 1.0
END
