TITL C-3577078-809-68 -8.44758842591523e-07 125000 -672.017906904873 0 0 109 (C1) n - 1
REM
REM in /home/bkarasulu/work/CARBON/AIRSS/Generating-Clusters/EDIP-Nigel-Params/with-SteepDescent/Higher-Symm/SD-CG/HFTN-CG
REM
REM
REM
REM
REM
REM ./C.cell (12c818d87b63d06a65506943cc24bca4)
REM
REM compiler GCC version 9.2.1 20190827 (Red Hat 9.2.1-1)
REM options -cpp -mtune=generic -march=x86-64 -g -O0 -fpre-include=/usr/include/finclude/math-vector-fortran.h
REM seed -1455142750 -1713191522 -1983368903 -3956739 924441810 380386591 -617542517 -1399775150 318638029 -1077621636 156741723 -540501931 -724522747 -720655034 -1875727017 1454254631 1554705866 -735762521 -1017218911 -2135271670 1464127736 1632101688 309047911 985386724 2086902474 -1358062389 -1121992689 574067124 994249555 -1250686021 -587993884 1258513403 649345378
REM
CELL 1.54180   50.00000   50.00000   50.00000   90.00000   90.00000   90.00000
LATT -1
SFAC C  
C      1  0.5330080000000  0.5200800000000  0.4799740000000 1.0
C      1  0.5234070000000  0.4709080000000  0.4945880000000 1.0
C      1  0.5194330000000  0.5125590000000  0.5321350000000 1.0
C      1  0.4728870000000  0.5208080000000  0.5221750000000 1.0
C      1  0.4663340000000  0.4630810000000  0.5039750000000 1.0
C      1  0.4711220000000  0.5168810000000  0.4719550000000 1.0
C      1  0.4208730000000  0.5368310000000  0.5290160000000 1.0
C      1  0.4138260000000  0.4982470000000  0.4426520000000 1.0
C      1  0.4154130000000  0.4453970000000  0.5264950000000 1.0
C      1  0.5889700000000  0.5519910000000  0.4669080000000 1.0
C      1  0.5814220000000  0.5017510000000  0.5474850000000 1.0
C      1  0.5858950000000  0.4541530000000  0.4699850000000 1.0
C      1  0.5600780000000  0.5028440000000  0.4840090000000 1.0
C      1  0.5503040000000  0.4832950000000  0.5052000000000 1.0
C      1  0.5468010000000  0.4989370000000  0.5297430000000 1.0
C      1  0.4460000000000  0.5100520000000  0.5139300000000 1.0
C      1  0.4445230000000  0.4805780000000  0.5182600000000 1.0
C      1  0.4414470000000  0.5185790000000  0.4858250000000 1.0
C      1  0.5234450000000  0.4375400000000  0.4489470000000 1.0
C      1  0.5237900000000  0.4838340000000  0.5884450000000 1.0
C      1  0.5267560000000  0.5789990000000  0.4727270000000 1.0
C      1  0.4771970000000  0.4396960000000  0.5512510000000 1.0
C      1  0.4754270000000  0.4846120000000  0.4217430000000 1.0
C      1  0.4801710000000  0.5813300000000  0.5286380000000 1.0
C      1  0.4998130000000  0.5625150000000  0.5385780000000 1.0
C      1  0.4982970000000  0.5024570000000  0.4240810000000 1.0
C      1  0.5007720000000  0.4438210000000  0.5333520000000 1.0
C      1  0.5037590000000  0.5630100000000  0.4637590000000 1.0
C      1  0.5050090000000  0.5063290000000  0.5810960000000 1.0
C      1  0.5019160000000  0.4362750000000  0.4685450000000 1.0
C      1  0.4059570000000  0.4981930000000  0.4701600000000 1.0
C      1  0.4074780000000  0.4702140000000  0.5115500000000 1.0
C      1  0.4024300000000  0.5188490000000  0.5143360000000 1.0
C      1  0.5900160000000  0.5018450000000  0.5203690000000 1.0
C      1  0.6002100000000  0.4767160000000  0.4801710000000 1.0
C      1  0.5964720000000  0.5265460000000  0.4784090000000 1.0
C      1  0.5170370000000  0.4902400000000  0.4700380000000 1.0
C      1  0.4955200000000  0.4689470000000  0.5160690000000 1.0
C      1  0.5168490000000  0.5331100000000  0.5060570000000 1.0
C      1  0.4921960000000  0.4966120000000  0.5338470000000 1.0
C      1  0.4667420000000  0.4679740000000  0.4738930000000 1.0
C      1  0.4856030000000  0.5356280000000  0.4965830000000 1.0
C      1  0.5232630000000  0.4493950000000  0.5518430000000 1.0
C      1  0.5230410000000  0.5615640000000  0.5202590000000 1.0
C      1  0.5207360000000  0.4848800000000  0.4265870000000 1.0
C      1  0.4775820000000  0.4451010000000  0.4559510000000 1.0
C      1  0.4813450000000  0.5705320000000  0.4809030000000 1.0
C      1  0.4837030000000  0.4914530000000  0.5648680000000 1.0
C      1  0.4422240000000  0.5619120000000  0.4621110000000 1.0
C      1  0.4342980000000  0.4329190000000  0.4689880000000 1.0
C      1  0.4344100000000  0.4959950000000  0.5647560000000 1.0
C      1  0.5720260000000  0.5605910000000  0.5371280000000 1.0
C      1  0.5609780000000  0.4337690000000  0.5338720000000 1.0
C      1  0.5584980000000  0.5073430000000  0.4329180000000 1.0
C      1  0.5531760000000  0.4887590000000  0.4557590000000 1.0
C      1  0.5622750000000  0.4631480000000  0.5365600000000 1.0
C      1  0.5752650000000  0.5505730000000  0.5115180000000 1.0
C      1  0.4423010000000  0.4752610000000  0.5474210000000 1.0
C      1  0.4361920000000  0.4626760000000  0.4660830000000 1.0
C      1  0.4441680000000  0.5485130000000  0.4879650000000 1.0
C      1  0.4929970000000  0.5537220000000  0.4375570000000 1.0
C      1  0.4949010000000  0.4165660000000  0.4894910000000 1.0
C      1  0.4888180000000  0.5409710000000  0.5824850000000 1.0
C      1  0.5055720000000  0.5583910000000  0.5669180000000 1.0
C      1  0.5090420000000  0.4195900000000  0.5162260000000 1.0
C      1  0.5080520000000  0.5307490000000  0.4247160000000 1.0
C      1  0.5398890000000  0.4436720000000  0.4898170000000 1.0
C      1  0.5267220000000  0.5193920000000  0.5621210000000 1.0
C      1  0.5410860000000  0.5396870000000  0.4581090000000 1.0
C      1  0.4544850000000  0.4358860000000  0.5083860000000 1.0
C      1  0.4629220000000  0.5215620000000  0.4431440000000 1.0
C      1  0.4571930000000  0.5396830000000  0.5428890000000 1.0
C      1  0.5898650000000  0.5266560000000  0.5059690000000 1.0
C      1  0.5943090000000  0.5009910000000  0.4660830000000 1.0
C      1  0.6021160000000  0.4798760000000  0.5079550000000 1.0
C      1  0.4029780000000  0.5215880000000  0.4856980000000 1.0
C      1  0.3954220000000  0.4932610000000  0.5241210000000 1.0
C      1  0.4170890000000  0.4759360000000  0.4840590000000 1.0
C      1  0.5139120000000  0.4557390000000  0.4262640000000 1.0
C      1  0.5124520000000  0.4582040000000  0.5778620000000 1.0
C      1  0.5205170000000  0.5859040000000  0.5011270000000 1.0
C      1  0.4830400000000  0.4609260000000  0.5726240000000 1.0
C      1  0.4836830000000  0.4560410000000  0.4277400000000 1.0
C      1  0.4902730000000  0.5901400000000  0.5016230000000 1.0
C      1  0.4490480000000  0.4981250000000  0.4268370000000 1.0
C      1  0.4499160000000  0.4306320000000  0.5383540000000 1.0
C      1  0.4524700000000  0.5694150000000  0.5335060000000 1.0
C      1  0.5493760000000  0.4915710000000  0.5772660000000 1.0
C      1  0.5510220000000  0.4382590000000  0.4620910000000 1.0
C      1  0.5533500000000  0.5666730000000  0.4647480000000 1.0
C      1  0.4587130000000  0.5056840000000  0.5747440000000 1.0
C      1  0.4617160000000  0.5818890000000  0.4613970000000 1.0
C      1  0.4582510000000  0.4223980000000  0.4590460000000 1.0
C      1  0.5428700000000  0.4966530000000  0.4126310000000 1.0
C      1  0.5445280000000  0.5613250000000  0.5415850000000 1.0
C      1  0.5401210000000  0.4266810000000  0.5506360000000 1.0
C      1  0.5700190000000  0.4791430000000  0.5611390000000 1.0
C      1  0.5754700000000  0.5676660000000  0.4878780000000 1.0
C      1  0.5659680000000  0.4619060000000  0.4513280000000 1.0
C      1  0.4306730000000  0.4750320000000  0.4390120000000 1.0
C      1  0.4320890000000  0.5599770000000  0.5125980000000 1.0
C      1  0.4295430000000  0.4495510000000  0.5507700000000 1.0
C      1  0.4616740000000  0.5512250000000  0.4376090000000 1.0
C      1  0.4635260000000  0.4147600000000  0.4887170000000 1.0
C      1  0.4626700000000  0.5342270000000  0.5722290000000 1.0
C      1  0.5332700000000  0.5489990000000  0.5659280000000 1.0
C      1  0.5399220000000  0.4223550000000  0.5119150000000 1.0
C      1  0.5386660000000  0.5316920000000  0.4291250000000 1.0
C      1  0.4855240000000  0.4914850000000  0.4719070000000 1.0
END
