TITL C-3577085-527-669 3.27705947568265e-07 125000 -255.467239412834 0 0 43 (C1) n - 1
REM
REM in /home/bkarasulu/work/CARBON/AIRSS/Generating-Clusters/EDIP-Nigel-Params/with-SteepDescent/Higher-Symm/SD-CG/HFTN-CG
REM
REM
REM
REM
REM
REM ./C.cell (12c818d87b63d06a65506943cc24bca4)
REM
REM compiler GCC version 9.2.1 20190827 (Red Hat 9.2.1-1)
REM options -cpp -mtune=generic -march=x86-64 -g -O0 -fpre-include=/usr/include/finclude/math-vector-fortran.h
REM seed 836945547 -99660171 -501214567 1067860363 1150045549 -205745997 -545660748 1871173344 -1463828311 -986110057 -496152385 -780568777 990235456 -264868284 -752748282 -842323227 591453420 132733335 1163490906 -132679968 -1574389914 -529174726 -1740667462 -1047289999 1176271450 2107717125 976884142 -1907967342 1411707582 1413231999 604509314 1216844007 234311540
REM
CELL 1.54180   50.00000   50.00000   50.00000   90.00000   90.00000   90.00000
LATT -1
SFAC C  
C      1  0.5242230000000  0.5301830000000  0.4965880000000 1.0
C      1  0.4887880000000  0.5323920000000  0.5272970000000 1.0
C      1  0.4800090000000  0.5329700000000  0.4810000000000 1.0
C      1  0.4496680000000  0.4902390000000  0.4436960000000 1.0
C      1  0.5747570000000  0.4889930000000  0.4906690000000 1.0
C      1  0.4777360000000  0.4909480000000  0.5731070000000 1.0
C      1  0.5298180000000  0.4593070000000  0.5011730000000 1.0
C      1  0.4841430000000  0.4576350000000  0.5249170000000 1.0
C      1  0.4882620000000  0.4590310000000  0.4734900000000 1.0
C      1  0.5407910000000  0.4678260000000  0.4588590000000 1.0
C      1  0.5184960000000  0.4686330000000  0.5511620000000 1.0
C      1  0.4470310000000  0.4666060000000  0.4885520000000 1.0
C      1  0.4519210000000  0.5341560000000  0.4944960000000 1.0
C      1  0.5307000000000  0.5345180000000  0.4663910000000 1.0
C      1  0.5221000000000  0.5407090000000  0.5444250000000 1.0
C      1  0.5123490000000  0.4625420000000  0.5236420000000 1.0
C      1  0.4740570000000  0.4635640000000  0.4983690000000 1.0
C      1  0.5172520000000  0.4624350000000  0.4757140000000 1.0
C      1  0.5442270000000  0.5031930000000  0.5256160000000 1.0
C      1  0.4567990000000  0.5021990000000  0.5316120000000 1.0
C      1  0.4949220000000  0.5047710000000  0.4508600000000 1.0
C      1  0.4343550000000  0.5101530000000  0.4562630000000 1.0
C      1  0.5723130000000  0.5115830000000  0.4743460000000 1.0
C      1  0.4947830000000  0.5126980000000  0.5780540000000 1.0
C      1  0.5613590000000  0.4655900000000  0.4800470000000 1.0
C      1  0.4909060000000  0.4678960000000  0.5620030000000 1.0
C      1  0.4530210000000  0.4661450000000  0.4595700000000 1.0
C      1  0.5151620000000  0.4994160000000  0.4993370000000 1.0
C      1  0.4882260000000  0.4994800000000  0.5201240000000 1.0
C      1  0.4880060000000  0.5013700000000  0.4805550000000 1.0
C      1  0.4543550000000  0.4971530000000  0.5590840000000 1.0
C      1  0.4739050000000  0.4994330000000  0.4332440000000 1.0
C      1  0.5700220000000  0.4933180000000  0.5178950000000 1.0
C      1  0.5406310000000  0.5334770000000  0.5227280000000 1.0
C      1  0.4573150000000  0.5307760000000  0.5238630000000 1.0
C      1  0.5053670000000  0.5315140000000  0.4518390000000 1.0
C      1  0.5152280000000  0.5172640000000  0.5595630000000 1.0
C      1  0.4323220000000  0.5141200000000  0.4839200000000 1.0
C      1  0.5517590000000  0.5162780000000  0.4559720000000 1.0
C      1  0.5324290000000  0.4951020000000  0.5520300000000 1.0
C      1  0.4323250000000  0.4891920000000  0.4972670000000 1.0
C      1  0.5423990000000  0.4921930000000  0.4443720000000 1.0
C      1  0.4983430000000  0.5436790000000  0.5015420000000 1.0
END
