TITL C-3578202-4305-565 -2.44285889257768e-07 125000 -652.703785120995 0 0 102 (C1) n - 1
REM
REM in /home/bkarasulu/work/CARBON/AIRSS/Generating-Clusters/EDIP-Nigel-Params/with-SteepDescent/Higher-Symm/SD-CG/HFTN-CG
REM
REM
REM
REM
REM
REM ./C.cell (12c818d87b63d06a65506943cc24bca4)
REM
REM compiler GCC version 9.2.1 20190827 (Red Hat 9.2.1-1)
REM options -cpp -mtune=generic -march=x86-64 -g -O0 -fpre-include=/usr/include/finclude/math-vector-fortran.h
REM seed -955810560 -1891361658 -2017473001 -603825238 687396691 -463907801 -1875181163 730457671 1501315153 -1787584406 333001334 -1786598779 -1698189310 1488226665 -1528055551 797500121 2057585983 1779061332 -693982514 1269217470 -589931158 539016805 -780926227 -1727640362 313277318 -635230259 1701384454 114041551 713418915 1172293377 25287121 535067135 858560890
REM
CELL 1.54180   50.00000   50.00000   50.00000   90.00000   90.00000   90.00000
LATT -1
SFAC C  
C      1  0.5079330000000  0.4629920000000  0.4377940000000 1.0
C      1  0.5494890000000  0.4912620000000  0.4256820000000 1.0
C      1  0.5263480000000  0.5502980000000  0.4234840000000 1.0
C      1  0.4687000000000  0.5332510000000  0.4305460000000 1.0
C      1  0.4521620000000  0.4766630000000  0.4235640000000 1.0
C      1  0.5030210000000  0.4721200000000  0.5583110000000 1.0
C      1  0.4488080000000  0.4893930000000  0.5763170000000 1.0
C      1  0.4761390000000  0.5452480000000  0.5747650000000 1.0
C      1  0.5244410000000  0.5236120000000  0.5646310000000 1.0
C      1  0.5482990000000  0.4776270000000  0.5833090000000 1.0
C      1  0.5221950000000  0.5010360000000  0.4185310000000 1.0
C      1  0.5138840000000  0.5277510000000  0.4086670000000 1.0
C      1  0.4845600000000  0.5296940000000  0.4053360000000 1.0
C      1  0.4755270000000  0.4931760000000  0.4120770000000 1.0
C      1  0.5019790000000  0.4808670000000  0.4150650000000 1.0
C      1  0.4748540000000  0.4968060000000  0.5893760000000 1.0
C      1  0.4859530000000  0.5242550000000  0.5937010000000 1.0
C      1  0.5157600000000  0.5198790000000  0.5931300000000 1.0
C      1  0.5231590000000  0.4903470000000  0.5977400000000 1.0
C      1  0.4978230000000  0.4780990000000  0.5873290000000 1.0
C      1  0.4992330000000  0.5848860000000  0.4723820000000 1.0
C      1  0.4234080000000  0.5221190000000  0.4717360000000 1.0
C      1  0.4526310000000  0.4284370000000  0.4719740000000 1.0
C      1  0.5492870000000  0.4328820000000  0.4728480000000 1.0
C      1  0.5758290000000  0.5255480000000  0.4729440000000 1.0
C      1  0.5004600000000  0.5860650000000  0.5303420000000 1.0
C      1  0.5762160000000  0.5235810000000  0.5297530000000 1.0
C      1  0.5459650000000  0.4334400000000  0.5315590000000 1.0
C      1  0.4530240000000  0.4312140000000  0.5306980000000 1.0
C      1  0.4232890000000  0.5239710000000  0.5283200000000 1.0
C      1  0.5221850000000  0.5739740000000  0.4869130000000 1.0
C      1  0.4400090000000  0.5425870000000  0.4849960000000 1.0
C      1  0.4408430000000  0.4514620000000  0.4863860000000 1.0
C      1  0.5245710000000  0.4259260000000  0.4872620000000 1.0
C      1  0.5730200000000  0.5000710000000  0.4873490000000 1.0
C      1  0.4783620000000  0.5726360000000  0.5155830000000 1.0
C      1  0.5588060000000  0.5425570000000  0.5153690000000 1.0
C      1  0.5592790000000  0.4545410000000  0.5167640000000 1.0
C      1  0.4768350000000  0.4231890000000  0.5160230000000 1.0
C      1  0.4272550000000  0.4982760000000  0.5148110000000 1.0
C      1  0.4350270000000  0.5470210000000  0.5133020000000 1.0
C      1  0.4348560000000  0.4490680000000  0.5150090000000 1.0
C      1  0.5265300000000  0.4184750000000  0.5151690000000 1.0
C      1  0.5806490000000  0.4983360000000  0.5154620000000 1.0
C      1  0.5264940000000  0.5815830000000  0.5149560000000 1.0
C      1  0.5647230000000  0.5486540000000  0.4876590000000 1.0
C      1  0.5667540000000  0.4512280000000  0.4884900000000 1.0
C      1  0.4748410000000  0.4158280000000  0.4880300000000 1.0
C      1  0.4187240000000  0.4966500000000  0.4871700000000 1.0
C      1  0.4740960000000  0.5797250000000  0.4875470000000 1.0
C      1  0.5489620000000  0.4741510000000  0.4508720000000 1.0
C      1  0.5367120000000  0.5399040000000  0.4498610000000 1.0
C      1  0.4706580000000  0.5590130000000  0.4451920000000 1.0
C      1  0.4464810000000  0.4871300000000  0.4508910000000 1.0
C      1  0.4912820000000  0.4383190000000  0.4521770000000 1.0
C      1  0.4527820000000  0.4731030000000  0.5514620000000 1.0
C      1  0.4630210000000  0.5359140000000  0.5493880000000 1.0
C      1  0.5197080000000  0.5498780000000  0.5468420000000 1.0
C      1  0.5544860000000  0.4896690000000  0.5553810000000 1.0
C      1  0.5062280000000  0.4284970000000  0.5562910000000 1.0
C      1  0.5233980000000  0.4383840000000  0.4304950000000 1.0
C      1  0.5702160000000  0.5097500000000  0.4257790000000 1.0
C      1  0.5129290000000  0.5750170000000  0.4236300000000 1.0
C      1  0.4405930000000  0.5291970000000  0.4251320000000 1.0
C      1  0.4521360000000  0.4491420000000  0.4248170000000 1.0
C      1  0.4839310000000  0.4402310000000  0.5693480000000 1.0
C      1  0.4281360000000  0.5079780000000  0.5756380000000 1.0
C      1  0.4845650000000  0.5717790000000  0.5764230000000 1.0
C      1  0.5506790000000  0.5369580000000  0.5668610000000 1.0
C      1  0.5455160000000  0.4499360000000  0.5799180000000 1.0
C      1  0.4351250000000  0.5259220000000  0.5552320000000 1.0
C      1  0.4578150000000  0.4440360000000  0.5574020000000 1.0
C      1  0.5328210000000  0.4399900000000  0.5570030000000 1.0
C      1  0.5677950000000  0.5168320000000  0.5571410000000 1.0
C      1  0.5053720000000  0.5741060000000  0.5578980000000 1.0
C      1  0.5638150000000  0.5277060000000  0.4462660000000 1.0
C      1  0.5472290000000  0.4443810000000  0.4452470000000 1.0
C      1  0.4634490000000  0.4322910000000  0.4438040000000 1.0
C      1  0.4323340000000  0.5125350000000  0.4457240000000 1.0
C      1  0.4955350000000  0.5731110000000  0.4456900000000 1.0
C      1  0.5139370000000  0.5175610000000  0.4623750000000 1.0
C      1  0.5042150000000  0.5266780000000  0.4885170000000 1.0
C      1  0.4731960000000  0.4931160000000  0.4645740000000 1.0
C      1  0.4937670000000  0.4746490000000  0.4773890000000 1.0
C      1  0.5211230000000  0.4861760000000  0.4658840000000 1.0
C      1  0.4801380000000  0.5145570000000  0.5341860000000 1.0
C      1  0.5035650000000  0.5221300000000  0.5166870000000 1.0
C      1  0.5171660000000  0.4962540000000  0.5179560000000 1.0
C      1  0.4975770000000  0.4761620000000  0.5070040000000 1.0
C      1  0.4799970000000  0.4839220000000  0.5392750000000 1.0
C      1  0.4575970000000  0.5616300000000  0.4712600000000 1.0
C      1  0.4284740000000  0.4730000000000  0.4710920000000 1.0
C      1  0.5002260000000  0.4190010000000  0.4730330000000 1.0
C      1  0.5710890000000  0.4757550000000  0.4719950000000 1.0
C      1  0.5431960000000  0.5609460000000  0.4713700000000 1.0
C      1  0.5424900000000  0.5613330000000  0.5304620000000 1.0
C      1  0.5702020000000  0.4762320000000  0.5322400000000 1.0
C      1  0.5013790000000  0.4172810000000  0.5300500000000 1.0
C      1  0.4308760000000  0.4740330000000  0.5304190000000 1.0
C      1  0.4569020000000  0.5587570000000  0.5298730000000 1.0
C      1  0.5244750000000  0.4942980000000  0.5474020000000 1.0
C      1  0.4877370000000  0.5099180000000  0.4449290000000 1.0
END
