TITL C-3578206-1180-500 -4.09586602982029e-06 125000 -1182.51483711393 0 0 187 (C1) n - 1
REM
REM in /home/bkarasulu/work/CARBON/AIRSS/Generating-Clusters/EDIP-Nigel-Params/with-SteepDescent/Higher-Symm/SD-CG/HFTN-CG
REM
REM
REM
REM
REM
REM ./C.cell (12c818d87b63d06a65506943cc24bca4)
REM
REM compiler GCC version 9.2.1 20190827 (Red Hat 9.2.1-1)
REM options -cpp -mtune=generic -march=x86-64 -g -O0 -fpre-include=/usr/include/finclude/math-vector-fortran.h
REM seed -810706008 -1126119653 1506089794 -1081454759 -1097198475 968852340 554821363 -1672790944 632814709 -1707681720 -442409801 635568099 -798702837 322485072 -1878631517 -741026829 -789705157 -1221483927 139523725 -404464001 1664519915 -930188141 -1821765083 1983061295 607676047 1008423431 573565141 -1277854353 1605428431 -1575011693 -1994524370 -436831197 39534746
REM
CELL 1.54180   50.00000   50.00000   50.00000   90.00000   90.00000   90.00000
LATT -1
SFAC C  
C      1  0.5164110000000  0.6101110000000  0.5384860000000 1.0
C      1  0.5125880000000  0.5782320000000  0.4037600000000 1.0
C      1  0.5132150000000  0.4307580000000  0.4194880000000 1.0
C      1  0.5181460000000  0.3782810000000  0.5188480000000 1.0
C      1  0.5143190000000  0.5013660000000  0.6046150000000 1.0
C      1  0.4861140000000  0.6043000000000  0.5381280000000 1.0
C      1  0.4812110000000  0.5764480000000  0.4060910000000 1.0
C      1  0.4825580000000  0.4343250000000  0.4131450000000 1.0
C      1  0.4873520000000  0.3773680000000  0.5200920000000 1.0
C      1  0.4842870000000  0.5023030000000  0.6084880000000 1.0
C      1  0.4091510000000  0.5615350000000  0.4791130000000 1.0
C      1  0.4076120000000  0.5005540000000  0.4346150000000 1.0
C      1  0.4080790000000  0.4412430000000  0.4767880000000 1.0
C      1  0.4069620000000  0.4629210000000  0.5492980000000 1.0
C      1  0.4097500000000  0.5365220000000  0.5510430000000 1.0
C      1  0.5918160000000  0.5654310000000  0.4913940000000 1.0
C      1  0.5840190000000  0.5038950000000  0.4445140000000 1.0
C      1  0.5885010000000  0.4391180000000  0.4832760000000 1.0
C      1  0.5850190000000  0.4683820000000  0.5521600000000 1.0
C      1  0.6021460000000  0.5393640000000  0.5635350000000 1.0
C      1  0.5554600000000  0.5276840000000  0.4126650000000 1.0
C      1  0.5537010000000  0.4118420000000  0.4305470000000 1.0
C      1  0.5548470000000  0.4326790000000  0.5504950000000 1.0
C      1  0.5578240000000  0.5231630000000  0.6049530000000 1.0
C      1  0.5758020000000  0.5894640000000  0.4976190000000 1.0
C      1  0.4379160000000  0.5325240000000  0.4155410000000 1.0
C      1  0.4367270000000  0.4208540000000  0.4383200000000 1.0
C      1  0.4486870000000  0.4086870000000  0.5656780000000 1.0
C      1  0.4431240000000  0.5281280000000  0.6084580000000 1.0
C      1  0.4441910000000  0.5874460000000  0.5011420000000 1.0
C      1  0.6175790000000  0.5266080000000  0.5086450000000 1.0
C      1  0.6139230000000  0.5130000000000  0.4827480000000 1.0
C      1  0.6161160000000  0.4834610000000  0.4877510000000 1.0
C      1  0.6177000000000  0.4794580000000  0.5170420000000 1.0
C      1  0.6191460000000  0.5063710000000  0.5297470000000 1.0
C      1  0.3809260000000  0.5267260000000  0.5007460000000 1.0
C      1  0.3812550000000  0.5116440000000  0.4751690000000 1.0
C      1  0.3797130000000  0.4829390000000  0.4813410000000 1.0
C      1  0.3791380000000  0.4799480000000  0.5108280000000 1.0
C      1  0.3796950000000  0.5071430000000  0.5231200000000 1.0
C      1  0.4833490000000  0.3901120000000  0.4495260000000 1.0
C      1  0.4871320000000  0.4322230000000  0.5867510000000 1.0
C      1  0.4840520000000  0.5589260000000  0.5966480000000 1.0
C      1  0.4836640000000  0.6086220000000  0.4722140000000 1.0
C      1  0.4897230000000  0.4998490000000  0.3861740000000 1.0
C      1  0.5132250000000  0.3950530000000  0.4493460000000 1.0
C      1  0.5152100000000  0.4383410000000  0.5808060000000 1.0
C      1  0.5131580000000  0.5529110000000  0.5927830000000 1.0
C      1  0.5136200000000  0.6052100000000  0.4732920000000 1.0
C      1  0.5192930000000  0.4971350000000  0.3846400000000 1.0
C      1  0.4384320000000  0.4265150000000  0.5461190000000 1.0
C      1  0.4446820000000  0.5148900000000  0.5827760000000 1.0
C      1  0.4577960000000  0.5604340000000  0.5250130000000 1.0
C      1  0.4448500000000  0.5242650000000  0.4513220000000 1.0
C      1  0.4331290000000  0.4394860000000  0.4611840000000 1.0
C      1  0.5474240000000  0.4523570000000  0.4934840000000 1.0
C      1  0.5701370000000  0.5249590000000  0.5781490000000 1.0
C      1  0.5602170000000  0.5880370000000  0.5224880000000 1.0
C      1  0.5484990000000  0.5520490000000  0.4286760000000 1.0
C      1  0.5515360000000  0.4367900000000  0.4459050000000 1.0
C      1  0.5937870000000  0.4892380000000  0.5701820000000 1.0
C      1  0.5966190000000  0.5582960000000  0.5417580000000 1.0
C      1  0.5853370000000  0.5516670000000  0.4658470000000 1.0
C      1  0.5866460000000  0.4750670000000  0.4489290000000 1.0
C      1  0.5864830000000  0.4391950000000  0.5128320000000 1.0
C      1  0.4055130000000  0.4887790000000  0.5625460000000 1.0
C      1  0.4084430000000  0.5575350000000  0.5305240000000 1.0
C      1  0.4074460000000  0.5474660000000  0.4529350000000 1.0
C      1  0.4061580000000  0.4721560000000  0.4387240000000 1.0
C      1  0.4120770000000  0.4407260000000  0.5056690000000 1.0
C      1  0.4771320000000  0.4066220000000  0.5179930000000 1.0
C      1  0.4741000000000  0.5055250000000  0.5806000000000 1.0
C      1  0.4866700000000  0.5738910000000  0.5315900000000 1.0
C      1  0.4741330000000  0.5549090000000  0.4268160000000 1.0
C      1  0.4762870000000  0.4510570000000  0.4372050000000 1.0
C      1  0.5246550000000  0.4062560000000  0.5094350000000 1.0
C      1  0.5192880000000  0.4879320000000  0.5673800000000 1.0
C      1  0.5303360000000  0.5883110000000  0.5207570000000 1.0
C      1  0.5194440000000  0.5566050000000  0.4238650000000 1.0
C      1  0.5210200000000  0.4466420000000  0.4452510000000 1.0
C      1  0.3982970000000  0.4606130000000  0.5217690000000 1.0
C      1  0.4001540000000  0.5104750000000  0.5438550000000 1.0
C      1  0.4013970000000  0.5473210000000  0.5035020000000 1.0
C      1  0.4011330000000  0.5192290000000  0.4552250000000 1.0
C      1  0.3978240000000  0.4658510000000  0.4659680000000 1.0
C      1  0.5953010000000  0.4636070000000  0.5260950000000 1.0
C      1  0.6056730000000  0.5118000000000  0.5554390000000 1.0
C      1  0.6012170000000  0.5497720000000  0.5140050000000 1.0
C      1  0.5923960000000  0.5227770000000  0.4652950000000 1.0
C      1  0.5964500000000  0.4661650000000  0.4742040000000 1.0
C      1  0.4761480000000  0.4143250000000  0.5660510000000 1.0
C      1  0.4661480000000  0.5424160000000  0.6106780000000 1.0
C      1  0.4723770000000  0.5975300000000  0.4968430000000 1.0
C      1  0.4607340000000  0.5190530000000  0.4020290000000 1.0
C      1  0.4611490000000  0.4048770000000  0.4373810000000 1.0
C      1  0.5284020000000  0.4242140000000  0.5585520000000 1.0
C      1  0.5286310000000  0.5283800000000  0.6075890000000 1.0
C      1  0.5644950000000  0.6030340000000  0.4757780000000 1.0
C      1  0.5318900000000  0.5235070000000  0.3916360000000 1.0
C      1  0.5268220000000  0.4051070000000  0.4256070000000 1.0
C      1  0.4831050000000  0.4724810000000  0.6161250000000 1.0
C      1  0.4851370000000  0.5995200000000  0.5678520000000 1.0
C      1  0.4814430000000  0.6025550000000  0.4229090000000 1.0
C      1  0.4884700000000  0.4516470000000  0.3891460000000 1.0
C      1  0.4863130000000  0.3650970000000  0.4915440000000 1.0
C      1  0.5157980000000  0.4730280000000  0.6181480000000 1.0
C      1  0.5167990000000  0.6001760000000  0.5689240000000 1.0
C      1  0.5125520000000  0.6033790000000  0.4215430000000 1.0
C      1  0.5196450000000  0.4483610000000  0.3939430000000 1.0
C      1  0.5177920000000  0.3645510000000  0.4909180000000 1.0
C      1  0.5046000000000  0.4381810000000  0.4727490000000 1.0
C      1  0.5141990000000  0.4276350000000  0.5329730000000 1.0
C      1  0.5206170000000  0.5193200000000  0.5651890000000 1.0
C      1  0.5201390000000  0.5812060000000  0.4915450000000 1.0
C      1  0.5112430000000  0.5298420000000  0.4132200000000 1.0
C      1  0.4775840000000  0.4325200000000  0.4595530000000 1.0
C      1  0.4842610000000  0.4250390000000  0.5399930000000 1.0
C      1  0.4893450000000  0.5262500000000  0.5672990000000 1.0
C      1  0.4910520000000  0.5730800000000  0.4986990000000 1.0
C      1  0.4816400000000  0.5269450000000  0.4214320000000 1.0
C      1  0.4293190000000  0.4563930000000  0.4262320000000 1.0
C      1  0.4307690000000  0.4211340000000  0.5176090000000 1.0
C      1  0.4283830000000  0.4894220000000  0.5820030000000 1.0
C      1  0.4327970000000  0.5754720000000  0.5363250000000 1.0
C      1  0.4308290000000  0.5563760000000  0.4349540000000 1.0
C      1  0.5674700000000  0.4592110000000  0.4334720000000 1.0
C      1  0.5601750000000  0.4301150000000  0.5218580000000 1.0
C      1  0.5732990000000  0.4897810000000  0.5936580000000 1.0
C      1  0.5715170000000  0.5738780000000  0.5452840000000 1.0
C      1  0.5579520000000  0.5621510000000  0.4556840000000 1.0
C      1  0.5025400000000  0.4638320000000  0.4919620000000 1.0
C      1  0.5089960000000  0.4584370000000  0.5248100000000 1.0
C      1  0.5139960000000  0.5338500000000  0.5318190000000 1.0
C      1  0.4979920000000  0.5368240000000  0.4671850000000 1.0
C      1  0.5142050000000  0.5012500000000  0.4399740000000 1.0
C      1  0.4705420000000  0.4727200000000  0.4851630000000 1.0
C      1  0.4822750000000  0.4640780000000  0.5411310000000 1.0
C      1  0.4851050000000  0.5245840000000  0.5389960000000 1.0
C      1  0.4804640000000  0.5463720000000  0.4872770000000 1.0
C      1  0.4878850000000  0.5130930000000  0.4497580000000 1.0
C      1  0.4436280000000  0.4628130000000  0.5817280000000 1.0
C      1  0.4442380000000  0.5669720000000  0.5662400000000 1.0
C      1  0.4465530000000  0.5780860000000  0.4522330000000 1.0
C      1  0.4498340000000  0.4785620000000  0.4153610000000 1.0
C      1  0.4536480000000  0.4145980000000  0.4991800000000 1.0
C      1  0.5537170000000  0.4686040000000  0.5853200000000 1.0
C      1  0.5517550000000  0.5621230000000  0.5640950000000 1.0
C      1  0.5549950000000  0.5920660000000  0.4519020000000 1.0
C      1  0.5542790000000  0.4789390000000  0.4164550000000 1.0
C      1  0.5483470000000  0.4046900000000  0.4877060000000 1.0
C      1  0.4796130000000  0.4774540000000  0.4025140000000 1.0
C      1  0.4780740000000  0.3904110000000  0.4780030000000 1.0
C      1  0.4742270000000  0.4597190000000  0.5898410000000 1.0
C      1  0.4724700000000  0.5732990000000  0.5737640000000 1.0
C      1  0.4743740000000  0.5915940000000  0.4500830000000 1.0
C      1  0.5299140000000  0.4748770000000  0.4007500000000 1.0
C      1  0.5316790000000  0.3838340000000  0.4708450000000 1.0
C      1  0.5299150000000  0.4572230000000  0.5974190000000 1.0
C      1  0.5235750000000  0.5703930000000  0.5678020000000 1.0
C      1  0.5253590000000  0.5963410000000  0.4479500000000 1.0
C      1  0.4550770000000  0.4728780000000  0.5331140000000 1.0
C      1  0.4568260000000  0.5313660000000  0.5322780000000 1.0
C      1  0.4524150000000  0.5372430000000  0.4824050000000 1.0
C      1  0.4701650000000  0.4890150000000  0.4590660000000 1.0
C      1  0.4543980000000  0.4872350000000  0.5068890000000 1.0
C      1  0.5313420000000  0.4768560000000  0.5387130000000 1.0
C      1  0.5250770000000  0.5200460000000  0.5081490000000 1.0
C      1  0.5255240000000  0.5295530000000  0.4793560000000 1.0
C      1  0.5347210000000  0.5033170000000  0.4628730000000 1.0
C      1  0.5318880000000  0.4782640000000  0.4882440000000 1.0
C      1  0.5371960000000  0.5572430000000  0.4777650000000 1.0
C      1  0.5575790000000  0.5046520000000  0.4310890000000 1.0
C      1  0.5592380000000  0.4315400000000  0.4758190000000 1.0
C      1  0.5571910000000  0.4610070000000  0.5569080000000 1.0
C      1  0.5488380000000  0.5325790000000  0.5594840000000 1.0
C      1  0.4380930000000  0.5674800000000  0.4794300000000 1.0
C      1  0.4445900000000  0.4926980000000  0.4442220000000 1.0
C      1  0.4572030000000  0.4401560000000  0.4795730000000 1.0
C      1  0.4355650000000  0.4554510000000  0.5528150000000 1.0
C      1  0.4382940000000  0.5366080000000  0.5598610000000 1.0
C      1  0.4883530000000  0.4776260000000  0.5681440000000 1.0
C      1  0.5155040000000  0.5639760000000  0.5378910000000 1.0
C      1  0.5017880000000  0.4728770000000  0.4340890000000 1.0
C      1  0.5024380000000  0.4113940000000  0.4888880000000 1.0
C      1  0.4986920000000  0.5612340000000  0.4477010000000 1.0
C      1  0.4479430000000  0.5169710000000  0.5066550000000 1.0
C      1  0.5360820000000  0.4940030000000  0.5133730000000 1.0
END
