TITL C-3578206-1180-739 -6.88595530325343e-07 125000 -700.418900737932 0 0 114 (C1) n - 1
REM
REM in /home/bkarasulu/work/CARBON/AIRSS/Generating-Clusters/EDIP-Nigel-Params/with-SteepDescent/Higher-Symm/SD-CG/HFTN-CG
REM
REM
REM
REM
REM
REM ./C.cell (12c818d87b63d06a65506943cc24bca4)
REM
REM compiler GCC version 9.2.1 20190827 (Red Hat 9.2.1-1)
REM options -cpp -mtune=generic -march=x86-64 -g -O0 -fpre-include=/usr/include/finclude/math-vector-fortran.h
REM seed -994169967 1945987374 -1757233940 -1527371741 -18821654 317751736 1667928841 327655460 -1751016539 630070908 786655860 1701537172 -1182620952 -2101990597 886334367 1018865980 469213137 1803977156 -1862036770 1535000637 356963926 -1455613867 1543228710 -324519753 1537523404 -1631279908 597788206 248298884 1219187018 -1414335885 439144369 -2684446 -2098675788
REM
CELL 1.54180   50.00000   50.00000   50.00000   90.00000   90.00000   90.00000
LATT -1
SFAC C  
C      1  0.4790670000000  0.5556450000000  0.4232800000000 1.0
C      1  0.4154970000000  0.4557520000000  0.5228960000000 1.0
C      1  0.5313040000000  0.4902470000000  0.5394520000000 1.0
C      1  0.4589930000000  0.4697270000000  0.4166100000000 1.0
C      1  0.5039160000000  0.4556030000000  0.4100470000000 1.0
C      1  0.5632340000000  0.5133140000000  0.4382920000000 1.0
C      1  0.5452080000000  0.5331590000000  0.5516310000000 1.0
C      1  0.5505180000000  0.5614400000000  0.5630750000000 1.0
C      1  0.4703910000000  0.5691340000000  0.4483560000000 1.0
C      1  0.5661780000000  0.5341040000000  0.4600490000000 1.0
C      1  0.5749730000000  0.4869150000000  0.4473600000000 1.0
C      1  0.4685570000000  0.5195720000000  0.4209330000000 1.0
C      1  0.4719600000000  0.5249260000000  0.4543890000000 1.0
C      1  0.4541810000000  0.5632040000000  0.5321430000000 1.0
C      1  0.4161970000000  0.5085260000000  0.5226320000000 1.0
C      1  0.5120690000000  0.4068600000000  0.5258500000000 1.0
C      1  0.5074150000000  0.4303630000000  0.4190930000000 1.0
C      1  0.4657420000000  0.4165500000000  0.5323320000000 1.0
C      1  0.4558400000000  0.4166270000000  0.4721330000000 1.0
C      1  0.5514520000000  0.5122270000000  0.5726390000000 1.0
C      1  0.4946480000000  0.4285160000000  0.4439720000000 1.0
C      1  0.5739610000000  0.4741130000000  0.5488740000000 1.0
C      1  0.5588070000000  0.5338550000000  0.5236780000000 1.0
C      1  0.4659610000000  0.4364840000000  0.4498580000000 1.0
C      1  0.5815550000000  0.5738470000000  0.5070200000000 1.0
C      1  0.5446740000000  0.4406430000000  0.4636510000000 1.0
C      1  0.5060800000000  0.4472360000000  0.5718970000000 1.0
C      1  0.5189610000000  0.4670270000000  0.5881630000000 1.0
C      1  0.4667480000000  0.4562920000000  0.4920600000000 1.0
C      1  0.5832770000000  0.4509540000000  0.5091290000000 1.0
C      1  0.5337840000000  0.5053580000000  0.4367920000000 1.0
C      1  0.5083120000000  0.5477210000000  0.4224590000000 1.0
C      1  0.5271660000000  0.5601680000000  0.4419440000000 1.0
C      1  0.4827660000000  0.4911800000000  0.5141720000000 1.0
C      1  0.5602810000000  0.4641330000000  0.4376380000000 1.0
C      1  0.4406360000000  0.5719450000000  0.4564900000000 1.0
C      1  0.5126790000000  0.5413120000000  0.5872500000000 1.0
C      1  0.5215460000000  0.5642980000000  0.5720400000000 1.0
C      1  0.4643890000000  0.4788250000000  0.5725880000000 1.0
C      1  0.4463830000000  0.4968400000000  0.4206450000000 1.0
C      1  0.5214670000000  0.4772120000000  0.4846950000000 1.0
C      1  0.4785560000000  0.5552910000000  0.5764930000000 1.0
C      1  0.6008500000000  0.5190720000000  0.5012310000000 1.0
C      1  0.5466130000000  0.4887330000000  0.4982510000000 1.0
C      1  0.4683740000000  0.4618210000000  0.4639500000000 1.0
C      1  0.5286790000000  0.4229030000000  0.4806480000000 1.0
C      1  0.5361940000000  0.5424900000000  0.4643700000000 1.0
C      1  0.4151970000000  0.5475910000000  0.4875430000000 1.0
C      1  0.5162450000000  0.5192080000000  0.4156950000000 1.0
C      1  0.5390050000000  0.4415660000000  0.5316780000000 1.0
C      1  0.4811010000000  0.5464300000000  0.5239720000000 1.0
C      1  0.4422850000000  0.5188940000000  0.4620880000000 1.0
C      1  0.4062570000000  0.4714410000000  0.4823140000000 1.0
C      1  0.4370970000000  0.5017810000000  0.4897530000000 1.0
C      1  0.5220560000000  0.5153580000000  0.4623680000000 1.0
C      1  0.4817080000000  0.4064160000000  0.4847080000000 1.0
C      1  0.4516980000000  0.5847390000000  0.5104660000000 1.0
C      1  0.4897790000000  0.5129380000000  0.4965730000000 1.0
C      1  0.4894480000000  0.4989070000000  0.6107690000000 1.0
C      1  0.4878210000000  0.4765910000000  0.4216590000000 1.0
C      1  0.4352850000000  0.5796620000000  0.4861220000000 1.0
C      1  0.4403420000000  0.4820180000000  0.5559030000000 1.0
C      1  0.5211640000000  0.5852910000000  0.4538750000000 1.0
C      1  0.4932690000000  0.5068990000000  0.4670390000000 1.0
C      1  0.5941480000000  0.4699950000000  0.4910190000000 1.0
C      1  0.4911330000000  0.5870030000000  0.5371250000000 1.0
C      1  0.4354380000000  0.5082710000000  0.5457940000000 1.0
C      1  0.5221850000000  0.4658820000000  0.5273540000000 1.0
C      1  0.4554480000000  0.4797150000000  0.5080000000000 1.0
C      1  0.4694620000000  0.5748370000000  0.5555910000000 1.0
C      1  0.4497300000000  0.4444830000000  0.4267520000000 1.0
C      1  0.5411730000000  0.5197610000000  0.5021040000000 1.0
C      1  0.4918070000000  0.5043470000000  0.4105020000000 1.0
C      1  0.4775030000000  0.5512560000000  0.4698760000000 1.0
C      1  0.5302890000000  0.5911390000000  0.4790130000000 1.0
C      1  0.4476010000000  0.4326840000000  0.4956970000000 1.0
C      1  0.5334460000000  0.4197050000000  0.5101830000000 1.0
C      1  0.4775830000000  0.4530820000000  0.5651350000000 1.0
C      1  0.4905910000000  0.4772690000000  0.4530630000000 1.0
C      1  0.4627650000000  0.5229030000000  0.5464400000000 1.0
C      1  0.4665890000000  0.5290840000000  0.5749530000000 1.0
C      1  0.4424970000000  0.4636560000000  0.5330560000000 1.0
C      1  0.5227020000000  0.4287960000000  0.5547010000000 1.0
C      1  0.5044030000000  0.4132000000000  0.4671350000000 1.0
C      1  0.5851850000000  0.5206730000000  0.5266120000000 1.0
C      1  0.5757320000000  0.5171990000000  0.4836090000000 1.0
C      1  0.5131630000000  0.5142750000000  0.5407490000000 1.0
C      1  0.4734610000000  0.5028330000000  0.5878020000000 1.0
C      1  0.5147460000000  0.4925520000000  0.6001900000000 1.0
C      1  0.5692990000000  0.4485790000000  0.5338740000000 1.0
C      1  0.5337500000000  0.4751280000000  0.4356870000000 1.0
C      1  0.5019180000000  0.4678770000000  0.5056790000000 1.0
C      1  0.4933560000000  0.5614650000000  0.4942550000000 1.0
C      1  0.5730520000000  0.4869550000000  0.4774670000000 1.0
C      1  0.5285680000000  0.5167850000000  0.5908580000000 1.0
C      1  0.5437040000000  0.5766520000000  0.5360050000000 1.0
C      1  0.5247500000000  0.5638870000000  0.4872190000000 1.0
C      1  0.5122140000000  0.5261510000000  0.5123100000000 1.0
C      1  0.4262220000000  0.5447830000000  0.4608170000000 1.0
C      1  0.4858950000000  0.4094730000000  0.5142970000000 1.0
C      1  0.4193760000000  0.4398090000000  0.4987600000000 1.0
C      1  0.5133040000000  0.5688910000000  0.5415210000000 1.0
C      1  0.6091190000000  0.4906650000000  0.5047300000000 1.0
C      1  0.4154390000000  0.4808630000000  0.4579530000000 1.0
C      1  0.4282440000000  0.5275750000000  0.5034100000000 1.0
C      1  0.4850130000000  0.5026510000000  0.5415080000000 1.0
C      1  0.5212410000000  0.4608220000000  0.4589170000000 1.0
C      1  0.4609690000000  0.4416200000000  0.5438640000000 1.0
C      1  0.4292410000000  0.5004150000000  0.4438980000000 1.0
C      1  0.5587150000000  0.5627100000000  0.5150490000000 1.0
C      1  0.5758250000000  0.4911640000000  0.5238890000000 1.0
C      1  0.5494360000000  0.4849540000000  0.5615540000000 1.0
C      1  0.4049300000000  0.4802680000000  0.5107160000000 1.0
C      1  0.4818390000000  0.5873650000000  0.5076310000000 1.0
END
