TITL C-3577079-311-717 4.04401965058827e-07 125000 -62.6105442035517 0 0 12 (Cs) n - 1
REM
REM in /home/bkarasulu/work/CARBON/AIRSS/Generating-Clusters/EDIP-Nigel-Params/with-SteepDescent/Higher-Symm/SD-CG/HFTN-CG
REM
REM
REM
REM
REM
REM ./C.cell (12c818d87b63d06a65506943cc24bca4)
REM
REM compiler GCC version 9.2.1 20190827 (Red Hat 9.2.1-1)
REM options -cpp -mtune=generic -march=x86-64 -g -O0 -fpre-include=/usr/include/finclude/math-vector-fortran.h
REM seed 579630098 1267434165 -886036043 929994181 -1544184010 1717459466 1972496271 -135549302 -857600116 -1559844322 696188008 1269697338 1593850284 -1814029741 -1395415973 -1631707603 1656000873 -979071942 -148086264 1956869197 2095580570 -855010551 971949471 -622843026 1479550876 -2026591335 522614068 1844788137 1836963994 2124158908 -1121798715 -1354618434 1582890973
REM
CELL 1.54180   50.00000   50.00000   50.00000   90.00000   90.00000   90.00000
LATT -1
SFAC C  
C      1  0.5334930000000  0.5068630000000  0.5378130000000 1.0
C      1  0.5206770000000  0.4811920000000  0.5436660000000 1.0
C      1  0.5018480000000  0.4723330000000  0.5227440000000 1.0
C      1  0.4738370000000  0.4813550000000  0.5284560000000 1.0
C      1  0.4741020000000  0.5107830000000  0.5227470000000 1.0
C      1  0.4884440000000  0.5258590000000  0.5436700000000 1.0
C      1  0.5168460000000  0.5299320000000  0.5378150000000 1.0
C      1  0.4982870000000  0.4990030000000  0.4806960000000 1.0
C      1  0.4963100000000  0.4975810000000  0.4287650000000 1.0
C      1  0.5012000000000  0.5011030000000  0.5088090000000 1.0
C      1  0.5001800000000  0.5003630000000  0.5574070000000 1.0
C      1  0.4977400000000  0.4986110000000  0.4542750000000 1.0
END
