TITL C-3578203-1966-51 -1.49257057893011e-06 125000 -801.634115903809 0 0 128 (C1) n - 1
REM
REM in /home/bkarasulu/work/CARBON/AIRSS/Generating-Clusters/EDIP-Nigel-Params/with-SteepDescent/Higher-Symm/SD-CG/HFTN-CG
REM
REM
REM
REM
REM
REM ./C.cell (12c818d87b63d06a65506943cc24bca4)
REM
REM compiler GCC version 9.2.1 20190827 (Red Hat 9.2.1-1)
REM options -cpp -mtune=generic -march=x86-64 -g -O0 -fpre-include=/usr/include/finclude/math-vector-fortran.h
REM seed -391137770 1410030596 -1781495 -2067955856 1170324834 954232102 392288271 -1713490277 -862960741 -1352630902 -469307666 1116221627 349787281 -846637943 -1167522650 1735918936 2011538404 -618473974 -1334999894 -1204278988 1851107996 -700185457 1838045569 -2019674503 -1222799845 -795469240 -459691055 -1061900764 -781445301 -143522340 -1493591365 77904791 59003088
REM
CELL 1.54180   50.00000   50.00000   50.00000   90.00000   90.00000   90.00000
LATT -1
SFAC C  
C      1  0.5741730000000  0.4427910000000  0.4514080000000 1.0
C      1  0.5735000000000  0.4421530000000  0.5497210000000 1.0
C      1  0.5079000000000  0.4399600000000  0.5571460000000 1.0
C      1  0.5073570000000  0.4398720000000  0.4418770000000 1.0
C      1  0.5026550000000  0.4780480000000  0.5269220000000 1.0
C      1  0.5019810000000  0.4780540000000  0.4727570000000 1.0
C      1  0.5490130000000  0.4852570000000  0.4211710000000 1.0
C      1  0.5487350000000  0.4849740000000  0.5798040000000 1.0
C      1  0.4890010000000  0.5737200000000  0.5305000000000 1.0
C      1  0.4880090000000  0.5754840000000  0.4688030000000 1.0
C      1  0.5719840000000  0.4923550000000  0.4390810000000 1.0
C      1  0.5721570000000  0.4915680000000  0.5622330000000 1.0
C      1  0.5846220000000  0.5412520000000  0.4414280000000 1.0
C      1  0.5839840000000  0.5389220000000  0.5564470000000 1.0
C      1  0.3974380000000  0.5183820000000  0.5151840000000 1.0
C      1  0.3977210000000  0.5188220000000  0.4868430000000 1.0
C      1  0.4804810000000  0.5213220000000  0.4207960000000 1.0
C      1  0.4800900000000  0.5209000000000  0.5794850000000 1.0
C      1  0.5396040000000  0.5166380000000  0.4711700000000 1.0
C      1  0.5418150000000  0.5175460000000  0.5296580000000 1.0
C      1  0.4135220000000  0.4686650000000  0.5675850000000 1.0
C      1  0.4129050000000  0.4698500000000  0.4332470000000 1.0
C      1  0.5857380000000  0.4706680000000  0.4542810000000 1.0
C      1  0.5856930000000  0.4697340000000  0.5469500000000 1.0
C      1  0.4705810000000  0.5962930000000  0.5278370000000 1.0
C      1  0.4715520000000  0.6003540000000  0.4675090000000 1.0
C      1  0.5401810000000  0.5853500000000  0.5283160000000 1.0
C      1  0.5388790000000  0.5871130000000  0.4700520000000 1.0
C      1  0.4936750000000  0.4177540000000  0.5142900000000 1.0
C      1  0.4931280000000  0.4177150000000  0.4850340000000 1.0
C      1  0.5522090000000  0.5404250000000  0.5133630000000 1.0
C      1  0.5458970000000  0.5418320000000  0.4859980000000 1.0
C      1  0.4599670000000  0.5048520000000  0.4718650000000 1.0
C      1  0.4602130000000  0.5041130000000  0.5284110000000 1.0
C      1  0.5228800000000  0.4949860000000  0.5696020000000 1.0
C      1  0.5227380000000  0.4950640000000  0.4303550000000 1.0
C      1  0.5318630000000  0.4347760000000  0.4241240000000 1.0
C      1  0.5312150000000  0.4346200000000  0.5762300000000 1.0
C      1  0.5391730000000  0.5851420000000  0.4420540000000 1.0
C      1  0.5413320000000  0.5820440000000  0.5560490000000 1.0
C      1  0.5138060000000  0.5463540000000  0.5661050000000 1.0
C      1  0.5140460000000  0.5471310000000  0.4339480000000 1.0
C      1  0.5603430000000  0.4939600000000  0.5198670000000 1.0
C      1  0.5596900000000  0.4943530000000  0.4813440000000 1.0
C      1  0.5895280000000  0.5005900000000  0.5153530000000 1.0
C      1  0.5888880000000  0.5008900000000  0.4865730000000 1.0
C      1  0.4693960000000  0.4201310000000  0.5300720000000 1.0
C      1  0.4686990000000  0.4203130000000  0.4695570000000 1.0
C      1  0.5094430000000  0.5203460000000  0.5790990000000 1.0
C      1  0.5098560000000  0.5207880000000  0.4210790000000 1.0
C      1  0.5396150000000  0.5590200000000  0.4316720000000 1.0
C      1  0.5399590000000  0.5565880000000  0.5674360000000 1.0
C      1  0.4289040000000  0.5634240000000  0.4599180000000 1.0
C      1  0.4261400000000  0.5620680000000  0.5407530000000 1.0
C      1  0.4333490000000  0.5894090000000  0.5343080000000 1.0
C      1  0.4347340000000  0.5916580000000  0.4595100000000 1.0
C      1  0.5452310000000  0.4579640000000  0.4161690000000 1.0
C      1  0.5443560000000  0.4577420000000  0.5847730000000 1.0
C      1  0.5553270000000  0.5325560000000  0.5567940000000 1.0
C      1  0.5562870000000  0.5371830000000  0.4434580000000 1.0
C      1  0.5036720000000  0.4728560000000  0.4407270000000 1.0
C      1  0.5040470000000  0.4728590000000  0.5588460000000 1.0
C      1  0.5584060000000  0.5683650000000  0.4797470000000 1.0
C      1  0.5613550000000  0.5688930000000  0.5173510000000 1.0
C      1  0.4656020000000  0.4776600000000  0.4848140000000 1.0
C      1  0.4658660000000  0.4772730000000  0.5153340000000 1.0
C      1  0.4213250000000  0.5192100000000  0.5681090000000 1.0
C      1  0.4207960000000  0.5203340000000  0.4337000000000 1.0
C      1  0.6002840000000  0.4750520000000  0.4809400000000 1.0
C      1  0.6003030000000  0.4743670000000  0.5201690000000 1.0
C      1  0.4366870000000  0.5451560000000  0.5637030000000 1.0
C      1  0.4375870000000  0.5453370000000  0.4378800000000 1.0
C      1  0.4056570000000  0.4947850000000  0.5584840000000 1.0
C      1  0.4053520000000  0.4958330000000  0.4430080000000 1.0
C      1  0.4605570000000  0.4512250000000  0.4287790000000 1.0
C      1  0.4613860000000  0.4505140000000  0.5712370000000 1.0
C      1  0.5876360000000  0.5147400000000  0.5690750000000 1.0
C      1  0.5869870000000  0.5156820000000  0.4317390000000 1.0
C      1  0.5101070000000  0.5071660000000  0.5165570000000 1.0
C      1  0.5096940000000  0.5070790000000  0.4832410000000 1.0
C      1  0.4459980000000  0.4323420000000  0.5155290000000 1.0
C      1  0.4457360000000  0.4326170000000  0.4845300000000 1.0
C      1  0.4807930000000  0.4714480000000  0.5787630000000 1.0
C      1  0.4801990000000  0.4719300000000  0.4211780000000 1.0
C      1  0.4440990000000  0.5493180000000  0.4816890000000 1.0
C      1  0.4441540000000  0.5473930000000  0.5204980000000 1.0
C      1  0.4662670000000  0.4961980000000  0.5800240000000 1.0
C      1  0.4661040000000  0.4969110000000  0.4204080000000 1.0
C      1  0.4493060000000  0.5899090000000  0.5095220000000 1.0
C      1  0.4473800000000  0.6036130000000  0.4836300000000 1.0
C      1  0.4898290000000  0.5629250000000  0.4406200000000 1.0
C      1  0.4897360000000  0.5624110000000  0.5593230000000 1.0
C      1  0.5518500000000  0.4220060000000  0.5594710000000 1.0
C      1  0.5519240000000  0.4224080000000  0.4419040000000 1.0
C      1  0.5395480000000  0.4103280000000  0.5345540000000 1.0
C      1  0.5388200000000  0.4114580000000  0.4667460000000 1.0
C      1  0.4780790000000  0.4299710000000  0.5577920000000 1.0
C      1  0.4771120000000  0.4302610000000  0.4417450000000 1.0
C      1  0.5538690000000  0.4629920000000  0.4841280000000 1.0
C      1  0.5547020000000  0.4624190000000  0.5160090000000 1.0
C      1  0.4401630000000  0.4663920000000  0.5559140000000 1.0
C      1  0.4396640000000  0.4671790000000  0.4445100000000 1.0
C      1  0.4758620000000  0.5492970000000  0.5158800000000 1.0
C      1  0.4752970000000  0.5502560000000  0.4842310000000 1.0
C      1  0.4361740000000  0.5201930000000  0.4850260000000 1.0
C      1  0.4359640000000  0.5189430000000  0.5153620000000 1.0
C      1  0.4409620000000  0.4608940000000  0.4745410000000 1.0
C      1  0.4412600000000  0.4604690000000  0.5258120000000 1.0
C      1  0.5786710000000  0.4331690000000  0.5234850000000 1.0
C      1  0.5789400000000  0.4340450000000  0.4777880000000 1.0
C      1  0.4165570000000  0.4726960000000  0.5146890000000 1.0
C      1  0.4164120000000  0.4729490000000  0.4861630000000 1.0
C      1  0.4027000000000  0.4947810000000  0.4722650000000 1.0
C      1  0.4026120000000  0.4940670000000  0.5292160000000 1.0
C      1  0.5144940000000  0.5799310000000  0.5144900000000 1.0
C      1  0.5135740000000  0.5817570000000  0.4845890000000 1.0
C      1  0.5227790000000  0.4564770000000  0.5154710000000 1.0
C      1  0.5219640000000  0.4565140000000  0.4840480000000 1.0
C      1  0.4491160000000  0.4957300000000  0.5569770000000 1.0
C      1  0.4488520000000  0.4964510000000  0.4434650000000 1.0
C      1  0.5614020000000  0.4120410000000  0.5149190000000 1.0
C      1  0.5573620000000  0.4190030000000  0.4872890000000 1.0
C      1  0.5155310000000  0.4299240000000  0.4699940000000 1.0
C      1  0.5166750000000  0.4297890000000  0.5290580000000 1.0
C      1  0.4672350000000  0.5434040000000  0.5655150000000 1.0
C      1  0.4677980000000  0.5437600000000  0.4345990000000 1.0
C      1  0.4848440000000  0.5227960000000  0.4740320000000 1.0
C      1  0.4851610000000  0.5220070000000  0.5257930000000 1.0
END
