TITL C-3578199-7832-550 -4.47647739848175e-06 125000 -1011.57092984092 0 0 160 (C1) n - 1
REM
REM in /home/bkarasulu/work/CARBON/AIRSS/Generating-Clusters/EDIP-Nigel-Params/with-SteepDescent/Higher-Symm/SD-CG/HFTN-CG
REM
REM
REM
REM
REM
REM ./C.cell (12c818d87b63d06a65506943cc24bca4)
REM
REM compiler GCC version 9.2.1 20190827 (Red Hat 9.2.1-1)
REM options -cpp -mtune=generic -march=x86-64 -g -O0 -fpre-include=/usr/include/finclude/math-vector-fortran.h
REM seed -817872174 -1773210709 926967608 -515449111 1905089132 -1303165830 1073895608 1142507964 -1482697817 805938297 -951582551 2114196724 -1609946126 1173831150 2107306720 153111608 -917404076 1138394111 584878405 2035951716 1548752630 2035874868 -1184164897 111236557 -3897736 1401393409 1040560074 1775966331 523812045 -761121984 1947559133 1244160867 1215998572
REM
CELL 1.54180   50.00000   50.00000   50.00000   90.00000   90.00000   90.00000
LATT -1
SFAC C  
C      1  0.4823450000000  0.4484870000000  0.4203390000000 1.0
C      1  0.5702360000000  0.4556300000000  0.4491950000000 1.0
C      1  0.5623060000000  0.4586880000000  0.5424900000000 1.0
C      1  0.4700320000000  0.4539850000000  0.5709450000000 1.0
C      1  0.4173460000000  0.4567560000000  0.4991390000000 1.0
C      1  0.5551870000000  0.4671690000000  0.5741340000000 1.0
C      1  0.4426210000000  0.4661060000000  0.5723130000000 1.0
C      1  0.4095560000000  0.4620290000000  0.4698100000000 1.0
C      1  0.5030460000000  0.4633750000000  0.4036150000000 1.0
C      1  0.5925580000000  0.4636690000000  0.4708400000000 1.0
C      1  0.4555330000000  0.5017810000000  0.4103580000000 1.0
C      1  0.5770200000000  0.5046340000000  0.4347610000000 1.0
C      1  0.5800120000000  0.5059950000000  0.5393980000000 1.0
C      1  0.4764340000000  0.5018560000000  0.5972920000000 1.0
C      1  0.3952370000000  0.5029800000000  0.5077390000000 1.0
C      1  0.5373890000000  0.4401830000000  0.4351870000000 1.0
C      1  0.5680740000000  0.4416360000000  0.5113390000000 1.0
C      1  0.5119240000000  0.4409920000000  0.5698180000000 1.0
C      1  0.4339920000000  0.4412040000000  0.5301560000000 1.0
C      1  0.4502330000000  0.4393620000000  0.4486860000000 1.0
C      1  0.5486990000000  0.4962760000000  0.4675900000000 1.0
C      1  0.5274630000000  0.4942170000000  0.5526340000000 1.0
C      1  0.4737870000000  0.4971840000000  0.5476710000000 1.0
C      1  0.4438650000000  0.4997930000000  0.5084510000000 1.0
C      1  0.4946500000000  0.4904160000000  0.4413870000000 1.0
C      1  0.4797700000000  0.4665350000000  0.5441890000000 1.0
C      1  0.4471980000000  0.4699280000000  0.4994260000000 1.0
C      1  0.4889440000000  0.4614480000000  0.4471500000000 1.0
C      1  0.5482780000000  0.4656980000000  0.4683320000000 1.0
C      1  0.5327580000000  0.4726870000000  0.5339800000000 1.0
C      1  0.4613970000000  0.5871370000000  0.5599980000000 1.0
C      1  0.4339630000000  0.5842420000000  0.4821620000000 1.0
C      1  0.4926980000000  0.5864650000000  0.4315510000000 1.0
C      1  0.5713650000000  0.5809780000000  0.4760390000000 1.0
C      1  0.5466630000000  0.5885610000000  0.5533720000000 1.0
C      1  0.4493630000000  0.3995890000000  0.5080830000000 1.0
C      1  0.4771470000000  0.3993080000000  0.4529570000000 1.0
C      1  0.5363920000000  0.3970810000000  0.4632090000000 1.0
C      1  0.5450950000000  0.3983980000000  0.5234140000000 1.0
C      1  0.4915070000000  0.4017990000000  0.5507170000000 1.0
C      1  0.5323210000000  0.5585000000000  0.4271870000000 1.0
C      1  0.5790220000000  0.5641000000000  0.5205170000000 1.0
C      1  0.5175850000000  0.5640070000000  0.5883200000000 1.0
C      1  0.4224750000000  0.5635720000000  0.5427940000000 1.0
C      1  0.4443950000000  0.5633970000000  0.4394750000000 1.0
C      1  0.6082280000000  0.4977910000000  0.5019480000000 1.0
C      1  0.5250620000000  0.5070960000000  0.5998250000000 1.0
C      1  0.4190120000000  0.5027140000000  0.5494580000000 1.0
C      1  0.4222650000000  0.4951770000000  0.4390300000000 1.0
C      1  0.5342650000000  0.5053620000000  0.4111910000000 1.0
C      1  0.5448530000000  0.4521530000000  0.4951390000000 1.0
C      1  0.5102010000000  0.4535440000000  0.5414490000000 1.0
C      1  0.4622270000000  0.4534990000000  0.5229260000000 1.0
C      1  0.4654590000000  0.4545140000000  0.4720710000000 1.0
C      1  0.5151460000000  0.4499180000000  0.4563580000000 1.0
C      1  0.4956840000000  0.4159670000000  0.4356680000000 1.0
C      1  0.5582490000000  0.4086670000000  0.4780700000000 1.0
C      1  0.5392300000000  0.4132460000000  0.5468390000000 1.0
C      1  0.4677900000000  0.4200560000000  0.5530420000000 1.0
C      1  0.4408780000000  0.4126810000000  0.4840390000000 1.0
C      1  0.5677370000000  0.5159650000000  0.5640070000000 1.0
C      1  0.4518380000000  0.5130130000000  0.5863970000000 1.0
C      1  0.3990650000000  0.5108590000000  0.4792190000000 1.0
C      1  0.4817800000000  0.5127280000000  0.4031140000000 1.0
C      1  0.5835310000000  0.5124980000000  0.4620150000000 1.0
C      1  0.5482290000000  0.5043640000000  0.4958810000000 1.0
C      1  0.5062420000000  0.5122140000000  0.5446900000000 1.0
C      1  0.4654720000000  0.5130620000000  0.5229810000000 1.0
C      1  0.4711260000000  0.5037570000000  0.4552780000000 1.0
C      1  0.5178660000000  0.5007810000000  0.4599710000000 1.0
C      1  0.4855330000000  0.4738790000000  0.5928130000000 1.0
C      1  0.3971100000000  0.4737870000000  0.5156800000000 1.0
C      1  0.4539950000000  0.4717310000000  0.4112620000000 1.0
C      1  0.5715970000000  0.4766300000000  0.4268940000000 1.0
C      1  0.5858210000000  0.4776790000000  0.5391300000000 1.0
C      1  0.4397200000000  0.5415220000000  0.5501890000000 1.0
C      1  0.4377440000000  0.5392360000000  0.4573270000000 1.0
C      1  0.5149860000000  0.5344880000000  0.4291660000000 1.0
C      1  0.5767860000000  0.5408390000000  0.5021380000000 1.0
C      1  0.5318020000000  0.5391660000000  0.5781270000000 1.0
C      1  0.4507920000000  0.5983770000000  0.5001670000000 1.0
C      1  0.4854790000000  0.6026540000000  0.4541190000000 1.0
C      1  0.5456790000000  0.5945260000000  0.4712960000000 1.0
C      1  0.5414310000000  0.6030270000000  0.5283190000000 1.0
C      1  0.4847980000000  0.5997400000000  0.5492120000000 1.0
C      1  0.5795610000000  0.5875880000000  0.5031880000000 1.0
C      1  0.5217830000000  0.5855870000000  0.5689290000000 1.0
C      1  0.4359850000000  0.5887450000000  0.5468140000000 1.0
C      1  0.4382700000000  0.5885000000000  0.4540350000000 1.0
C      1  0.5211050000000  0.5826290000000  0.4365320000000 1.0
C      1  0.5648930000000  0.6087100000000  0.5143990000000 1.0
C      1  0.5038510000000  0.6070400000000  0.5687190000000 1.0
C      1  0.4382420000000  0.6045680000000  0.5241570000000 1.0
C      1  0.4583430000000  0.6079070000000  0.4506470000000 1.0
C      1  0.5390940000000  0.6026250000000  0.4450600000000 1.0
C      1  0.5124100000000  0.5408190000000  0.5509760000000 1.0
C      1  0.4608600000000  0.5419230000000  0.5297900000000 1.0
C      1  0.4599640000000  0.5407300000000  0.4774730000000 1.0
C      1  0.5110910000000  0.5328980000000  0.4608320000000 1.0
C      1  0.5463070000000  0.5341020000000  0.5008210000000 1.0
C      1  0.5145780000000  0.4764070000000  0.6001180000000 1.0
C      1  0.4047630000000  0.4763730000000  0.5450790000000 1.0
C      1  0.4279070000000  0.4700780000000  0.4250590000000 1.0
C      1  0.5485290000000  0.4782560000000  0.4082950000000 1.0
C      1  0.6043450000000  0.4721080000000  0.5167790000000 1.0
C      1  0.5077450000000  0.4832810000000  0.4835410000000 1.0
C      1  0.5252360000000  0.4906410000000  0.5067660000000 1.0
C      1  0.5101510000000  0.5131700000000  0.5163360000000 1.0
C      1  0.4851630000000  0.5154880000000  0.5032940000000 1.0
C      1  0.4799010000000  0.4947530000000  0.4832890000000 1.0
C      1  0.4132500000000  0.4901240000000  0.4651580000000 1.0
C      1  0.5030530000000  0.4932820000000  0.4120330000000 1.0
C      1  0.6015830000000  0.4923190000000  0.4737410000000 1.0
C      1  0.5464700000000  0.4969130000000  0.5745260000000 1.0
C      1  0.4450890000000  0.4950890000000  0.5641150000000 1.0
C      1  0.4844170000000  0.5527590000000  0.4638760000000 1.0
C      1  0.5343460000000  0.5481140000000  0.4752340000000 1.0
C      1  0.5322260000000  0.5526020000000  0.5278380000000 1.0
C      1  0.4823210000000  0.5559590000000  0.5511290000000 1.0
C      1  0.4490110000000  0.5547920000000  0.5023520000000 1.0
C      1  0.5572060000000  0.5622650000000  0.5430530000000 1.0
C      1  0.4903020000000  0.5489560000000  0.5888520000000 1.0
C      1  0.4202900000000  0.5444860000000  0.5087600000000 1.0
C      1  0.4757940000000  0.5608150000000  0.4348810000000 1.0
C      1  0.5553720000000  0.5469480000000  0.4425700000000 1.0
C      1  0.5594840000000  0.5437270000000  0.5669700000000 1.0
C      1  0.4541570000000  0.5409700000000  0.5771240000000 1.0
C      1  0.4123940000000  0.5378340000000  0.4780390000000 1.0
C      1  0.4883410000000  0.5390530000000  0.4162750000000 1.0
C      1  0.5820030000000  0.5444970000000  0.4710810000000 1.0
C      1  0.4496620000000  0.4105110000000  0.4564300000000 1.0
C      1  0.5260720000000  0.4113260000000  0.4377390000000 1.0
C      1  0.5660390000000  0.4106700000000  0.5061550000000 1.0
C      1  0.5163500000000  0.4122760000000  0.5639620000000 1.0
C      1  0.4441580000000  0.4135460000000  0.5348120000000 1.0
C      1  0.4200430000000  0.5139390000000  0.5205840000000 1.0
C      1  0.4463570000000  0.5125700000000  0.4384960000000 1.0
C      1  0.5568390000000  0.5217920000000  0.4257660000000 1.0
C      1  0.5927440000000  0.5189970000000  0.5164020000000 1.0
C      1  0.4973040000000  0.5213310000000  0.5987790000000 1.0
C      1  0.5933570000000  0.4518010000000  0.4984070000000 1.0
C      1  0.5314970000000  0.4546750000000  0.5880510000000 1.0
C      1  0.4224400000000  0.4542500000000  0.5543870000000 1.0
C      1  0.4225910000000  0.4489110000000  0.4452680000000 1.0
C      1  0.5310910000000  0.4545090000000  0.4090760000000 1.0
C      1  0.4752270000000  0.3868230000000  0.5042190000000 1.0
C      1  0.4878800000000  0.3862920000000  0.4774000000000 1.0
C      1  0.5168760000000  0.3848400000000  0.4815950000000 1.0
C      1  0.5215850000000  0.3864790000000  0.5107000000000 1.0
C      1  0.4958500000000  0.3875650000000  0.5248910000000 1.0
C      1  0.5124980000000  0.4281750000000  0.5228360000000 1.0
C      1  0.4809850000000  0.4285690000000  0.5168820000000 1.0
C      1  0.4765050000000  0.4281120000000  0.4861250000000 1.0
C      1  0.5055120000000  0.4264610000000  0.4727530000000 1.0
C      1  0.5278360000000  0.4271100000000  0.4945850000000 1.0
C      1  0.5230910000000  0.5810210000000  0.5163090000000 1.0
C      1  0.4946050000000  0.5882720000000  0.5238340000000 1.0
C      1  0.4779260000000  0.5877430000000  0.5007470000000 1.0
C      1  0.4929160000000  0.5810120000000  0.4756910000000 1.0
C      1  0.5243900000000  0.5772600000000  0.4839800000000 1.0
END
