TITL C-3577086-586-148 9.33891485145767e-07 125000 -927.434154699858 0 0 147 (C1) n - 1
REM
REM in /home/bkarasulu/work/CARBON/AIRSS/Generating-Clusters/EDIP-Nigel-Params/with-SteepDescent/Higher-Symm/SD-CG/HFTN-CG
REM
REM
REM
REM
REM
REM ./C.cell (12c818d87b63d06a65506943cc24bca4)
REM
REM compiler GCC version 9.2.1 20190827 (Red Hat 9.2.1-1)
REM options -cpp -mtune=generic -march=x86-64 -g -O0 -fpre-include=/usr/include/finclude/math-vector-fortran.h
REM seed 429208579 75457119 1367091182 1086112366 474748944 2030147309 513637366 -1190621349 -2084979669 -1604982524 -300822438 1251516283 -1533460383 -1414443559 -1664831260 -1674693086 -1922120364 -208826222 -380117477 391135861 79067947 992305271 2029541997 -1596860841 -639741186 1376590146 2073404165 -249561286 -669378359 -383119380 1977698390 -1261582928 -569630237
REM
CELL 1.54180   50.00000   50.00000   50.00000   90.00000   90.00000   90.00000
LATT -1
SFAC C  
C      1  0.5023820000000  0.4974420000000  0.5565020000000 1.0
C      1  0.5298950000000  0.5089490000000  0.5449900000000 1.0
C      1  0.5485240000000  0.4971130000000  0.5207570000000 1.0
C      1  0.5501880000000  0.5086490000000  0.4907220000000 1.0
C      1  0.5371870000000  0.4971360000000  0.4630430000000 1.0
C      1  0.5111670000000  0.5089520000000  0.4464930000000 1.0
C      1  0.4818050000000  0.4967620000000  0.4452060000000 1.0
C      1  0.4577480000000  0.5074580000000  0.4625270000000 1.0
C      1  0.4477500000000  0.4968820000000  0.4897440000000 1.0
C      1  0.4550870000000  0.4979460000000  0.5279330000000 1.0
C      1  0.4734490000000  0.5090730000000  0.5500250000000 1.0
C      1  0.5716820000000  0.5783690000000  0.4639580000000 1.0
C      1  0.5412270000000  0.5785030000000  0.4294240000000 1.0
C      1  0.4977120000000  0.5787430000000  0.4175450000000 1.0
C      1  0.4550270000000  0.5784040000000  0.4331370000000 1.0
C      1  0.4297790000000  0.5785690000000  0.4701610000000 1.0
C      1  0.4267720000000  0.5768870000000  0.5135120000000 1.0
C      1  0.4435050000000  0.5786800000000  0.5551540000000 1.0
C      1  0.4819870000000  0.5781910000000  0.5795420000000 1.0
C      1  0.5254800000000  0.5793970000000  0.5768760000000 1.0
C      1  0.5626940000000  0.5784790000000  0.5494230000000 1.0
C      1  0.5797080000000  0.5789230000000  0.5065550000000 1.0
C      1  0.4504850000000  0.4664080000000  0.4910950000000 1.0
C      1  0.4571010000000  0.4673040000000  0.5252280000000 1.0
C      1  0.4762730000000  0.4563000000000  0.5458640000000 1.0
C      1  0.5026720000000  0.4667650000000  0.5551040000000 1.0
C      1  0.5282820000000  0.4570120000000  0.5425650000000 1.0
C      1  0.5470230000000  0.4664920000000  0.5201180000000 1.0
C      1  0.5478580000000  0.4557490000000  0.4910170000000 1.0
C      1  0.5360430000000  0.4663530000000  0.4642690000000 1.0
C      1  0.5106260000000  0.4564990000000  0.4497480000000 1.0
C      1  0.4824060000000  0.4662690000000  0.4465520000000 1.0
C      1  0.4608470000000  0.4561990000000  0.4646080000000 1.0
C      1  0.4273840000000  0.4250250000000  0.4979810000000 1.0
C      1  0.4331340000000  0.4252730000000  0.5270030000000 1.0
C      1  0.4572730000000  0.4222820000000  0.5737060000000 1.0
C      1  0.5051060000000  0.4260800000000  0.5839690000000 1.0
C      1  0.5507670000000  0.4230700000000  0.5598870000000 1.0
C      1  0.5689450000000  0.4248440000000  0.5353770000000 1.0
C      1  0.5838470000000  0.4231620000000  0.4843100000000 1.0
C      1  0.5508940000000  0.4243070000000  0.4420360000000 1.0
C      1  0.5256070000000  0.4224980000000  0.4258320000000 1.0
C      1  0.4738220000000  0.4259380000000  0.4185820000000 1.0
C      1  0.4328870000000  0.4225470000000  0.4454560000000 1.0
C      1  0.5843420000000  0.4934630000000  0.4570420000000 1.0
C      1  0.5479150000000  0.4948870000000  0.4167810000000 1.0
C      1  0.4968240000000  0.4937920000000  0.4008500000000 1.0
C      1  0.4434320000000  0.4937520000000  0.4180880000000 1.0
C      1  0.4110800000000  0.4932780000000  0.4619250000000 1.0
C      1  0.4079030000000  0.4945140000000  0.5170170000000 1.0
C      1  0.4305240000000  0.4928320000000  0.5672180000000 1.0
C      1  0.4766320000000  0.4935330000000  0.5960100000000 1.0
C      1  0.5321970000000  0.4942150000000  0.5927540000000 1.0
C      1  0.5748040000000  0.4952950000000  0.5601340000000 1.0
C      1  0.5945050000000  0.4935850000000  0.5091240000000 1.0
C      1  0.4790530000000  0.5514670000000  0.5893730000000 1.0
C      1  0.5286100000000  0.5521030000000  0.5852340000000 1.0
C      1  0.5699680000000  0.5516750000000  0.5554240000000 1.0
C      1  0.5879820000000  0.5515300000000  0.5083390000000 1.0
C      1  0.5784940000000  0.5510730000000  0.4595900000000 1.0
C      1  0.5451540000000  0.5512450000000  0.4225210000000 1.0
C      1  0.4968360000000  0.5518380000000  0.4077430000000 1.0
C      1  0.4493070000000  0.5516380000000  0.4245320000000 1.0
C      1  0.4226890000000  0.5511440000000  0.4665860000000 1.0
C      1  0.4188080000000  0.5497570000000  0.5152670000000 1.0
C      1  0.4369950000000  0.5515330000000  0.5617450000000 1.0
C      1  0.4363140000000  0.4516480000000  0.4469490000000 1.0
C      1  0.4218890000000  0.4545490000000  0.4910900000000 1.0
C      1  0.4305220000000  0.4547970000000  0.5354710000000 1.0
C      1  0.4597980000000  0.4514220000000  0.5712730000000 1.0
C      1  0.5042720000000  0.4551580000000  0.5843450000000 1.0
C      1  0.5470770000000  0.4530790000000  0.5669940000000 1.0
C      1  0.5741100000000  0.4550810000000  0.5311880000000 1.0
C      1  0.5784220000000  0.4519200000000  0.4852570000000 1.0
C      1  0.5573620000000  0.4546980000000  0.4442260000000 1.0
C      1  0.5195580000000  0.4525570000000  0.4201520000000 1.0
C      1  0.4732810000000  0.4549650000000  0.4186680000000 1.0
C      1  0.5523870000000  0.5374160000000  0.5749620000000 1.0
C      1  0.5802070000000  0.5359320000000  0.5323840000000 1.0
C      1  0.5891920000000  0.5364640000000  0.4828810000000 1.0
C      1  0.5624430000000  0.5356450000000  0.4404840000000 1.0
C      1  0.5226050000000  0.5370060000000  0.4091780000000 1.0
C      1  0.4718230000000  0.5358370000000  0.4127060000000 1.0
C      1  0.4300690000000  0.5369070000000  0.4418270000000 1.0
C      1  0.4162800000000  0.5352350000000  0.4901800000000 1.0
C      1  0.4244080000000  0.5353100000000  0.5402040000000 1.0
C      1  0.4538050000000  0.5368880000000  0.5818930000000 1.0
C      1  0.5041240000000  0.5358410000000  0.5897210000000 1.0
C      1  0.4528560000000  0.4130890000000  0.4892730000000 1.0
C      1  0.4600130000000  0.4134400000000  0.5255800000000 1.0
C      1  0.4730150000000  0.4125450000000  0.5520730000000 1.0
C      1  0.5018200000000  0.4147870000000  0.5586470000000 1.0
C      1  0.5272480000000  0.4126050000000  0.5435800000000 1.0
C      1  0.5486870000000  0.4132050000000  0.5168650000000 1.0
C      1  0.5581140000000  0.4125550000000  0.4891060000000 1.0
C      1  0.5401120000000  0.4117230000000  0.4662980000000 1.0
C      1  0.5086400000000  0.4121190000000  0.4481360000000 1.0
C      1  0.4797580000000  0.4137970000000  0.4429800000000 1.0
C      1  0.4553350000000  0.4125120000000  0.4598220000000 1.0
C      1  0.5282040000000  0.5901750000000  0.4517940000000 1.0
C      1  0.4991840000000  0.5902870000000  0.4436190000000 1.0
C      1  0.4708570000000  0.5895710000000  0.4541730000000 1.0
C      1  0.4541690000000  0.5901160000000  0.4793350000000 1.0
C      1  0.4529090000000  0.5874630000000  0.5094590000000 1.0
C      1  0.4628240000000  0.5904450000000  0.5378240000000 1.0
C      1  0.4882630000000  0.5882320000000  0.5535660000000 1.0
C      1  0.5181870000000  0.5911120000000  0.5517850000000 1.0
C      1  0.5420520000000  0.5891800000000  0.5329970000000 1.0
C      1  0.5535510000000  0.5904660000000  0.5046350000000 1.0
C      1  0.5478780000000  0.5897290000000  0.4747590000000 1.0
C      1  0.4724110000000  0.5050010000000  0.4160510000000 1.0
C      1  0.4330390000000  0.5068590000000  0.4441250000000 1.0
C      1  0.4178720000000  0.5050410000000  0.4899620000000 1.0
C      1  0.4268690000000  0.5050180000000  0.5388760000000 1.0
C      1  0.4570840000000  0.5069240000000  0.5762420000000 1.0
C      1  0.5040090000000  0.5052220000000  0.5869380000000 1.0
C      1  0.5486720000000  0.5078200000000  0.5701080000000 1.0
C      1  0.5771330000000  0.5054220000000  0.5315660000000 1.0
C      1  0.5815330000000  0.5072200000000  0.4845770000000 1.0
C      1  0.5599690000000  0.5053260000000  0.4426080000000 1.0
C      1  0.5201340000000  0.5077150000000  0.4162180000000 1.0
C      1  0.4088160000000  0.4658890000000  0.5166680000000 1.0
C      1  0.4319300000000  0.4632370000000  0.5653230000000 1.0
C      1  0.4767660000000  0.4641950000000  0.5946620000000 1.0
C      1  0.5320750000000  0.4648430000000  0.5921640000000 1.0
C      1  0.5743850000000  0.4664110000000  0.5598090000000 1.0
C      1  0.5934640000000  0.4641420000000  0.5091880000000 1.0
C      1  0.5834570000000  0.4639860000000  0.4574360000000 1.0
C      1  0.5475770000000  0.4659760000000  0.4173540000000 1.0
C      1  0.4967760000000  0.4644180000000  0.4017420000000 1.0
C      1  0.4438970000000  0.4643990000000  0.4190880000000 1.0
C      1  0.4126220000000  0.4636060000000  0.4627770000000 1.0
C      1  0.4746090000000  0.5374590000000  0.5428300000000 1.0
C      1  0.5003060000000  0.5471410000000  0.5418780000000 1.0
C      1  0.5257870000000  0.5372960000000  0.5393010000000 1.0
C      1  0.5399860000000  0.5474530000000  0.5179890000000 1.0
C      1  0.5414440000000  0.5364070000000  0.4928990000000 1.0
C      1  0.5213390000000  0.5438360000000  0.4766560000000 1.0
C      1  0.5080390000000  0.5370690000000  0.4541360000000 1.0
C      1  0.4820430000000  0.5467320000000  0.4541890000000 1.0
C      1  0.4635740000000  0.5347680000000  0.4712070000000 1.0
C      1  0.4761270000000  0.5304860000000  0.4969860000000 1.0
C      1  0.4622180000000  0.5413100000000  0.5183090000000 1.0
C      1  0.5003060000000  0.4818910000000  0.4989850000000 1.0
C      1  0.5039360000000  0.4554650000000  0.4976540000000 1.0
C      1  0.4889330000000  0.5058950000000  0.5005710000000 1.0
C      1  0.4990780000000  0.4301350000000  0.4989040000000 1.0
END
