TITL C-3578195-8548-774 1.06616558587812e-06 125000 -775.941911102792 0 0 125 (D2) n - 1
REM
REM in /home/bkarasulu/work/CARBON/AIRSS/Generating-Clusters/EDIP-Nigel-Params/with-SteepDescent/Higher-Symm/SD-CG/HFTN-CG
REM
REM
REM
REM
REM
REM ./C.cell (12c818d87b63d06a65506943cc24bca4)
REM
REM compiler GCC version 9.2.1 20190827 (Red Hat 9.2.1-1)
REM options -cpp -mtune=generic -march=x86-64 -g -O0 -fpre-include=/usr/include/finclude/math-vector-fortran.h
REM seed -493044769 -264070478 45407422 1256565763 -701385319 -309310138 864543431 -14503770 460163992 -1104022092 294072695 -2126994663 761177329 460462348 -641952965 -545321443 -158658391 -627724940 273041247 -739462049 -1576430124 578189029 -2095797519 -2023299398 1365600722 -813733068 2147480284 350420148 587475708 57635147 312517203 795968989 1062207803
REM
CELL 1.54180   50.00000   50.00000   50.00000   90.00000   90.00000   90.00000
LATT -1
SFAC C  
C      1  0.4741000000000  0.4951340000000  0.4537980000000 1.0
C      1  0.5259110000000  0.4951330000000  0.5466570000000 1.0
C      1  0.4740980000000  0.5044970000000  0.5466560000000 1.0
C      1  0.5259120000000  0.5044990000000  0.4537990000000 1.0
C      1  0.4406320000000  0.4649000000000  0.5428520000000 1.0
C      1  0.5593800000000  0.4649040000000  0.4576020000000 1.0
C      1  0.4406320000000  0.5347300000000  0.4576020000000 1.0
C      1  0.5593770000000  0.5347300000000  0.5428540000000 1.0
C      1  0.5159280000000  0.5421010000000  0.5640020000000 1.0
C      1  0.4840800000000  0.5421030000000  0.4364550000000 1.0
C      1  0.5159310000000  0.4575310000000  0.4364540000000 1.0
C      1  0.4840800000000  0.4575280000000  0.5640000000000 1.0
C      1  0.5726540000000  0.5123530000000  0.4476290000000 1.0
C      1  0.4273560000000  0.5123490000000  0.5528270000000 1.0
C      1  0.5726530000000  0.4872810000000  0.5528280000000 1.0
C      1  0.4273580000000  0.4872810000000  0.4476260000000 1.0
C      1  0.4754130000000  0.5774120000000  0.4812520000000 1.0
C      1  0.5245950000000  0.5774120000000  0.5192070000000 1.0
C      1  0.4754150000000  0.4222190000000  0.5192030000000 1.0
C      1  0.5245980000000  0.4222200000000  0.4812490000000 1.0
C      1  0.5141120000000  0.5074330000000  0.4270660000000 1.0
C      1  0.4858980000000  0.5074290000000  0.5733900000000 1.0
C      1  0.5141110000000  0.4921990000000  0.5733900000000 1.0
C      1  0.4859000000000  0.4922020000000  0.4270650000000 1.0
C      1  0.4588030000000  0.4527570000000  0.5830720000000 1.0
C      1  0.5412090000000  0.4527620000000  0.4173810000000 1.0
C      1  0.4588030000000  0.5468730000000  0.4173820000000 1.0
C      1  0.5412060000000  0.5468710000000  0.5830750000000 1.0
C      1  0.4898580000000  0.5516870000000  0.4902770000000 1.0
C      1  0.5101510000000  0.5516870000000  0.5101800000000 1.0
C      1  0.4898590000000  0.4479450000000  0.5101780000000 1.0
C      1  0.5101530000000  0.4479450000000  0.4902750000000 1.0
C      1  0.5534370000000  0.5202970000000  0.5881650000000 1.0
C      1  0.4465730000000  0.5202990000000  0.4122910000000 1.0
C      1  0.5534400000000  0.4793360000000  0.4122910000000 1.0
C      1  0.4465710000000  0.4793310000000  0.5881630000000 1.0
C      1  0.4445600000000  0.5604410000000  0.4415770000000 1.0
C      1  0.5554480000000  0.5604400000000  0.5588800000000 1.0
C      1  0.4445610000000  0.4391890000000  0.5588760000000 1.0
C      1  0.5554520000000  0.4391930000000  0.4415760000000 1.0
C      1  0.5813830000000  0.4415580000000  0.5192510000000 1.0
C      1  0.4186290000000  0.4415560000000  0.4812020000000 1.0
C      1  0.5813820000000  0.5580770000000  0.4812060000000 1.0
C      1  0.4186270000000  0.5580730000000  0.5192510000000 1.0
C      1  0.6009500000000  0.5372240000000  0.4791680000000 1.0
C      1  0.3990590000000  0.5372200000000  0.5212880000000 1.0
C      1  0.6009500000000  0.4624110000000  0.5212890000000 1.0
C      1  0.3990610000000  0.4624080000000  0.4791640000000 1.0
C      1  0.5197050000000  0.4065270000000  0.5332490000000 1.0
C      1  0.4803090000000  0.4065280000000  0.4672020000000 1.0
C      1  0.5197020000000  0.5931050000000  0.4672060000000 1.0
C      1  0.4803050000000  0.5931030000000  0.5332530000000 1.0
C      1  0.5305630000000  0.5236030000000  0.5398360000000 1.0
C      1  0.4694470000000  0.5236030000000  0.4606200000000 1.0
C      1  0.5305650000000  0.4760300000000  0.4606190000000 1.0
C      1  0.4694460000000  0.4760270000000  0.5398350000000 1.0
C      1  0.5229000000000  0.5254390000000  0.5102350000000 1.0
C      1  0.4771100000000  0.5254380000000  0.4902210000000 1.0
C      1  0.5229010000000  0.4741940000000  0.4902210000000 1.0
C      1  0.4771100000000  0.4741930000000  0.5102330000000 1.0
C      1  0.5331340000000  0.4982340000000  0.4076580000000 1.0
C      1  0.4668770000000  0.4982290000000  0.5927970000000 1.0
C      1  0.5331310000000  0.5013990000000  0.5927980000000 1.0
C      1  0.4668790000000  0.5014020000000  0.4076570000000 1.0
C      1  0.4879710000000  0.5800260000000  0.4332850000000 1.0
C      1  0.5120360000000  0.5800240000000  0.5671740000000 1.0
C      1  0.4879720000000  0.4196050000000  0.5671700000000 1.0
C      1  0.5120410000000  0.4196080000000  0.4332820000000 1.0
C      1  0.5317340000000  0.5539100000000  0.4381460000000 1.0
C      1  0.4682740000000  0.5539060000000  0.5623110000000 1.0
C      1  0.5317350000000  0.4457230000000  0.5623100000000 1.0
C      1  0.4682780000000  0.4457250000000  0.4381430000000 1.0
C      1  0.5741410000000  0.4874540000000  0.5086580000000 1.0
C      1  0.4258700000000  0.4874520000000  0.4917960000000 1.0
C      1  0.5741410000000  0.5121800000000  0.4917990000000 1.0
C      1  0.4258690000000  0.5121770000000  0.5086570000000 1.0
C      1  0.4320310000000  0.5589970000000  0.4938280000000 1.0
C      1  0.5679780000000  0.5589990000000  0.5066300000000 1.0
C      1  0.4320320000000  0.4406320000000  0.5066250000000 1.0
C      1  0.5679800000000  0.4406350000000  0.4938270000000 1.0
C      1  0.4025000000000  0.5159410000000  0.5390140000000 1.0
C      1  0.5975090000000  0.5159460000000  0.4614420000000 1.0
C      1  0.4025020000000  0.4836880000000  0.4614390000000 1.0
C      1  0.5975090000000  0.4836890000000  0.5390150000000 1.0
C      1  0.5466510000000  0.4744540000000  0.5409830000000 1.0
C      1  0.4533600000000  0.4744540000000  0.4594710000000 1.0
C      1  0.5466510000000  0.5251790000000  0.4594730000000 1.0
C      1  0.4533590000000  0.5251760000000  0.5409830000000 1.0
C      1  0.5039510000000  0.4000470000000  0.4857430000000 1.0
C      1  0.4960620000000  0.4000460000000  0.5147080000000 1.0
C      1  0.5039480000000  0.5995850000000  0.5147130000000 1.0
C      1  0.4960590000000  0.5995860000000  0.4857470000000 1.0
C      1  0.4508370000000  0.5294800000000  0.5090850000000 1.0
C      1  0.5491730000000  0.5294820000000  0.4913710000000 1.0
C      1  0.4508380000000  0.4701500000000  0.4913690000000 1.0
C      1  0.5491740000000  0.4701510000000  0.5090850000000 1.0
C      1  0.4847060000000  0.5794600000000  0.5583610000000 1.0
C      1  0.5153020000000  0.5794630000000  0.4420970000000 1.0
C      1  0.4847100000000  0.4201710000000  0.4420930000000 1.0
C      1  0.5153030000000  0.4201690000000  0.5583580000000 1.0
C      1  0.4504480000000  0.5805470000000  0.4966020000000 1.0
C      1  0.5495600000000  0.5805480000000  0.5038570000000 1.0
C      1  0.4504510000000  0.4190840000000  0.5038520000000 1.0
C      1  0.5495620000000  0.4190850000000  0.4965990000000 1.0
C      1  0.4890920000000  0.4634380000000  0.4248800000000 1.0
C      1  0.5109190000000  0.4634350000000  0.5755740000000 1.0
C      1  0.4890890000000  0.5361930000000  0.5755750000000 1.0
C      1  0.5109200000000  0.5361970000000  0.4248820000000 1.0
C      1  0.5336820000000  0.4208440000000  0.4522440000000 1.0
C      1  0.4663310000000  0.4208410000000  0.5482070000000 1.0
C      1  0.5336780000000  0.5787890000000  0.5482120000000 1.0
C      1  0.4663300000000  0.5787900000000  0.4522470000000 1.0
C      1  0.5711270000000  0.4839650000000  0.4370520000000 1.0
C      1  0.4288840000000  0.4839600000000  0.5634030000000 1.0
C      1  0.5711250000000  0.5156690000000  0.5634050000000 1.0
C      1  0.4288850000000  0.5156690000000  0.4370510000000 1.0
C      1  0.5456690000000  0.5838230000000  0.4758000000000 1.0
C      1  0.4543390000000  0.5838210000000  0.5246590000000 1.0
C      1  0.5456710000000  0.4158100000000  0.5246560000000 1.0
C      1  0.4543420000000  0.4158090000000  0.4757950000000 1.0
C      1  0.5620210000000  0.5652960000000  0.4598100000000 1.0
C      1  0.4379870000000  0.5652920000000  0.5406470000000 1.0
C      1  0.5620220000000  0.4343380000000  0.5406460000000 1.0
C      1  0.4379900000000  0.4343380000000  0.4598060000000 1.0
C      1  0.5000050000000  0.4998160000000  0.5002280000000 1.0
END
