TITL C-3577076-40-598 -1.05079566836853e-06 125000 -925.437636074044 0 0 148 (C1) n - 1
REM
REM in /home/bkarasulu/work/CARBON/AIRSS/Generating-Clusters/EDIP-Nigel-Params/with-SteepDescent/Higher-Symm/SD-CG/HFTN-CG
REM
REM
REM
REM
REM
REM ./C.cell (12c818d87b63d06a65506943cc24bca4)
REM
REM compiler GCC version 9.2.1 20190827 (Red Hat 9.2.1-1)
REM options -cpp -mtune=generic -march=x86-64 -g -O0 -fpre-include=/usr/include/finclude/math-vector-fortran.h
REM seed 1331413606 -927283992 1457228041 -639087523 1530635067 134079170 -140027744 -1960615354 -150418678 -1634598517 -1331253142 -459878547 613069516 -805109577 1660830836 -300762754 -1332146552 866954397 -523167363 1589620763 -1702377660 649861984 481974860 1756487035 -860386719 -2135372723 994563682 1668528209 367178219 184353859 -1284714796 964913584 1089516521
REM
CELL 1.54180   50.00000   50.00000   50.00000   90.00000   90.00000   90.00000
LATT -1
SFAC C  
C      1  0.5311610000000  0.5721270000000  0.4560890000000 1.0
C      1  0.5552560000000  0.4503030000000  0.5284390000000 1.0
C      1  0.4550060000000  0.5284990000000  0.5665690000000 1.0
C      1  0.5204480000000  0.4258270000000  0.5497240000000 1.0
C      1  0.4713340000000  0.5714610000000  0.5450010000000 1.0
C      1  0.4763280000000  0.4338560000000  0.4599600000000 1.0
C      1  0.5720830000000  0.5507150000000  0.4710910000000 1.0
C      1  0.4303960000000  0.4575000000000  0.4737430000000 1.0
C      1  0.4331700000000  0.5447420000000  0.5228180000000 1.0
C      1  0.4581200000000  0.4740680000000  0.4366910000000 1.0
C      1  0.5457890000000  0.5300500000000  0.4299320000000 1.0
C      1  0.5403100000000  0.4665460000000  0.5734660000000 1.0
C      1  0.4204830000000  0.5603790000000  0.4635020000000 1.0
C      1  0.5587640000000  0.4648840000000  0.4184880000000 1.0
C      1  0.4565260000000  0.4185190000000  0.5607910000000 1.0
C      1  0.4179300000000  0.4384760000000  0.5372630000000 1.0
C      1  0.5850670000000  0.5633860000000  0.5391100000000 1.0
C      1  0.5820280000000  0.4446160000000  0.4578380000000 1.0
C      1  0.5621910000000  0.5371130000000  0.5765050000000 1.0
C      1  0.4365110000000  0.4606090000000  0.5780960000000 1.0
C      1  0.4371220000000  0.5320130000000  0.4253810000000 1.0
C      1  0.4619580000000  0.5735650000000  0.4391540000000 1.0
C      1  0.5381300000000  0.4264160000000  0.4437750000000 1.0
C      1  0.5428830000000  0.5828560000000  0.5613280000000 1.0
C      1  0.5113220000000  0.5049540000000  0.5853170000000 1.0
C      1  0.5081400000000  0.5866100000000  0.5144540000000 1.0
C      1  0.5937580000000  0.5192940000000  0.5031490000000 1.0
C      1  0.5128800000000  0.4969450000000  0.4140410000000 1.0
C      1  0.4844700000000  0.5111040000000  0.4155760000000 1.0
C      1  0.4853460000000  0.4898870000000  0.5817920000000 1.0
C      1  0.5053020000000  0.4124630000000  0.4918480000000 1.0
C      1  0.4917550000000  0.5831830000000  0.4892070000000 1.0
C      1  0.4868810000000  0.4146000000000  0.5150660000000 1.0
C      1  0.5881960000000  0.4950920000000  0.4867580000000 1.0
C      1  0.4085270000000  0.5152920000000  0.4880040000000 1.0
C      1  0.4024510000000  0.4886500000000  0.5027720000000 1.0
C      1  0.4676950000000  0.5084170000000  0.5146410000000 1.0
C      1  0.5161810000000  0.5220340000000  0.4662840000000 1.0
C      1  0.5274220000000  0.4574400000000  0.5171120000000 1.0
C      1  0.4711220000000  0.4868410000000  0.4904200000000 1.0
C      1  0.5391280000000  0.4999680000000  0.5020840000000 1.0
C      1  0.5236910000000  0.4856840000000  0.5192260000000 1.0
C      1  0.5051250000000  0.4986890000000  0.5377560000000 1.0
C      1  0.4915320000000  0.5191120000000  0.5232320000000 1.0
C      1  0.5019640000000  0.4762880000000  0.4575780000000 1.0
C      1  0.5277740000000  0.5251180000000  0.4918640000000 1.0
C      1  0.4845160000000  0.4624680000000  0.4981270000000 1.0
C      1  0.5047360000000  0.5380680000000  0.5062720000000 1.0
C      1  0.5480450000000  0.4221860000000  0.5362910000000 1.0
C      1  0.4309870000000  0.5297490000000  0.5493320000000 1.0
C      1  0.5298960000000  0.5560040000000  0.4308330000000 1.0
C      1  0.5579640000000  0.5779170000000  0.4679630000000 1.0
C      1  0.4488620000000  0.4326050000000  0.4736260000000 1.0
C      1  0.4471600000000  0.5716770000000  0.5279800000000 1.0
C      1  0.4297130000000  0.4706550000000  0.4471890000000 1.0
C      1  0.5724990000000  0.5347510000000  0.4440250000000 1.0
C      1  0.5609010000000  0.4683140000000  0.5525190000000 1.0
C      1  0.5240950000000  0.4414940000000  0.5761700000000 1.0
C      1  0.4708000000000  0.5535680000000  0.5684540000000 1.0
C      1  0.4709940000000  0.4465930000000  0.4326860000000 1.0
C      1  0.5589860000000  0.5946130000000  0.4905060000000 1.0
C      1  0.5827620000000  0.4866220000000  0.5546150000000 1.0
C      1  0.4912560000000  0.5564630000000  0.5882120000000 1.0
C      1  0.5506880000000  0.4066100000000  0.5135480000000 1.0
C      1  0.4467890000000  0.5907240000000  0.5079070000000 1.0
C      1  0.4436340000000  0.4111570000000  0.4901350000000 1.0
C      1  0.5918200000000  0.5152190000000  0.4398650000000 1.0
C      1  0.4104430000000  0.4908520000000  0.4452590000000 1.0
C      1  0.4139640000000  0.5079300000000  0.5493590000000 1.0
C      1  0.4892500000000  0.4432430000000  0.4121460000000 1.0
C      1  0.5058220000000  0.5545230000000  0.4164720000000 1.0
C      1  0.5041050000000  0.4402240000000  0.5953040000000 1.0
C      1  0.5065700000000  0.5879220000000  0.4627680000000 1.0
C      1  0.6028850000000  0.4713810000000  0.4938710000000 1.0
C      1  0.4599310000000  0.5058120000000  0.5863820000000 1.0
C      1  0.4989830000000  0.4048380000000  0.5412990000000 1.0
C      1  0.4938620000000  0.5916860000000  0.5404620000000 1.0
C      1  0.4947630000000  0.4098270000000  0.4647050000000 1.0
C      1  0.5981410000000  0.5470660000000  0.4892450000000 1.0
C      1  0.4034230000000  0.4606060000000  0.4916880000000 1.0
C      1  0.4074640000000  0.5418090000000  0.5048610000000 1.0
C      1  0.4599590000000  0.4925170000000  0.4121490000000 1.0
C      1  0.5384210000000  0.5108730000000  0.4055390000000 1.0
C      1  0.5370320000000  0.4906310000000  0.5909450000000 1.0
C      1  0.5378650000000  0.4452430000000  0.4220190000000 1.0
C      1  0.4380130000000  0.4181130000000  0.5389380000000 1.0
C      1  0.4177530000000  0.5371600000000  0.4464740000000 1.0
C      1  0.5433370000000  0.5597180000000  0.5792270000000 1.0
C      1  0.4564090000000  0.4398780000000  0.5797750000000 1.0
C      1  0.4588390000000  0.5506690000000  0.4216180000000 1.0
C      1  0.4426300000000  0.5782690000000  0.4599160000000 1.0
C      1  0.5596660000000  0.4262240000000  0.4634090000000 1.0
C      1  0.5646230000000  0.5847210000000  0.5409620000000 1.0
C      1  0.4169180000000  0.4590230000000  0.5574390000000 1.0
C      1  0.5831800000000  0.5384780000000  0.5562800000000 1.0
C      1  0.5787660000000  0.4663260000000  0.4387320000000 1.0
C      1  0.5569860000000  0.4134560000000  0.4883210000000 1.0
C      1  0.4040280000000  0.4830480000000  0.5519720000000 1.0
C      1  0.4828870000000  0.5405400000000  0.4081650000000 1.0
C      1  0.5611900000000  0.5990120000000  0.5170670000000 1.0
C      1  0.4438610000000  0.4036780000000  0.5158990000000 1.0
C      1  0.4495710000000  0.5945290000000  0.4814330000000 1.0
C      1  0.4022170000000  0.5148390000000  0.4575040000000 1.0
C      1  0.5954060000000  0.4886100000000  0.4379550000000 1.0
C      1  0.5912310000000  0.5123020000000  0.5468670000000 1.0
C      1  0.4774540000000  0.4408590000000  0.5978050000000 1.0
C      1  0.5186890000000  0.5561330000000  0.5930270000000 1.0
C      1  0.5152790000000  0.4447660000000  0.4060070000000 1.0
C      1  0.5561810000000  0.5113480000000  0.5866700000000 1.0
C      1  0.5166340000000  0.5934760000000  0.5577630000000 1.0
C      1  0.5980880000000  0.5620370000000  0.5137410000000 1.0
C      1  0.5550320000000  0.4881410000000  0.4030810000000 1.0
C      1  0.4371860000000  0.5085960000000  0.4099510000000 1.0
C      1  0.4399600000000  0.4860730000000  0.5892280000000 1.0
C      1  0.5162080000000  0.4096440000000  0.4470810000000 1.0
C      1  0.4872950000000  0.5845110000000  0.4427150000000 1.0
C      1  0.4784310000000  0.4012380000000  0.5600080000000 1.0
C      1  0.6009450000000  0.4474170000000  0.4793120000000 1.0
C      1  0.4044490000000  0.5625130000000  0.4863740000000 1.0
C      1  0.4042250000000  0.4429770000000  0.5133490000000 1.0
C      1  0.5677250000000  0.4552720000000  0.4980810000000 1.0
C      1  0.4544480000000  0.4944770000000  0.5384090000000 1.0
C      1  0.4968560000000  0.5447650000000  0.4573150000000 1.0
C      1  0.5518650000000  0.5412740000000  0.4919430000000 1.0
C      1  0.4436490000000  0.4785220000000  0.4911880000000 1.0
C      1  0.4529220000000  0.5309930000000  0.5040560000000 1.0
C      1  0.4760210000000  0.4898670000000  0.4579960000000 1.0
C      1  0.5355510000000  0.5104460000000  0.4497500000000 1.0
C      1  0.5517880000000  0.5103500000000  0.5428990000000 1.0
C      1  0.5070780000000  0.4482390000000  0.5358560000000 1.0
C      1  0.5108560000000  0.5438430000000  0.5546970000000 1.0
C      1  0.4980590000000  0.4529580000000  0.4748610000000 1.0
C      1  0.5257970000000  0.4832010000000  0.4413290000000 1.0
C      1  0.4814860000000  0.4448450000000  0.5218180000000 1.0
C      1  0.4388900000000  0.5162100000000  0.4816730000000 1.0
C      1  0.5205120000000  0.5145430000000  0.5573380000000 1.0
C      1  0.4829350000000  0.4812600000000  0.5522500000000 1.0
C      1  0.4773630000000  0.5175030000000  0.4458410000000 1.0
C      1  0.4857260000000  0.5531570000000  0.4861300000000 1.0
C      1  0.5259010000000  0.4438200000000  0.4861620000000 1.0
C      1  0.5168110000000  0.5574970000000  0.5239700000000 1.0
C      1  0.4336130000000  0.4756230000000  0.5201910000000 1.0
C      1  0.5665050000000  0.5315340000000  0.5154990000000 1.0
C      1  0.5590070000000  0.4847280000000  0.4860590000000 1.0
C      1  0.5439020000000  0.4645370000000  0.4655260000000 1.0
C      1  0.4582580000000  0.5374370000000  0.4638140000000 1.0
C      1  0.4575270000000  0.4572160000000  0.5398060000000 1.0
C      1  0.5445450000000  0.5462560000000  0.5372960000000 1.0
END
