TITL C-3577076-40-630 -2.50176501930583e-07 125000 -717.336617372645 0 0 115 (C1) n - 1
REM
REM in /home/bkarasulu/work/CARBON/AIRSS/Generating-Clusters/EDIP-Nigel-Params/with-SteepDescent/Higher-Symm/SD-CG/HFTN-CG
REM
REM
REM
REM
REM
REM ./C.cell (12c818d87b63d06a65506943cc24bca4)
REM
REM compiler GCC version 9.2.1 20190827 (Red Hat 9.2.1-1)
REM options -cpp -mtune=generic -march=x86-64 -g -O0 -fpre-include=/usr/include/finclude/math-vector-fortran.h
REM seed 581779081 1368612123 -401659172 -2057236102 842175935 383749499 904563899 1010671709 -2092379612 -1077865612 1449739872 894185825 -1075241742 169650824 -1185598569 -545540157 1989476765 464304732 -1659117240 625899881 693552519 -1424393216 -1128256274 -924563799 -2050280710 2053127766 109640803 -1507587556 -2086763120 739640478 -459715232 -626887090 -1897673009
REM
CELL 1.54180   50.00000   50.00000   50.00000   90.00000   90.00000   90.00000
LATT -1
SFAC C  
C      1  0.4407850000000  0.5246270000000  0.4661640000000 1.0
C      1  0.5615240000000  0.5245320000000  0.5328140000000 1.0
C      1  0.4391230000000  0.4737210000000  0.5329720000000 1.0
C      1  0.5617160000000  0.4775710000000  0.4685270000000 1.0
C      1  0.5006060000000  0.5290020000000  0.4084740000000 1.0
C      1  0.4953000000000  0.5288080000000  0.5891160000000 1.0
C      1  0.5025440000000  0.4704520000000  0.5913780000000 1.0
C      1  0.4945330000000  0.4748440000000  0.4139480000000 1.0
C      1  0.4780590000000  0.4555750000000  0.5838750000000 1.0
C      1  0.5219790000000  0.4640760000000  0.4186680000000 1.0
C      1  0.4777930000000  0.5467330000000  0.4139650000000 1.0
C      1  0.5217190000000  0.5351790000000  0.5782030000000 1.0
C      1  0.5175800000000  0.4395160000000  0.4352760000000 1.0
C      1  0.4849250000000  0.4347090000000  0.5644150000000 1.0
C      1  0.5176710000000  0.5607620000000  0.5620330000000 1.0
C      1  0.4853150000000  0.5665180000000  0.4340720000000 1.0
C      1  0.5293190000000  0.4137180000000  0.4774970000000 1.0
C      1  0.4732190000000  0.4115760000000  0.5210410000000 1.0
C      1  0.5296260000000  0.5884530000000  0.5211330000000 1.0
C      1  0.4735310000000  0.5878540000000  0.4776670000000 1.0
C      1  0.4870150000000  0.5471250000000  0.5168700000000 1.0
C      1  0.5138860000000  0.5478490000000  0.4888180000000 1.0
C      1  0.4878900000000  0.4532640000000  0.4854340000000 1.0
C      1  0.5138290000000  0.4528450000000  0.5146540000000 1.0
C      1  0.4326250000000  0.5514880000000  0.5522130000000 1.0
C      1  0.5630230000000  0.5460660000000  0.4454790000000 1.0
C      1  0.4316640000000  0.4519010000000  0.4477960000000 1.0
C      1  0.5675890000000  0.4511910000000  0.5545610000000 1.0
C      1  0.5196580000000  0.5347650000000  0.4313020000000 1.0
C      1  0.4760590000000  0.5458540000000  0.5735940000000 1.0
C      1  0.5234950000000  0.4579010000000  0.5730070000000 1.0
C      1  0.4748230000000  0.4567050000000  0.4265980000000 1.0
C      1  0.4814310000000  0.4261980000000  0.4727500000000 1.0
C      1  0.5207080000000  0.4256860000000  0.5264840000000 1.0
C      1  0.4809000000000  0.5753370000000  0.5272650000000 1.0
C      1  0.5204550000000  0.5735520000000  0.4737300000000 1.0
C      1  0.4426670000000  0.4452020000000  0.5344370000000 1.0
C      1  0.5586960000000  0.4490150000000  0.4668690000000 1.0
C      1  0.4444840000000  0.5531380000000  0.4651770000000 1.0
C      1  0.5586160000000  0.5533580000000  0.5316050000000 1.0
C      1  0.5992700000000  0.4997460000000  0.4862100000000 1.0
C      1  0.4039580000000  0.4977290000000  0.5127160000000 1.0
C      1  0.5988730000000  0.5031280000000  0.5128700000000 1.0
C      1  0.4042560000000  0.5021200000000  0.4860740000000 1.0
C      1  0.5869480000000  0.4890300000000  0.4636270000000 1.0
C      1  0.4142880000000  0.4867550000000  0.5362690000000 1.0
C      1  0.5870020000000  0.5128840000000  0.5360560000000 1.0
C      1  0.4151300000000  0.5132890000000  0.4628510000000 1.0
C      1  0.4636760000000  0.5033910000000  0.5339500000000 1.0
C      1  0.5355270000000  0.5059700000000  0.4692840000000 1.0
C      1  0.4664900000000  0.4960460000000  0.4669250000000 1.0
C      1  0.5352070000000  0.4962420000000  0.5359390000000 1.0
C      1  0.5204710000000  0.5168170000000  0.5192280000000 1.0
C      1  0.4794920000000  0.5161520000000  0.4861060000000 1.0
C      1  0.5214950000000  0.4849110000000  0.4855570000000 1.0
C      1  0.4791490000000  0.4831610000000  0.5166730000000 1.0
C      1  0.5108930000000  0.5155900000000  0.4529520000000 1.0
C      1  0.4885500000000  0.5101220000000  0.5508760000000 1.0
C      1  0.5087380000000  0.4861260000000  0.5508760000000 1.0
C      1  0.4922730000000  0.4896780000000  0.4499210000000 1.0
C      1  0.4352250000000  0.5682630000000  0.4888500000000 1.0
C      1  0.5679230000000  0.5694970000000  0.5085880000000 1.0
C      1  0.4342410000000  0.4302580000000  0.5103520000000 1.0
C      1  0.5674920000000  0.4329420000000  0.4901020000000 1.0
C      1  0.5522270000000  0.4660180000000  0.5722590000000 1.0
C      1  0.4493790000000  0.4678690000000  0.4339280000000 1.0
C      1  0.5489290000000  0.5293940000000  0.4283600000000 1.0
C      1  0.4497510000000  0.5355220000000  0.5670060000000 1.0
C      1  0.4945600000000  0.4646170000000  0.5335710000000 1.0
C      1  0.5066810000000  0.4673790000000  0.4671300000000 1.0
C      1  0.4951750000000  0.5347770000000  0.4705550000000 1.0
C      1  0.5037820000000  0.5333690000000  0.5376820000000 1.0
C      1  0.5467390000000  0.5866840000000  0.4978530000000 1.0
C      1  0.4559160000000  0.5853680000000  0.5004690000000 1.0
C      1  0.5465200000000  0.4154760000000  0.5006720000000 1.0
C      1  0.4558160000000  0.4144780000000  0.4981560000000 1.0
C      1  0.4590820000000  0.5130360000000  0.4149080000000 1.0
C      1  0.5411180000000  0.5147310000000  0.5755230000000 1.0
C      1  0.4603210000000  0.4894590000000  0.5844030000000 1.0
C      1  0.5445560000000  0.4806230000000  0.4209380000000 1.0
C      1  0.5631340000000  0.5434280000000  0.4733520000000 1.0
C      1  0.4352160000000  0.5436720000000  0.5256510000000 1.0
C      1  0.5645500000000  0.4566390000000  0.5273120000000 1.0
C      1  0.4362760000000  0.4565600000000  0.4748390000000 1.0
C      1  0.4882990000000  0.5688240000000  0.5583550000000 1.0
C      1  0.5139670000000  0.5639590000000  0.4426210000000 1.0
C      1  0.4883650000000  0.4345080000000  0.4412870000000 1.0
C      1  0.5140500000000  0.4325490000000  0.5579080000000 1.0
C      1  0.4398470000000  0.4934300000000  0.4243810000000 1.0
C      1  0.5600100000000  0.4941050000000  0.5723180000000 1.0
C      1  0.4418360000000  0.5082540000000  0.5721830000000 1.0
C      1  0.5586710000000  0.5022680000000  0.4318740000000 1.0
C      1  0.4717280000000  0.5638370000000  0.4605050000000 1.0
C      1  0.5336960000000  0.5655240000000  0.5378910000000 1.0
C      1  0.4698470000000  0.4347570000000  0.5388560000000 1.0
C      1  0.5321170000000  0.4381900000000  0.4612120000000 1.0
C      1  0.5851800000000  0.4990600000000  0.5602870000000 1.0
C      1  0.4161350000000  0.5013060000000  0.4374940000000 1.0
C      1  0.5864130000000  0.5006400000000  0.4381680000000 1.0
C      1  0.4173410000000  0.5005960000000  0.5604800000000 1.0
C      1  0.5018580000000  0.5944230000000  0.5146250000000 1.0
C      1  0.5006770000000  0.5941740000000  0.4847830000000 1.0
C      1  0.5020750000000  0.4067380000000  0.4842170000000 1.0
C      1  0.5006960000000  0.4060060000000  0.5140320000000 1.0
C      1  0.4613130000000  0.4711310000000  0.4846390000000 1.0
C      1  0.5402000000000  0.4717630000000  0.5169380000000 1.0
C      1  0.4599860000000  0.5289040000000  0.5162730000000 1.0
C      1  0.5402620000000  0.5295800000000  0.4879960000000 1.0
C      1  0.4182490000000  0.4450900000000  0.4928820000000 1.0
C      1  0.5831180000000  0.4463140000000  0.5091000000000 1.0
C      1  0.4181810000000  0.5549370000000  0.5065840000000 1.0
C      1  0.5828650000000  0.5558610000000  0.4890410000000 1.0
C      1  0.4885370000000  0.4980930000000  0.5881710000000 1.0
C      1  0.4856310000000  0.5036370000000  0.4088430000000 1.0
C      1  0.5005150000000  0.5002240000000  0.5019940000000 1.0
END
