TITL C-3578202-4305-675 -1.52997587021152e-06 125000 -866.591308385167 0 0 139 (C1) n - 1
REM
REM in /home/bkarasulu/work/CARBON/AIRSS/Generating-Clusters/EDIP-Nigel-Params/with-SteepDescent/Higher-Symm/SD-CG/HFTN-CG
REM
REM
REM
REM
REM
REM ./C.cell (12c818d87b63d06a65506943cc24bca4)
REM
REM compiler GCC version 9.2.1 20190827 (Red Hat 9.2.1-1)
REM options -cpp -mtune=generic -march=x86-64 -g -O0 -fpre-include=/usr/include/finclude/math-vector-fortran.h
REM seed 570827591 2056752947 493940300 1621168997 -1455715481 -1615319681 1389041639 -1243610094 851682036 1021342716 1320076638 210771766 -2060495790 -675151616 1571073328 1730374066 -1835046953 1496957497 -26514234 1051672492 2012644986 -154196397 2096566107 259840838 1216840959 1800368632 674575520 1559318684 -1508287369 76493503 1084410589 -248866577 774212074
REM
CELL 1.54180   50.00000   50.00000   50.00000   90.00000   90.00000   90.00000
LATT -1
SFAC C  
C      1  0.5020000000000  0.4703120000000  0.4428320000000 1.0
C      1  0.4700140000000  0.5009830000000  0.4671630000000 1.0
C      1  0.5152410000000  0.5195650000000  0.4615150000000 1.0
C      1  0.4834480000000  0.5047250000000  0.6215810000000 1.0
C      1  0.5221880000000  0.5094710000000  0.6215000000000 1.0
C      1  0.5067260000000  0.4740780000000  0.6148510000000 1.0
C      1  0.4459770000000  0.5386300000000  0.4168660000000 1.0
C      1  0.5616070000000  0.5273360000000  0.4158550000000 1.0
C      1  0.4954160000000  0.4224330000000  0.4114200000000 1.0
C      1  0.4663120000000  0.4308140000000  0.4143320000000 1.0
C      1  0.4676220000000  0.5581590000000  0.4219890000000 1.0
C      1  0.5673470000000  0.4991620000000  0.4223060000000 1.0
C      1  0.5608920000000  0.4242390000000  0.4877760000000 1.0
C      1  0.4030050000000  0.4850860000000  0.4878650000000 1.0
C      1  0.5374800000000  0.5985370000000  0.4850970000000 1.0
C      1  0.5619630000000  0.5402790000000  0.4424130000000 1.0
C      1  0.5037010000000  0.4161770000000  0.4394380000000 1.0
C      1  0.4323890000000  0.5367750000000  0.4427170000000 1.0
C      1  0.4873560000000  0.5822240000000  0.5273890000000 1.0
C      1  0.5917260000000  0.4824090000000  0.5360340000000 1.0
C      1  0.4349860000000  0.4485910000000  0.5258560000000 1.0
C      1  0.4668170000000  0.4880490000000  0.6026790000000 1.0
C      1  0.5147380000000  0.5370950000000  0.6133310000000 1.0
C      1  0.5332320000000  0.4719250000000  0.6011920000000 1.0
C      1  0.5123580000000  0.5776470000000  0.5652510000000 1.0
C      1  0.5639310000000  0.4513100000000  0.5566060000000 1.0
C      1  0.4265620000000  0.4705920000000  0.5649340000000 1.0
C      1  0.5111910000000  0.6080250000000  0.4938790000000 1.0
C      1  0.5780820000000  0.4431570000000  0.5008600000000 1.0
C      1  0.4060310000000  0.4578700000000  0.4829720000000 1.0
C      1  0.5412180000000  0.5135730000000  0.5371070000000 1.0
C      1  0.4891080000000  0.4632450000000  0.5378780000000 1.0
C      1  0.4716300000000  0.5276340000000  0.5311990000000 1.0
C      1  0.4238590000000  0.5504580000000  0.5437240000000 1.0
C      1  0.5839850000000  0.5467880000000  0.5443730000000 1.0
C      1  0.4940600000000  0.4055910000000  0.5420230000000 1.0
C      1  0.5624480000000  0.5595110000000  0.5273600000000 1.0
C      1  0.5153650000000  0.4175510000000  0.5245680000000 1.0
C      1  0.4207530000000  0.5257640000000  0.5263360000000 1.0
C      1  0.4473060000000  0.5114830000000  0.5239050000000 1.0
C      1  0.5383780000000  0.5418590000000  0.5294250000000 1.0
C      1  0.5108190000000  0.4472960000000  0.5256780000000 1.0
C      1  0.4625310000000  0.4121540000000  0.5036210000000 1.0
C      1  0.4422300000000  0.5765680000000  0.5053310000000 1.0
C      1  0.5957410000000  0.5181120000000  0.5058750000000 1.0
C      1  0.5341660000000  0.4200000000000  0.4777480000000 1.0
C      1  0.4098630000000  0.5111030000000  0.4775300000000 1.0
C      1  0.5520300000000  0.5742860000000  0.4772010000000 1.0
C      1  0.5549450000000  0.5844890000000  0.5402670000000 1.0
C      1  0.5418990000000  0.4117590000000  0.5352010000000 1.0
C      1  0.4029310000000  0.5073320000000  0.5404390000000 1.0
C      1  0.5136650000000  0.5091460000000  0.5707450000000 1.0
C      1  0.5025050000000  0.4793050000000  0.5664320000000 1.0
C      1  0.4852050000000  0.5244200000000  0.5791540000000 1.0
C      1  0.4967020000000  0.5296790000000  0.4864820000000 1.0
C      1  0.5165460000000  0.4920930000000  0.4971320000000 1.0
C      1  0.4883000000000  0.4862230000000  0.4901130000000 1.0
C      1  0.5131970000000  0.5484340000000  0.4451920000000 1.0
C      1  0.5329150000000  0.4665540000000  0.4428700000000 1.0
C      1  0.4536280000000  0.4779180000000  0.4330100000000 1.0
C      1  0.4696240000000  0.4038860000000  0.5291560000000 1.0
C      1  0.4315500000000  0.5736450000000  0.5307180000000 1.0
C      1  0.6016260000000  0.5308570000000  0.5298950000000 1.0
C      1  0.5299960000000  0.4228910000000  0.4493390000000 1.0
C      1  0.4188650000000  0.5126280000000  0.4498770000000 1.0
C      1  0.5529800000000  0.5667480000000  0.4485470000000 1.0
C      1  0.4713690000000  0.5825140000000  0.5035800000000 1.0
C      1  0.5894200000000  0.4901200000000  0.5094450000000 1.0
C      1  0.4425740000000  0.4337280000000  0.5018130000000 1.0
C      1  0.4929740000000  0.5420840000000  0.4236400000000 1.0
C      1  0.5397350000000  0.4876130000000  0.4222410000000 1.0
C      1  0.4681060000000  0.4618060000000  0.4118590000000 1.0
C      1  0.5126770000000  0.5699410000000  0.4936140000000 1.0
C      1  0.5445930000000  0.4592330000000  0.4933610000000 1.0
C      1  0.4415070000000  0.4817970000000  0.4823930000000 1.0
C      1  0.4761690000000  0.4788900000000  0.5151980000000 1.0
C      1  0.4976420000000  0.5260710000000  0.5169710000000 1.0
C      1  0.5193300000000  0.4961150000000  0.5289940000000 1.0
C      1  0.5685180000000  0.5212070000000  0.4633600000000 1.0
C      1  0.4815040000000  0.4237740000000  0.4573730000000 1.0
C      1  0.4484740000000  0.5508130000000  0.4633510000000 1.0
C      1  0.4879550000000  0.5702500000000  0.5530710000000 1.0
C      1  0.5727240000000  0.4788270000000  0.5560320000000 1.0
C      1  0.4423760000000  0.4501110000000  0.5537880000000 1.0
C      1  0.5219240000000  0.4330090000000  0.5738050000000 1.0
C      1  0.4369930000000  0.5161070000000  0.5757620000000 1.0
C      1  0.5503860000000  0.5537530000000  0.5796400000000 1.0
C      1  0.5118010000000  0.5524200000000  0.5209680000000 1.0
C      1  0.5321750000000  0.4658770000000  0.5209190000000 1.0
C      1  0.4480260000000  0.4823000000000  0.5128860000000 1.0
C      1  0.5176550000000  0.5022880000000  0.4050990000000 1.0
C      1  0.4975670000000  0.4692490000000  0.4116970000000 1.0
C      1  0.4898460000000  0.5125440000000  0.4190720000000 1.0
C      1  0.5363620000000  0.5006660000000  0.5952330000000 1.0
C      1  0.4850230000000  0.4676490000000  0.5922650000000 1.0
C      1  0.4866990000000  0.5319810000000  0.6087520000000 1.0
C      1  0.4632270000000  0.5040110000000  0.5793860000000 1.0
C      1  0.5252830000000  0.5423890000000  0.5874070000000 1.0
C      1  0.5257460000000  0.4625530000000  0.5749810000000 1.0
C      1  0.4233320000000  0.4358230000000  0.4795560000000 1.0
C      1  0.4834480000000  0.6015530000000  0.4840870000000 1.0
C      1  0.5877180000000  0.4684050000000  0.4897310000000 1.0
C      1  0.4553250000000  0.4190400000000  0.4417090000000 1.0
C      1  0.4604200000000  0.5751180000000  0.4465390000000 1.0
C      1  0.5832070000000  0.4985080000000  0.4489760000000 1.0
C      1  0.4825840000000  0.4534690000000  0.4610820000000 1.0
C      1  0.4687850000000  0.5304440000000  0.4748520000000 1.0
C      1  0.5422810000000  0.5075570000000  0.4725790000000 1.0
C      1  0.5467820000000  0.4769810000000  0.4682770000000 1.0
C      1  0.4530610000000  0.4612100000000  0.4581950000000 1.0
C      1  0.4977220000000  0.5633140000000  0.4669230000000 1.0
C      1  0.5117060000000  0.4449270000000  0.4003890000000 1.0
C      1  0.4553740000000  0.5128510000000  0.4065290000000 1.0
C      1  0.5360700000000  0.5298600000000  0.4007970000000 1.0
C      1  0.4847650000000  0.5884650000000  0.4570260000000 1.0
C      1  0.5759230000000  0.4736810000000  0.4629250000000 1.0
C      1  0.4348070000000  0.4377950000000  0.4522710000000 1.0
C      1  0.4421090000000  0.5441840000000  0.5656790000000 1.0
C      1  0.5709820000000  0.5340110000000  0.5682060000000 1.0
C      1  0.4925610000000  0.4232750000000  0.5654620000000 1.0
C      1  0.5408460000000  0.5772150000000  0.5640540000000 1.0
C      1  0.5471220000000  0.4276780000000  0.5579340000000 1.0
C      1  0.4178080000000  0.4974900000000  0.5627940000000 1.0
C      1  0.4141790000000  0.5337350000000  0.4967560000000 1.0
C      1  0.5696260000000  0.5603250000000  0.4968000000000 1.0
C      1  0.5125460000000  0.4102520000000  0.4952220000000 1.0
C      1  0.5488490000000  0.4339730000000  0.4311950000000 1.0
C      1  0.4180040000000  0.4919110000000  0.4300310000000 1.0
C      1  0.5347820000000  0.5748980000000  0.4279730000000 1.0
C      1  0.5560610000000  0.5054560000000  0.5624640000000 1.0
C      1  0.4724370000000  0.4478740000000  0.5615160000000 1.0
C      1  0.4722880000000  0.5438210000000  0.5570880000000 1.0
C      1  0.4324580000000  0.4952180000000  0.4057780000000 1.0
C      1  0.5302650000000  0.5573420000000  0.4064120000000 1.0
C      1  0.5388910000000  0.4415800000000  0.4066410000000 1.0
C      1  0.4848700000000  0.4110330000000  0.4844360000000 1.0
C      1  0.4301070000000  0.5575380000000  0.4861350000000 1.0
C      1  0.5812760000000  0.5347880000000  0.4869030000000 1.0
C      1  0.4945050000000  0.4999810000000  0.4470690000000 1.0
END
