TITL C-3577085-527-6 2.24543880312684e-06 125000 -662.669001256304 0 0 106 (C1) n - 1
REM
REM in /home/bkarasulu/work/CARBON/AIRSS/Generating-Clusters/EDIP-Nigel-Params/with-SteepDescent/Higher-Symm/SD-CG/HFTN-CG
REM
REM
REM
REM
REM
REM ./C.cell (12c818d87b63d06a65506943cc24bca4)
REM
REM compiler GCC version 9.2.1 20190827 (Red Hat 9.2.1-1)
REM options -cpp -mtune=generic -march=x86-64 -g -O0 -fpre-include=/usr/include/finclude/math-vector-fortran.h
REM seed -1089352957 -1954969257 619316966 1819122345 886477942 1743505088 1957142121 1427461159 1307553269 -1926155435 -206375003 1937242035 -483884746 553471121 837971930 1684774598 577061174 -1980497964 337811068 -2008583394 2079327587 1862258093 -284682467 -480155565 -1377334307 455917483 293477549 -1724240985 -2025152853 1820250174 1155928449 298919280 -1534445976
REM
CELL 1.54180   50.00000   50.00000   50.00000   90.00000   90.00000   90.00000
LATT -1
SFAC C  
C      1  0.5003520000000  0.5901890000000  0.5326690000000 1.0
C      1  0.4202430000000  0.4770340000000  0.5341540000000 1.0
C      1  0.5413550000000  0.4325790000000  0.5300150000000 1.0
C      1  0.4988280000000  0.6035710000000  0.4858650000000 1.0
C      1  0.5591330000000  0.5319670000000  0.4249000000000 1.0
C      1  0.5280470000000  0.5796650000000  0.5405550000000 1.0
C      1  0.5178890000000  0.4147270000000  0.5300830000000 1.0
C      1  0.5323660000000  0.5367960000000  0.5868230000000 1.0
C      1  0.5391790000000  0.5796770000000  0.4807940000000 1.0
C      1  0.5562340000000  0.5421940000000  0.5077320000000 1.0
C      1  0.4195690000000  0.5277980000000  0.5026290000000 1.0
C      1  0.4928870000000  0.5189560000000  0.5041500000000 1.0
C      1  0.4515420000000  0.4684840000000  0.4442470000000 1.0
C      1  0.4783410000000  0.5734120000000  0.5448320000000 1.0
C      1  0.5146640000000  0.4288530000000  0.4741540000000 1.0
C      1  0.5139170000000  0.4901990000000  0.5660850000000 1.0
C      1  0.5765170000000  0.5150750000000  0.4405400000000 1.0
C      1  0.4980170000000  0.5293070000000  0.4250380000000 1.0
C      1  0.4777070000000  0.4936290000000  0.5956650000000 1.0
C      1  0.4888670000000  0.4640630000000  0.5100900000000 1.0
C      1  0.4307200000000  0.5058590000000  0.5396120000000 1.0
C      1  0.5642400000000  0.4667060000000  0.5524940000000 1.0
C      1  0.4946570000000  0.4255690000000  0.5140280000000 1.0
C      1  0.4623190000000  0.5233830000000  0.4616370000000 1.0
C      1  0.5482600000000  0.5825210000000  0.5179930000000 1.0
C      1  0.4863450000000  0.4486330000000  0.5634130000000 1.0
C      1  0.5316690000000  0.4908430000000  0.5193410000000 1.0
C      1  0.4882870000000  0.4639080000000  0.4157920000000 1.0
C      1  0.4628870000000  0.4667630000000  0.5561810000000 1.0
C      1  0.5036700000000  0.4781510000000  0.4598850000000 1.0
C      1  0.5405460000000  0.4491800000000  0.5539910000000 1.0
C      1  0.4938750000000  0.5006920000000  0.5454560000000 1.0
C      1  0.4088710000000  0.4567580000000  0.4621260000000 1.0
C      1  0.4462670000000  0.4344690000000  0.5227240000000 1.0
C      1  0.5431080000000  0.5530920000000  0.4372160000000 1.0
C      1  0.4153660000000  0.4529640000000  0.4892380000000 1.0
C      1  0.5007180000000  0.5739020000000  0.4484980000000 1.0
C      1  0.5319730000000  0.4716570000000  0.4731600000000 1.0
C      1  0.5174430000000  0.5061970000000  0.4485710000000 1.0
C      1  0.4742930000000  0.4812000000000  0.5316350000000 1.0
C      1  0.5824180000000  0.4949380000000  0.5142920000000 1.0
C      1  0.4840910000000  0.4803360000000  0.4837100000000 1.0
C      1  0.5136380000000  0.5495850000000  0.4392920000000 1.0
C      1  0.5306200000000  0.4485580000000  0.4914510000000 1.0
C      1  0.5279240000000  0.5210650000000  0.4739600000000 1.0
C      1  0.4240600000000  0.5006590000000  0.4634600000000 1.0
C      1  0.4525460000000  0.4242670000000  0.4703550000000 1.0
C      1  0.4699110000000  0.4177750000000  0.5293180000000 1.0
C      1  0.5633200000000  0.4907490000000  0.5673640000000 1.0
C      1  0.5552710000000  0.4629390000000  0.4560830000000 1.0
C      1  0.4374450000000  0.5419030000000  0.4566930000000 1.0
C      1  0.4683670000000  0.5270500000000  0.5192200000000 1.0
C      1  0.4593040000000  0.5642040000000  0.5239430000000 1.0
C      1  0.5163160000000  0.5217020000000  0.6022410000000 1.0
C      1  0.4494200000000  0.5127110000000  0.5630220000000 1.0
C      1  0.5085010000000  0.4074590000000  0.5559500000000 1.0
C      1  0.5063710000000  0.4414180000000  0.4495230000000 1.0
C      1  0.5103110000000  0.5103960000000  0.5239200000000 1.0
C      1  0.5150670000000  0.4689090000000  0.4090940000000 1.0
C      1  0.5857350000000  0.5465430000000  0.5170400000000 1.0
C      1  0.5139500000000  0.4608500000000  0.5617030000000 1.0
C      1  0.4311960000000  0.5496550000000  0.4854350000000 1.0
C      1  0.4144270000000  0.5285900000000  0.5304360000000 1.0
C      1  0.4163580000000  0.4774120000000  0.5049930000000 1.0
C      1  0.5383750000000  0.5334960000000  0.5597420000000 1.0
C      1  0.4244400000000  0.4763570000000  0.4494030000000 1.0
C      1  0.4485560000000  0.5633790000000  0.4421750000000 1.0
C      1  0.4828710000000  0.4201740000000  0.5566180000000 1.0
C      1  0.5048680000000  0.4982150000000  0.5931130000000 1.0
C      1  0.4956590000000  0.4125030000000  0.4879280000000 1.0
C      1  0.4577970000000  0.4975260000000  0.4824900000000 1.0
C      1  0.5745870000000  0.4685920000000  0.5250780000000 1.0
C      1  0.5553600000000  0.5619670000000  0.4629920000000 1.0
C      1  0.5808190000000  0.5200630000000  0.5281310000000 1.0
C      1  0.4948760000000  0.5823110000000  0.5046980000000 1.0
C      1  0.5189900000000  0.5498750000000  0.5420270000000 1.0
C      1  0.5402430000000  0.5034180000000  0.5551790000000 1.0
C      1  0.5189070000000  0.4617960000000  0.5177900000000 1.0
C      1  0.4145500000000  0.5024010000000  0.4899940000000 1.0
C      1  0.4572740000000  0.5613340000000  0.4947750000000 1.0
C      1  0.5777560000000  0.5174910000000  0.4690720000000 1.0
C      1  0.4759570000000  0.5134750000000  0.4360500000000 1.0
C      1  0.4917450000000  0.5496170000000  0.5560890000000 1.0
C      1  0.4775300000000  0.5481330000000  0.4743610000000 1.0
C      1  0.5670930000000  0.4488990000000  0.5036270000000 1.0
C      1  0.5761460000000  0.4632010000000  0.4771930000000 1.0
C      1  0.5407120000000  0.4953050000000  0.4899170000000 1.0
C      1  0.5411410000000  0.4756420000000  0.4159200000000 1.0
C      1  0.4380110000000  0.4544920000000  0.5437550000000 1.0
C      1  0.4568850000000  0.4398250000000  0.4446160000000 1.0
C      1  0.5744790000000  0.5721600000000  0.5249640000000 1.0
C      1  0.4840390000000  0.4379450000000  0.4310980000000 1.0
C      1  0.5557950000000  0.5363240000000  0.4775290000000 1.0
C      1  0.5155950000000  0.5915330000000  0.4668410000000 1.0
C      1  0.5578110000000  0.4571870000000  0.4283490000000 1.0
C      1  0.5159740000000  0.5595960000000  0.5039700000000 1.0
C      1  0.4721170000000  0.4050050000000  0.4749730000000 1.0
C      1  0.4376780000000  0.4354560000000  0.4941350000000 1.0
C      1  0.4574100000000  0.4883860000000  0.5771620000000 1.0
C      1  0.4751660000000  0.5246580000000  0.5502250000000 1.0
C      1  0.5425230000000  0.4987540000000  0.4335080000000 1.0
C      1  0.5716890000000  0.4931740000000  0.4866200000000 1.0
C      1  0.4720310000000  0.5767720000000  0.4487860000000 1.0
C      1  0.4526830000000  0.5011480000000  0.5156940000000 1.0
C      1  0.5044200000000  0.5377740000000  0.4870110000000 1.0
C      1  0.4717080000000  0.4843520000000  0.4298920000000 1.0
END
