TITL C-3578196-9646-182 1.02983014848235e-06 125000 -1154.04507116035 0 0 182 (C1) n - 1
REM
REM in /home/bkarasulu/work/CARBON/AIRSS/Generating-Clusters/EDIP-Nigel-Params/with-SteepDescent/Higher-Symm/SD-CG/HFTN-CG
REM
REM
REM
REM
REM
REM ./C.cell (12c818d87b63d06a65506943cc24bca4)
REM
REM compiler GCC version 9.2.1 20190827 (Red Hat 9.2.1-1)
REM options -cpp -mtune=generic -march=x86-64 -g -O0 -fpre-include=/usr/include/finclude/math-vector-fortran.h
REM seed 2094653788 697611607 -1346390399 -1099248849 1869497449 1993306024 -1092241577 -592234083 -155143593 -1806008205 -537507408 838212043 -384811128 1057967972 -1582912638 -95922327 55978485 -1980937372 928473974 388437046 973493471 573137192 1197342076 -108653211 -1821516324 -1000877153 35558684 1699266977 288858137 -554693611 1132762336 -1170401033 -2111477889
REM
CELL 1.54180   50.00000   50.00000   50.00000   90.00000   90.00000   90.00000
LATT -1
SFAC C  
C      1  0.4504580000000  0.5838100000000  0.5172850000000 1.0
C      1  0.5012050000000  0.5141110000000  0.6066180000000 1.0
C      1  0.4671910000000  0.4506790000000  0.5689680000000 1.0
C      1  0.5186110000000  0.5956970000000  0.5641860000000 1.0
C      1  0.5891790000000  0.4961480000000  0.5610320000000 1.0
C      1  0.4087720000000  0.5599740000000  0.4611870000000 1.0
C      1  0.5331180000000  0.4176660000000  0.4247300000000 1.0
C      1  0.5162580000000  0.5245650000000  0.4868400000000 1.0
C      1  0.4889090000000  0.5017570000000  0.4909060000000 1.0
C      1  0.4470880000000  0.4939600000000  0.4690940000000 1.0
C      1  0.5237400000000  0.5673960000000  0.5723050000000 1.0
C      1  0.5242310000000  0.5984760000000  0.4811190000000 1.0
C      1  0.4698310000000  0.4770100000000  0.6067780000000 1.0
C      1  0.5784290000000  0.4696140000000  0.5625940000000 1.0
C      1  0.5549680000000  0.5004950000000  0.5425660000000 1.0
C      1  0.4791430000000  0.6062270000000  0.4676900000000 1.0
C      1  0.5017620000000  0.5574280000000  0.5964040000000 1.0
C      1  0.4085300000000  0.5592290000000  0.5167820000000 1.0
C      1  0.5460070000000  0.5865870000000  0.4957200000000 1.0
C      1  0.5858720000000  0.5018240000000  0.4889460000000 1.0
C      1  0.6002890000000  0.4343130000000  0.4937110000000 1.0
C      1  0.4699030000000  0.4781270000000  0.4832450000000 1.0
C      1  0.4705570000000  0.5561570000000  0.5941910000000 1.0
C      1  0.4537240000000  0.5916470000000  0.4646400000000 1.0
C      1  0.5330720000000  0.4025920000000  0.5412350000000 1.0
C      1  0.4685450000000  0.5184490000000  0.5707150000000 1.0
C      1  0.4938130000000  0.6036390000000  0.5736490000000 1.0
C      1  0.6031510000000  0.5131580000000  0.4645250000000 1.0
C      1  0.4382810000000  0.5869600000000  0.4896260000000 1.0
C      1  0.5517030000000  0.4662760000000  0.5772080000000 1.0
C      1  0.4704730000000  0.4881940000000  0.5364270000000 1.0
C      1  0.4611010000000  0.5366040000000  0.3948610000000 1.0
C      1  0.4592080000000  0.4052400000000  0.4879130000000 1.0
C      1  0.6053970000000  0.4640520000000  0.5163520000000 1.0
C      1  0.4289560000000  0.5052170000000  0.4189560000000 1.0
C      1  0.4943430000000  0.5061370000000  0.5745590000000 1.0
C      1  0.6035950000000  0.4947740000000  0.5115440000000 1.0
C      1  0.4033010000000  0.5315300000000  0.4547200000000 1.0
C      1  0.5544570000000  0.5231770000000  0.4592780000000 1.0
C      1  0.4786000000000  0.5095540000000  0.5174610000000 1.0
C      1  0.4983620000000  0.4696390000000  0.3845900000000 1.0
C      1  0.4729710000000  0.5485000000000  0.4698530000000 1.0
C      1  0.5193170000000  0.5978770000000  0.5351070000000 1.0
C      1  0.5495410000000  0.5224640000000  0.3910330000000 1.0
C      1  0.4315870000000  0.4853670000000  0.5745760000000 1.0
C      1  0.5689170000000  0.5747150000000  0.4542080000000 1.0
C      1  0.5415960000000  0.5737790000000  0.4426840000000 1.0
C      1  0.5406120000000  0.3974270000000  0.4670350000000 1.0
C      1  0.5863910000000  0.5247810000000  0.5621600000000 1.0
C      1  0.4956950000000  0.5971620000000  0.4435580000000 1.0
C      1  0.5732100000000  0.5323680000000  0.4352220000000 1.0
C      1  0.5737390000000  0.4250500000000  0.4861660000000 1.0
C      1  0.4822860000000  0.3933980000000  0.4727360000000 1.0
C      1  0.5420550000000  0.5126110000000  0.5678440000000 1.0
C      1  0.5129290000000  0.5492330000000  0.5498280000000 1.0
C      1  0.5235150000000  0.5939410000000  0.4528110000000 1.0
C      1  0.4984500000000  0.4702690000000  0.5998160000000 1.0
C      1  0.4827470000000  0.5222870000000  0.4586020000000 1.0
C      1  0.5888390000000  0.5549010000000  0.4459180000000 1.0
C      1  0.4577920000000  0.5307610000000  0.5158580000000 1.0
C      1  0.5983880000000  0.5060450000000  0.4353690000000 1.0
C      1  0.4881700000000  0.4749100000000  0.5568420000000 1.0
C      1  0.5036240000000  0.5510670000000  0.4201620000000 1.0
C      1  0.4927210000000  0.4103550000000  0.5637650000000 1.0
C      1  0.4564050000000  0.4393290000000  0.4602240000000 1.0
C      1  0.5351860000000  0.4346040000000  0.4027430000000 1.0
C      1  0.5295220000000  0.3887260000000  0.4924190000000 1.0
C      1  0.5246540000000  0.4439410000000  0.4963800000000 1.0
C      1  0.4205770000000  0.4473210000000  0.5492560000000 1.0
C      1  0.4312960000000  0.4056910000000  0.4740400000000 1.0
C      1  0.4280120000000  0.5264550000000  0.4397050000000 1.0
C      1  0.4512220000000  0.5018750000000  0.5549220000000 1.0
C      1  0.4502980000000  0.4652530000000  0.5884210000000 1.0
C      1  0.5101850000000  0.4488470000000  0.4003020000000 1.0
C      1  0.4899790000000  0.3886640000000  0.5215630000000 1.0
C      1  0.4881620000000  0.5630620000000  0.4937360000000 1.0
C      1  0.5062020000000  0.4760630000000  0.4274680000000 1.0
C      1  0.4949820000000  0.6074730000000  0.5186610000000 1.0
C      1  0.5456810000000  0.3998940000000  0.5146880000000 1.0
C      1  0.5181380000000  0.4897520000000  0.6078060000000 1.0
C      1  0.5147770000000  0.5210910000000  0.5596650000000 1.0
C      1  0.4037300000000  0.5149140000000  0.4786800000000 1.0
C      1  0.5259180000000  0.5098200000000  0.3981650000000 1.0
C      1  0.4315690000000  0.5657530000000  0.5592170000000 1.0
C      1  0.5681280000000  0.4042800000000  0.4680250000000 1.0
C      1  0.3898110000000  0.4805330000000  0.5341620000000 1.0
C      1  0.5204210000000  0.5038710000000  0.4270890000000 1.0
C      1  0.4339230000000  0.4503130000000  0.4753540000000 1.0
C      1  0.5310030000000  0.5056820000000  0.5034980000000 1.0
C      1  0.4198890000000  0.5388810000000  0.5599200000000 1.0
C      1  0.4798320000000  0.4145380000000  0.4253880000000 1.0
C      1  0.5129050000000  0.5485420000000  0.5015680000000 1.0
C      1  0.5586660000000  0.4433710000000  0.5325440000000 1.0
C      1  0.4647790000000  0.5028660000000  0.4450720000000 1.0
C      1  0.5957820000000  0.4764270000000  0.4296540000000 1.0
C      1  0.5689170000000  0.4640400000000  0.4663170000000 1.0
C      1  0.5867880000000  0.4524420000000  0.5391320000000 1.0
C      1  0.5372180000000  0.4765530000000  0.5016980000000 1.0
C      1  0.5855870000000  0.5533580000000  0.4944830000000 1.0
C      1  0.5422030000000  0.4913280000000  0.5895350000000 1.0
C      1  0.4565520000000  0.5284930000000  0.5948260000000 1.0
C      1  0.4713220000000  0.4347860000000  0.5100780000000 1.0
C      1  0.4713530000000  0.4776350000000  0.3935730000000 1.0
C      1  0.5491890000000  0.5220390000000  0.5190360000000 1.0
C      1  0.5007330000000  0.3905770000000  0.4948310000000 1.0
C      1  0.5294790000000  0.4467200000000  0.5685850000000 1.0
C      1  0.6005280000000  0.5368900000000  0.5397430000000 1.0
C      1  0.4611380000000  0.3917850000000  0.5239740000000 1.0
C      1  0.4358690000000  0.5550770000000  0.4365330000000 1.0
C      1  0.4438680000000  0.4147380000000  0.4483590000000 1.0
C      1  0.4178300000000  0.5660180000000  0.4883750000000 1.0
C      1  0.5044430000000  0.4092410000000  0.5377840000000 1.0
C      1  0.5279270000000  0.5360240000000  0.4617120000000 1.0
C      1  0.4901160000000  0.5358750000000  0.3974790000000 1.0
C      1  0.5679700000000  0.4687360000000  0.4190420000000 1.0
C      1  0.5075960000000  0.5283780000000  0.4413980000000 1.0
C      1  0.4196760000000  0.5031570000000  0.5962030000000 1.0
C      1  0.6138580000000  0.4549250000000  0.4797600000000 1.0
C      1  0.6036070000000  0.5432900000000  0.4693380000000 1.0
C      1  0.5212350000000  0.4139000000000  0.4507770000000 1.0
C      1  0.5244150000000  0.4601950000000  0.4453610000000 1.0
C      1  0.5448830000000  0.4994890000000  0.4435200000000 1.0
C      1  0.5341290000000  0.5605110000000  0.4177140000000 1.0
C      1  0.4313730000000  0.4991960000000  0.6218130000000 1.0
C      1  0.5595120000000  0.4485740000000  0.4014470000000 1.0
C      1  0.4460600000000  0.4350870000000  0.5529620000000 1.0
C      1  0.4093180000000  0.4718810000000  0.5576600000000 1.0
C      1  0.5538820000000  0.5626660000000  0.5677310000000 1.0
C      1  0.4306180000000  0.4762040000000  0.4281130000000 1.0
C      1  0.5082020000000  0.4442670000000  0.5908770000000 1.0
C      1  0.4332900000000  0.5142750000000  0.4884080000000 1.0
C      1  0.5316050000000  0.5489440000000  0.5252880000000 1.0
C      1  0.4804710000000  0.4574420000000  0.4623140000000 1.0
C      1  0.4054630000000  0.4549170000000  0.5086920000000 1.0
C      1  0.3956530000000  0.5366130000000  0.5332500000000 1.0
C      1  0.4537580000000  0.4197690000000  0.5289560000000 1.0
C      1  0.4369900000000  0.5205990000000  0.5374530000000 1.0
C      1  0.5131750000000  0.5385130000000  0.6135070000000 1.0
C      1  0.4561750000000  0.5742040000000  0.5740480000000 1.0
C      1  0.4840760000000  0.5730620000000  0.4304820000000 1.0
C      1  0.4819440000000  0.5055380000000  0.4049780000000 1.0
C      1  0.4678480000000  0.6044930000000  0.5317720000000 1.0
C      1  0.5464820000000  0.4254370000000  0.5545560000000 1.0
C      1  0.4567730000000  0.4611310000000  0.5048650000000 1.0
C      1  0.4857360000000  0.5617190000000  0.5433420000000 1.0
C      1  0.5519420000000  0.4716000000000  0.4439750000000 1.0
C      1  0.5023040000000  0.4373440000000  0.5217490000000 1.0
C      1  0.5869510000000  0.5581700000000  0.5252100000000 1.0
C      1  0.4265680000000  0.5302130000000  0.5882840000000 1.0
C      1  0.4590530000000  0.4319410000000  0.4170090000000 1.0
C      1  0.5130160000000  0.4416170000000  0.4656670000000 1.0
C      1  0.5614430000000  0.5351150000000  0.5745260000000 1.0
C      1  0.4148330000000  0.4285230000000  0.4826310000000 1.0
C      1  0.3952730000000  0.5088310000000  0.5216100000000 1.0
C      1  0.4247440000000  0.4752730000000  0.4596850000000 1.0
C      1  0.4850790000000  0.4300810000000  0.5813800000000 1.0
C      1  0.5149050000000  0.4916810000000  0.3801980000000 1.0
C      1  0.5552540000000  0.5406480000000  0.4113060000000 1.0
C      1  0.4757270000000  0.5879400000000  0.5566020000000 1.0
C      1  0.4699070000000  0.5592250000000  0.5176940000000 1.0
C      1  0.5685800000000  0.5267670000000  0.4931310000000 1.0
C      1  0.4942190000000  0.4026120000000  0.4470230000000 1.0
C      1  0.5620730000000  0.5696140000000  0.5388910000000 1.0
C      1  0.4958840000000  0.5950790000000  0.4907730000000 1.0
C      1  0.5415270000000  0.4716470000000  0.5316430000000 1.0
C      1  0.5131330000000  0.4599690000000  0.5441400000000 1.0
C      1  0.4303500000000  0.4702720000000  0.5192330000000 1.0
C      1  0.4240690000000  0.5020440000000  0.5161970000000 1.0
C      1  0.4591500000000  0.5041750000000  0.6164790000000 1.0
C      1  0.5967490000000  0.4695810000000  0.4604090000000 1.0
C      1  0.5452800000000  0.5897460000000  0.5239610000000 1.0
C      1  0.6141350000000  0.5167340000000  0.5255730000000 1.0
C      1  0.4779010000000  0.4753180000000  0.4380090000000 1.0
C      1  0.4452430000000  0.5128540000000  0.3963020000000 1.0
C      1  0.4580510000000  0.4627760000000  0.4176570000000 1.0
C      1  0.3874050000000  0.4734650000000  0.4961100000000 1.0
C      1  0.5641220000000  0.4795400000000  0.4889250000000 1.0
C      1  0.4609070000000  0.5664390000000  0.4493590000000 1.0
C      1  0.3980180000000  0.4864830000000  0.4720120000000 1.0
C      1  0.4264940000000  0.5762090000000  0.5330570000000 1.0
C      1  0.5699730000000  0.5766260000000  0.4830750000000 1.0
C      1  0.5520460000000  0.4279270000000  0.5061890000000 1.0
END
