TITL C-3578198-8939-747 2.59998172477026e-06 125000 -669.282908372393 0 0 108 (C1) n - 1
REM
REM in /home/bkarasulu/work/CARBON/AIRSS/Generating-Clusters/EDIP-Nigel-Params/with-SteepDescent/Higher-Symm/SD-CG/HFTN-CG
REM
REM
REM
REM
REM
REM ./C.cell (12c818d87b63d06a65506943cc24bca4)
REM
REM compiler GCC version 9.2.1 20190827 (Red Hat 9.2.1-1)
REM options -cpp -mtune=generic -march=x86-64 -g -O0 -fpre-include=/usr/include/finclude/math-vector-fortran.h
REM seed -1404553931 1596683393 113716238 984651381 421292011 840597698 -815787195 1224209297 -977499627 -219745829 1272201557 -1239069223 1746215914 1509913858 -1628601783 -1641406775 346872946 -548452423 -799553125 998319439 2024523662 52580423 -156681962 -327388629 275805891 840158189 -384191871 -199312416 906665301 -1040163155 1736797250 761938267 -2093234160
REM
CELL 1.54180   50.00000   50.00000   50.00000   90.00000   90.00000   90.00000
LATT -1
SFAC C  
C      1  0.5260470000000  0.4086130000000  0.4763110000000 1.0
C      1  0.4743070000000  0.5913450000000  0.4768130000000 1.0
C      1  0.4971510000000  0.5721460000000  0.4832770000000 1.0
C      1  0.5027840000000  0.4274540000000  0.4815740000000 1.0
C      1  0.5403110000000  0.4554290000000  0.5429730000000 1.0
C      1  0.4597560000000  0.5445270000000  0.5431520000000 1.0
C      1  0.5356550000000  0.5442400000000  0.5609030000000 1.0
C      1  0.4643670000000  0.4560250000000  0.5602570000000 1.0
C      1  0.5276010000000  0.4384680000000  0.4429350000000 1.0
C      1  0.4729240000000  0.5591720000000  0.4443840000000 1.0
C      1  0.5401850000000  0.4518650000000  0.5124700000000 1.0
C      1  0.4601440000000  0.5479050000000  0.5126560000000 1.0
C      1  0.4170890000000  0.5047870000000  0.5401740000000 1.0
C      1  0.5832570000000  0.4958640000000  0.5411430000000 1.0
C      1  0.5317340000000  0.4651210000000  0.4298740000000 1.0
C      1  0.4660690000000  0.5362860000000  0.4272840000000 1.0
C      1  0.4419940000000  0.5043240000000  0.5033770000000 1.0
C      1  0.5582600000000  0.4949080000000  0.5010300000000 1.0
C      1  0.4734530000000  0.4180550000000  0.4906420000000 1.0
C      1  0.5262280000000  0.5825220000000  0.4917590000000 1.0
C      1  0.4446340000000  0.4507110000000  0.4650090000000 1.0
C      1  0.5542910000000  0.5501330000000  0.4656690000000 1.0
C      1  0.4103970000000  0.5464620000000  0.5142090000000 1.0
C      1  0.5900830000000  0.4537470000000  0.5149420000000 1.0
C      1  0.4982020000000  0.5154180000000  0.5472650000000 1.0
C      1  0.5024820000000  0.4847080000000  0.5470470000000 1.0
C      1  0.5574230000000  0.5447570000000  0.4950860000000 1.0
C      1  0.4418220000000  0.4554670000000  0.4944300000000 1.0
C      1  0.4249920000000  0.5222630000000  0.4518340000000 1.0
C      1  0.5758930000000  0.4776790000000  0.4526640000000 1.0
C      1  0.5020940000000  0.4086070000000  0.5156630000000 1.0
C      1  0.4975960000000  0.5919730000000  0.5167490000000 1.0
C      1  0.4316380000000  0.5521810000000  0.5518780000000 1.0
C      1  0.5681860000000  0.4478680000000  0.5521750000000 1.0
C      1  0.5030610000000  0.5296700000000  0.4220040000000 1.0
C      1  0.4945980000000  0.4716000000000  0.4212460000000 1.0
C      1  0.4436530000000  0.4914530000000  0.4247400000000 1.0
C      1  0.5557890000000  0.5095250000000  0.4292370000000 1.0
C      1  0.4576640000000  0.4362470000000  0.5097860000000 1.0
C      1  0.5424540000000  0.5644650000000  0.5106490000000 1.0
C      1  0.4612680000000  0.5033740000000  0.5757730000000 1.0
C      1  0.5388910000000  0.4965650000000  0.5757580000000 1.0
C      1  0.4815980000000  0.4741660000000  0.4705070000000 1.0
C      1  0.5184730000000  0.5243990000000  0.4705600000000 1.0
C      1  0.5194980000000  0.4376920000000  0.5552250000000 1.0
C      1  0.4803910000000  0.5622390000000  0.5556800000000 1.0
C      1  0.5338980000000  0.4741770000000  0.4677160000000 1.0
C      1  0.4676560000000  0.5232040000000  0.4690900000000 1.0
C      1  0.5013700000000  0.5705450000000  0.5367650000000 1.0
C      1  0.4984840000000  0.4295140000000  0.5361930000000 1.0
C      1  0.5201770000000  0.5714810000000  0.4418110000000 1.0
C      1  0.4792310000000  0.4297250000000  0.4411160000000 1.0
C      1  0.4105620000000  0.5322410000000  0.5410950000000 1.0
C      1  0.5893490000000  0.4680700000000  0.5418340000000 1.0
C      1  0.5173110000000  0.5235930000000  0.5233830000000 1.0
C      1  0.4838000000000  0.4763860000000  0.5232180000000 1.0
C      1  0.4974510000000  0.4855650000000  0.4468320000000 1.0
C      1  0.4985070000000  0.5147090000000  0.4480420000000 1.0
C      1  0.5326020000000  0.4840860000000  0.5482520000000 1.0
C      1  0.4680810000000  0.5160540000000  0.5486030000000 1.0
C      1  0.5515280000000  0.4236450000000  0.5095340000000 1.0
C      1  0.4485320000000  0.5759610000000  0.5095170000000 1.0
C      1  0.5609250000000  0.4583200000000  0.4703710000000 1.0
C      1  0.4413470000000  0.5406300000000  0.4692540000000 1.0
C      1  0.4747270000000  0.4476310000000  0.5321750000000 1.0
C      1  0.5254720000000  0.5527140000000  0.5327880000000 1.0
C      1  0.4803520000000  0.5331480000000  0.4940360000000 1.0
C      1  0.5202290000000  0.4658200000000  0.4929590000000 1.0
C      1  0.5482410000000  0.5344820000000  0.4399520000000 1.0
C      1  0.4507410000000  0.4679500000000  0.4397980000000 1.0
C      1  0.4237720000000  0.5723780000000  0.5277120000000 1.0
C      1  0.5764200000000  0.4278600000000  0.5281600000000 1.0
C      1  0.4868310000000  0.4914480000000  0.5888590000000 1.0
C      1  0.5132450000000  0.5082970000000  0.5889550000000 1.0
C      1  0.4461330000000  0.4795640000000  0.5612630000000 1.0
C      1  0.5537800000000  0.5206750000000  0.5618280000000 1.0
C      1  0.4689340000000  0.5978750000000  0.5058200000000 1.0
C      1  0.5307060000000  0.4022850000000  0.5052780000000 1.0
C      1  0.4595040000000  0.4951160000000  0.5278570000000 1.0
C      1  0.5421300000000  0.5051810000000  0.5273950000000 1.0
C      1  0.5270770000000  0.5478070000000  0.4243550000000 1.0
C      1  0.4714610000000  0.4533430000000  0.4244680000000 1.0
C      1  0.4353900000000  0.5344110000000  0.5003690000000 1.0
C      1  0.5651160000000  0.4650820000000  0.5005370000000 1.0
C      1  0.5040020000000  0.5162620000000  0.4966420000000 1.0
C      1  0.4969950000000  0.4830650000000  0.4962760000000 1.0
C      1  0.5095940000000  0.4482080000000  0.5792940000000 1.0
C      1  0.4902620000000  0.5515820000000  0.5796910000000 1.0
C      1  0.5810230000000  0.5233800000000  0.5356310000000 1.0
C      1  0.4196640000000  0.4777420000000  0.5340520000000 1.0
C      1  0.5006220000000  0.4432530000000  0.4564780000000 1.0
C      1  0.5001010000000  0.5568850000000  0.4581960000000 1.0
C      1  0.5398890000000  0.5759710000000  0.4639940000000 1.0
C      1  0.4596000000000  0.4251020000000  0.4631100000000 1.0
C      1  0.5816070000000  0.5044600000000  0.4643460000000 1.0
C      1  0.4248590000000  0.4943400000000  0.4641640000000 1.0
C      1  0.4095490000000  0.4898210000000  0.4889130000000 1.0
C      1  0.5855640000000  0.5065610000000  0.4933530000000 1.0
C      1  0.4416040000000  0.5195130000000  0.4276580000000 1.0
C      1  0.5578990000000  0.4815610000000  0.4298100000000 1.0
C      1  0.4178550000000  0.4680980000000  0.5062870000000 1.0
C      1  0.5814280000000  0.5321210000000  0.5073600000000 1.0
C      1  0.4908510000000  0.4683240000000  0.5704420000000 1.0
C      1  0.5093040000000  0.5317390000000  0.5708780000000 1.0
C      1  0.5459450000000  0.4247170000000  0.4610720000000 1.0
C      1  0.4547770000000  0.5751210000000  0.4610110000000 1.0
C      1  0.5440410000000  0.5032460000000  0.4708150000000 1.0
C      1  0.4555080000000  0.4955300000000  0.4745640000000 1.0
END
