TITL C-3577083-591-536 -3.21545966283516e-07 125000 -277.816335852476 0 0 46 (Ci) n - 1
REM
REM in /home/bkarasulu/work/CARBON/AIRSS/Generating-Clusters/EDIP-Nigel-Params/with-SteepDescent/Higher-Symm/SD-CG/HFTN-CG
REM
REM
REM
REM
REM
REM ./C.cell (12c818d87b63d06a65506943cc24bca4)
REM
REM compiler GCC version 9.2.1 20190827 (Red Hat 9.2.1-1)
REM options -cpp -mtune=generic -march=x86-64 -g -O0 -fpre-include=/usr/include/finclude/math-vector-fortran.h
REM seed 1764470843 -1364317433 -71985562 1296696557 825596715 -2001148908 -1665009126 252526403 -1336968546 1431657427 -479809386 2028154486 -122196016 -989541739 -830265882 1626274301 337646637 1944336870 376766555 -803422726 -1710711597 1959782489 1837089682 2000587906 -1131243040 -1229549917 -406434464 -774793780 2006664479 -1374421004 -968680861 73900186 186725506
REM
CELL 1.54180   50.00000   50.00000   50.00000   90.00000   90.00000   90.00000
LATT -1
SFAC C  
C      1  0.4965290000000  0.5627760000000  0.4562850000000 1.0
C      1  0.5034710000000  0.4372240000000  0.5437150000000 1.0
C      1  0.5178630000000  0.4516720000000  0.4901290000000 1.0
C      1  0.4821370000000  0.5483280000000  0.5098710000000 1.0
C      1  0.5305180000000  0.4768850000000  0.5022770000000 1.0
C      1  0.4694820000000  0.5231150000000  0.4977230000000 1.0
C      1  0.4799750000000  0.4250790000000  0.5047030000000 1.0
C      1  0.5200250000000  0.5749210000000  0.4952970000000 1.0
C      1  0.5069450000000  0.5056710000000  0.5701380000000 1.0
C      1  0.4930550000000  0.4943290000000  0.4298620000000 1.0
C      1  0.5549630000000  0.4933600000000  0.5441900000000 1.0
C      1  0.4450370000000  0.5066400000000  0.4558100000000 1.0
C      1  0.4651480000000  0.4611550000000  0.5314410000000 1.0
C      1  0.5348520000000  0.5388450000000  0.4685590000000 1.0
C      1  0.4883610000000  0.4484760000000  0.4907250000000 1.0
C      1  0.5116390000000  0.5515240000000  0.5092750000000 1.0
C      1  0.4721650000000  0.4755190000000  0.5546220000000 1.0
C      1  0.5278350000000  0.5244810000000  0.4453780000000 1.0
C      1  0.4850360000000  0.4794480000000  0.4525850000000 1.0
C      1  0.5149640000000  0.5205520000000  0.5474150000000 1.0
C      1  0.4979720000000  0.4787010000000  0.5656830000000 1.0
C      1  0.5020280000000  0.5212990000000  0.4343170000000 1.0
C      1  0.4783160000000  0.4345170000000  0.5314160000000 1.0
C      1  0.5216840000000  0.5654830000000  0.4685840000000 1.0
C      1  0.5674330000000  0.5002150000000  0.5086200000000 1.0
C      1  0.4325670000000  0.4997850000000  0.4913800000000 1.0
C      1  0.4724070000000  0.4716550000000  0.5033070000000 1.0
C      1  0.5275930000000  0.5283450000000  0.4966930000000 1.0
C      1  0.4861900000000  0.4988030000000  0.5029550000000 1.0
C      1  0.5138100000000  0.5011970000000  0.4970450000000 1.0
C      1  0.4943060000000  0.5394180000000  0.5548820000000 1.0
C      1  0.5056940000000  0.4605820000000  0.4451180000000 1.0
C      1  0.4559710000000  0.4793280000000  0.4583620000000 1.0
C      1  0.5440290000000  0.5206720000000  0.5416380000000 1.0
C      1  0.5281250000000  0.4549630000000  0.4629750000000 1.0
C      1  0.4718750000000  0.5450370000000  0.5370250000000 1.0
C      1  0.4824250000000  0.5398990000000  0.4475100000000 1.0
C      1  0.5175750000000  0.4601010000000  0.5524900000000 1.0
C      1  0.5525310000000  0.5249900000000  0.5133690000000 1.0
C      1  0.4474690000000  0.4750100000000  0.4866310000000 1.0
C      1  0.5494000000000  0.4737970000000  0.4654310000000 1.0
C      1  0.4506000000000  0.5262030000000  0.5345690000000 1.0
C      1  0.5377690000000  0.4721990000000  0.5331870000000 1.0
C      1  0.4622310000000  0.5278010000000  0.4668130000000 1.0
C      1  0.4341840000000  0.5146460000000  0.5154720000000 1.0
C      1  0.5658160000000  0.4853540000000  0.4845280000000 1.0
END
