TITL C-3578204-4308-651 0.0010694044339076 125000 -59.3211749341625 0 0 12 (C2v) n - 1
REM
REM in /home/bkarasulu/work/CARBON/AIRSS/Generating-Clusters/EDIP-Nigel-Params/with-SteepDescent/Higher-Symm/SD-CG/HFTN-CG
REM
REM
REM
REM
REM
REM ./C.cell (12c818d87b63d06a65506943cc24bca4)
REM
REM compiler GCC version 9.2.1 20190827 (Red Hat 9.2.1-1)
REM options -cpp -mtune=generic -march=x86-64 -g -O0 -fpre-include=/usr/include/finclude/math-vector-fortran.h
REM seed 43852801 -669658189 -586438152 -670843020 1240339903 18455537 -1013975122 -1033764277 1616049704 -2060998865 746023083 -1505276251 -1129645674 401610823 -26331917 -480541146 1201769577 1374884766 1575855732 18392957 -317400862 1934142867 -696520429 2087655462 -1187485852 -1510631653 -571888374 1859498195 330654252 1812906178 706900581 1977568994 2023743158
REM
CELL 1.54180   50.00000   50.00000   50.00000   90.00000   90.00000   90.00000
LATT -1
SFAC C  
C      1  0.5000080000000  0.4690920000000  0.5189290000000 1.0
C      1  0.5007000000000  0.4910370000000  0.4508740000000 1.0
C      1  0.4992920000000  0.5396860000000  0.5303110000000 1.0
C      1  0.5000020000000  0.4924280000000  0.5046380000000 1.0
C      1  0.5003570000000  0.4917200000000  0.4772850000000 1.0
C      1  0.4996410000000  0.5164700000000  0.5176990000000 1.0
C      1  0.4986050000000  0.5853360000000  0.5551100000000 1.0
C      1  0.5000210000000  0.4247530000000  0.5460830000000 1.0
C      1  0.5013740000000  0.4896940000000  0.3989400000000 1.0
C      1  0.4989430000000  0.5628690000000  0.5429050000000 1.0
C      1  0.5000150000000  0.4465600000000  0.5327280000000 1.0
C      1  0.5010420000000  0.4903550000000  0.4245000000000 1.0
END
