TITL C-3578198-8939-243 6.0888604608154e-07 125000 -384.94166163345 0 0 65 (C1) n - 1
REM
REM in /home/bkarasulu/work/CARBON/AIRSS/Generating-Clusters/EDIP-Nigel-Params/with-SteepDescent/Higher-Symm/SD-CG/HFTN-CG
REM
REM
REM
REM
REM
REM ./C.cell (12c818d87b63d06a65506943cc24bca4)
REM
REM compiler GCC version 9.2.1 20190827 (Red Hat 9.2.1-1)
REM options -cpp -mtune=generic -march=x86-64 -g -O0 -fpre-include=/usr/include/finclude/math-vector-fortran.h
REM seed 499637865 -849378198 1169198373 682610553 -160244662 -2021974143 -1439777386 1307054518 -532973961 -1812677849 138747092 -86142808 -1956942905 2043142750 -1344448053 442273326 734682040 -1028844011 -564761185 1870103672 258796108 -284833068 184357592 1143502116 786846195 1539227717 2081886053 -346441228 -575517344 1879473231 1870017638 339758098 80084670
REM
CELL 1.54180   50.00000   50.00000   50.00000   90.00000   90.00000   90.00000
LATT -1
SFAC C  
C      1  0.4866510000000  0.4735590000000  0.5886740000000 1.0
C      1  0.5068670000000  0.5361610000000  0.5734210000000 1.0
C      1  0.5074400000000  0.4638750000000  0.5720090000000 1.0
C      1  0.4863130000000  0.5251240000000  0.5895110000000 1.0
C      1  0.4683250000000  0.4845770000000  0.5697520000000 1.0
C      1  0.5301830000000  0.5187650000000  0.5679770000000 1.0
C      1  0.5304470000000  0.4819830000000  0.5671760000000 1.0
C      1  0.4683450000000  0.5144950000000  0.5700870000000 1.0
C      1  0.5144310000000  0.4301730000000  0.4890940000000 1.0
C      1  0.4731800000000  0.5717260000000  0.4932570000000 1.0
C      1  0.4702460000000  0.4309670000000  0.4909250000000 1.0
C      1  0.5211790000000  0.5785530000000  0.4963770000000 1.0
C      1  0.5610080000000  0.4563820000000  0.5025900000000 1.0
C      1  0.4334450000000  0.5398770000000  0.5122090000000 1.0
C      1  0.4268770000000  0.4616840000000  0.5043610000000 1.0
C      1  0.5654260000000  0.5512550000000  0.5078990000000 1.0
C      1  0.5460330000000  0.5702200000000  0.5051140000000 1.0
C      1  0.4463710000000  0.4426830000000  0.4999290000000 1.0
C      1  0.4478230000000  0.5601250000000  0.4985010000000 1.0
C      1  0.5383020000000  0.4421070000000  0.4970400000000 1.0
C      1  0.4919980000000  0.4757020000000  0.4171430000000 1.0
C      1  0.5180040000000  0.5184210000000  0.4156810000000 1.0
C      1  0.5135890000000  0.4588910000000  0.4208440000000 1.0
C      1  0.4797930000000  0.5235520000000  0.4164080000000 1.0
C      1  0.4297580000000  0.4877550000000  0.5163420000000 1.0
C      1  0.5820030000000  0.5164490000000  0.5151880000000 1.0
C      1  0.5816840000000  0.4885080000000  0.5138790000000 1.0
C      1  0.4213860000000  0.5135340000000  0.5057990000000 1.0
C      1  0.4595400000000  0.4799100000000  0.5186290000000 1.0
C      1  0.5582310000000  0.5290010000000  0.5225470000000 1.0
C      1  0.5585250000000  0.4759240000000  0.5214320000000 1.0
C      1  0.4572380000000  0.5222770000000  0.5193360000000 1.0
C      1  0.5081130000000  0.4734320000000  0.4953700000000 1.0
C      1  0.4751880000000  0.5216600000000  0.4954290000000 1.0
C      1  0.4757640000000  0.4747890000000  0.4920880000000 1.0
C      1  0.5041730000000  0.5294030000000  0.4970450000000 1.0
C      1  0.4563860000000  0.5308580000000  0.4285740000000 1.0
C      1  0.5359360000000  0.4598950000000  0.4353970000000 1.0
C      1  0.5382510000000  0.5294460000000  0.4303790000000 1.0
C      1  0.4665440000000  0.4666130000000  0.4231540000000 1.0
C      1  0.4692470000000  0.4690430000000  0.5444290000000 1.0
C      1  0.5470930000000  0.5317420000000  0.5484850000000 1.0
C      1  0.5477310000000  0.4703580000000  0.5470940000000 1.0
C      1  0.4692130000000  0.5309000000000  0.5454190000000 1.0
C      1  0.4482900000000  0.4772990000000  0.4396610000000 1.0
C      1  0.5505510000000  0.5221130000000  0.4529280000000 1.0
C      1  0.5478790000000  0.4755540000000  0.4534710000000 1.0
C      1  0.4386810000000  0.5228420000000  0.4470030000000 1.0
C      1  0.4947550000000  0.5842210000000  0.5132090000000 1.0
C      1  0.4933570000000  0.4201480000000  0.5097490000000 1.0
C      1  0.4962010000000  0.4301270000000  0.5358570000000 1.0
C      1  0.4952540000000  0.5713000000000  0.5386770000000 1.0
C      1  0.5012900000000  0.5580780000000  0.4845840000000 1.0
C      1  0.4923450000000  0.4450150000000  0.4736300000000 1.0
C      1  0.5148080000000  0.4741900000000  0.5261170000000 1.0
C      1  0.5143780000000  0.5283910000000  0.5267960000000 1.0
C      1  0.4966020000000  0.4574620000000  0.5443800000000 1.0
C      1  0.4961190000000  0.5436090000000  0.5459850000000 1.0
C      1  0.4715280000000  0.4998290000000  0.4750720000000 1.0
C      1  0.5171460000000  0.5006610000000  0.4800780000000 1.0
C      1  0.4469460000000  0.4984770000000  0.4576920000000 1.0
C      1  0.5441420000000  0.4993220000000  0.4673090000000 1.0
C      1  0.4966480000000  0.5028810000000  0.4284170000000 1.0
C      1  0.4961140000000  0.5031600000000  0.4586440000000 1.0
C      1  0.5105120000000  0.5010990000000  0.5327610000000 1.0
END
