TITL C-3577080-309-676 -1.08313261349643e-07 125000 -409.082815547679 0 0 67 (C1) n - 1
REM
REM in /home/bkarasulu/work/CARBON/AIRSS/Generating-Clusters/EDIP-Nigel-Params/with-SteepDescent/Higher-Symm/SD-CG/HFTN-CG
REM
REM
REM
REM
REM
REM ./C.cell (12c818d87b63d06a65506943cc24bca4)
REM
REM compiler GCC version 9.2.1 20190827 (Red Hat 9.2.1-1)
REM options -cpp -mtune=generic -march=x86-64 -g -O0 -fpre-include=/usr/include/finclude/math-vector-fortran.h
REM seed 1266917440 -1028335603 -319345547 -1398995970 -1417119121 -1210973701 -694453448 -912243353 -1807204660 -1395662656 -789483576 -1225531614 -1109541345 909592965 -1990698816 839989720 -1527820614 -1946568243 -907204560 -1588792815 -1189329670 771556653 188904392 1494308498 887390678 1721038566 -99115718 -518949862 -1762178863 -2133189556 -695745126 -2092159980 466502395
REM
CELL 1.54180   50.00000   50.00000   50.00000   90.00000   90.00000   90.00000
LATT -1
SFAC C  
C      1  0.4214070000000  0.4629230000000  0.4849200000000 1.0
C      1  0.4239960000000  0.4653090000000  0.5113630000000 1.0
C      1  0.5246370000000  0.5350010000000  0.4445410000000 1.0
C      1  0.5239370000000  0.5347660000000  0.5562070000000 1.0
C      1  0.5125780000000  0.4515840000000  0.4788230000000 1.0
C      1  0.5130230000000  0.4512530000000  0.5226460000000 1.0
C      1  0.5275850000000  0.4279520000000  0.4867640000000 1.0
C      1  0.5280390000000  0.4276000000000  0.5148340000000 1.0
C      1  0.4859020000000  0.4938970000000  0.4856850000000 1.0
C      1  0.4859790000000  0.4936080000000  0.5162460000000 1.0
C      1  0.4424640000000  0.5417190000000  0.5277500000000 1.0
C      1  0.4427480000000  0.5418070000000  0.4745700000000 1.0
C      1  0.5253620000000  0.4884950000000  0.5578040000000 1.0
C      1  0.5251790000000  0.4886160000000  0.4437840000000 1.0
C      1  0.5663820000000  0.5043080000000  0.5453410000000 1.0
C      1  0.5665370000000  0.5038350000000  0.4561360000000 1.0
C      1  0.4978690000000  0.5352970000000  0.5671100000000 1.0
C      1  0.4983940000000  0.5355870000000  0.4340390000000 1.0
C      1  0.4501650000000  0.5222700000000  0.5481610000000 1.0
C      1  0.4503870000000  0.5232670000000  0.4533010000000 1.0
C      1  0.5026650000000  0.5473810000000  0.4862600000000 1.0
C      1  0.4993810000000  0.5440020000000  0.5147030000000 1.0
C      1  0.5485850000000  0.5357360000000  0.4859550000000 1.0
C      1  0.5479160000000  0.5357830000000  0.5147650000000 1.0
C      1  0.5227640000000  0.4434250000000  0.4512580000000 1.0
C      1  0.5233850000000  0.4433130000000  0.5502550000000 1.0
C      1  0.5148150000000  0.4961420000000  0.4764170000000 1.0
C      1  0.5149660000000  0.4958730000000  0.5252560000000 1.0
C      1  0.4862790000000  0.5681430000000  0.5265400000000 1.0
C      1  0.4858540000000  0.5695800000000  0.4743230000000 1.0
C      1  0.5657910000000  0.4745440000000  0.5407260000000 1.0
C      1  0.5655700000000  0.4740980000000  0.4606600000000 1.0
C      1  0.4949320000000  0.5947650000000  0.4849090000000 1.0
C      1  0.4956950000000  0.5908190000000  0.5119960000000 1.0
C      1  0.4706810000000  0.4704420000000  0.5291030000000 1.0
C      1  0.4702380000000  0.4710820000000  0.4728300000000 1.0
C      1  0.4777720000000  0.4934710000000  0.4271360000000 1.0
C      1  0.4779240000000  0.4928380000000  0.5746340000000 1.0
C      1  0.4735180000000  0.4663630000000  0.4420180000000 1.0
C      1  0.4739590000000  0.4656680000000  0.5598230000000 1.0
C      1  0.4413070000000  0.4760570000000  0.5298030000000 1.0
C      1  0.4409960000000  0.4779470000000  0.4723150000000 1.0
C      1  0.5421660000000  0.5125130000000  0.5647140000000 1.0
C      1  0.5424160000000  0.5122200000000  0.4365870000000 1.0
C      1  0.5001040000000  0.4497280000000  0.5689980000000 1.0
C      1  0.4994350000000  0.4500910000000  0.4326840000000 1.0
C      1  0.5217750000000  0.5280670000000  0.5272090000000 1.0
C      1  0.5226200000000  0.5287690000000  0.4735750000000 1.0
C      1  0.5427650000000  0.4648720000000  0.4445420000000 1.0
C      1  0.5432420000000  0.4649590000000  0.5569640000000 1.0
C      1  0.5672810000000  0.4655070000000  0.5141530000000 1.0
C      1  0.5670580000000  0.4650940000000  0.4872520000000 1.0
C      1  0.4767810000000  0.5187400000000  0.4408540000000 1.0
C      1  0.4764660000000  0.5180270000000  0.5607860000000 1.0
C      1  0.4350850000000  0.4987390000000  0.5450710000000 1.0
C      1  0.4350770000000  0.4997980000000  0.4557180000000 1.0
C      1  0.4180410000000  0.5374420000000  0.5146320000000 1.0
C      1  0.4184150000000  0.5370690000000  0.4876090000000 1.0
C      1  0.5702920000000  0.5187170000000  0.5203010000000 1.0
C      1  0.5705690000000  0.5180960000000  0.4813040000000 1.0
C      1  0.4579710000000  0.5648670000000  0.5170420000000 1.0
C      1  0.4579060000000  0.5649160000000  0.4855220000000 1.0
C      1  0.4833050000000  0.4465030000000  0.5157610000000 1.0
C      1  0.4829170000000  0.4467950000000  0.4858890000000 1.0
C      1  0.5052910000000  0.4796170000000  0.5789320000000 1.0
C      1  0.5049330000000  0.4799030000000  0.4227670000000 1.0
C      1  0.5290270000000  0.4794090000000  0.5007380000000 1.0
END
