TITL C-3577091-527-501 -2.34690870198539e-06 125000 -213.587441690905 0 0 36 (C1) n - 1
REM
REM in /home/bkarasulu/work/CARBON/AIRSS/Generating-Clusters/EDIP-Nigel-Params/with-SteepDescent/Higher-Symm/SD-CG/HFTN-CG
REM
REM
REM
REM
REM
REM ./C.cell (12c818d87b63d06a65506943cc24bca4)
REM
REM compiler GCC version 9.2.1 20190827 (Red Hat 9.2.1-1)
REM options -cpp -mtune=generic -march=x86-64 -g -O0 -fpre-include=/usr/include/finclude/math-vector-fortran.h
REM seed -2043406899 1303509964 1281288897 1840489181 -262443338 175089236 -2010784384 -1122514769 2078701916 -1452956258 595661458 8082674 -1842204258 405936009 -1219745888 1658388301 -1943898618 1456752252 856155526 -898541604 293493362 -2053047438 -1697580795 2068908342 -173570543 1503871196 -1121389002 1085568090 -1152040952 -71344418 -1349353800 -2079091859 1972253625
REM
CELL 1.54180   50.00000   50.00000   50.00000   90.00000   90.00000   90.00000
LATT -1
SFAC C  
C      1  0.4780740000000  0.5146530000000  0.4338300000000 1.0
C      1  0.5391750000000  0.5132820000000  0.4477040000000 1.0
C      1  0.5602720000000  0.5153220000000  0.4684350000000 1.0
C      1  0.5575200000000  0.5123060000000  0.5332420000000 1.0
C      1  0.5376230000000  0.5137870000000  0.5547550000000 1.0
C      1  0.4748550000000  0.5074960000000  0.5523150000000 1.0
C      1  0.4480100000000  0.5013990000000  0.5412440000000 1.0
C      1  0.4431880000000  0.5119390000000  0.5136580000000 1.0
C      1  0.4534010000000  0.5116010000000  0.4517730000000 1.0
C      1  0.5192070000000  0.5331030000000  0.5429480000000 1.0
C      1  0.4909980000000  0.5282570000000  0.5385970000000 1.0
C      1  0.4779380000000  0.5450960000000  0.5203890000000 1.0
C      1  0.4650380000000  0.5278620000000  0.5025180000000 1.0
C      1  0.4658700000000  0.5314560000000  0.4729180000000 1.0
C      1  0.4910200000000  0.5349190000000  0.4533240000000 1.0
C      1  0.5181600000000  0.5279050000000  0.4625190000000 1.0
C      1  0.5466440000000  0.5343940000000  0.4862480000000 1.0
C      1  0.5451090000000  0.5315250000000  0.5148290000000 1.0
C      1  0.4908810000000  0.4893550000000  0.4352570000000 1.0
C      1  0.5350800000000  0.4852240000000  0.4431990000000 1.0
C      1  0.5638070000000  0.4892200000000  0.4794640000000 1.0
C      1  0.5589960000000  0.4845730000000  0.5258590000000 1.0
C      1  0.5274080000000  0.4874920000000  0.5550920000000 1.0
C      1  0.4844450000000  0.4840560000000  0.5663600000000 1.0
C      1  0.4422130000000  0.4730210000000  0.5431000000000 1.0
C      1  0.4372320000000  0.4882820000000  0.4988030000000 1.0
C      1  0.4509470000000  0.4836180000000  0.4585270000000 1.0
C      1  0.4643500000000  0.4623170000000  0.5276960000000 1.0
C      1  0.4622520000000  0.4741810000000  0.5004700000000 1.0
C      1  0.4703370000000  0.4683250000000  0.4730500000000 1.0
C      1  0.4950100000000  0.4768770000000  0.4601960000000 1.0
C      1  0.5228730000000  0.4695480000000  0.4637680000000 1.0
C      1  0.5393810000000  0.4768480000000  0.4866820000000 1.0
C      1  0.5377050000000  0.4693540000000  0.5146020000000 1.0
C      1  0.5154500000000  0.4749090000000  0.5327310000000 1.0
C      1  0.4895300000000  0.4665010000000  0.5438990000000 1.0
END
