TITL C-3577081-279-628 -7.8697561716871e-07 125000 -961.841886442665 0 0 153 (C1) n - 1
REM
REM in /home/bkarasulu/work/CARBON/AIRSS/Generating-Clusters/EDIP-Nigel-Params/with-SteepDescent/Higher-Symm/SD-CG/HFTN-CG
REM
REM
REM
REM
REM
REM ./C.cell (12c818d87b63d06a65506943cc24bca4)
REM
REM compiler GCC version 9.2.1 20190827 (Red Hat 9.2.1-1)
REM options -cpp -mtune=generic -march=x86-64 -g -O0 -fpre-include=/usr/include/finclude/math-vector-fortran.h
REM seed 1866339338 301265254 -1443609301 -1121347497 205520052 538637454 -202900146 1099615583 963493485 -1549662697 -356420852 1829855831 1088390415 945697577 659358854 804634939 -2056888412 -2116968920 841694117 862888431 -1100170734 -280584431 1663994293 2025786884 -1633406534 1720839576 1736127496 64452163 1465017798 1500454095 -1916727083 323634797 837386547
REM
CELL 1.54180   50.00000   50.00000   50.00000   90.00000   90.00000   90.00000
LATT -1
SFAC C  
C      1  0.5595580000000  0.5577220000000  0.4661140000000 1.0
C      1  0.4401580000000  0.5562340000000  0.4659790000000 1.0
C      1  0.5006590000000  0.5612150000000  0.5727330000000 1.0
C      1  0.4467330000000  0.5011030000000  0.4577260000000 1.0
C      1  0.4908820000000  0.5041430000000  0.5699980000000 1.0
C      1  0.5601640000000  0.5025980000000  0.4731030000000 1.0
C      1  0.5248020000000  0.4459150000000  0.4827410000000 1.0
C      1  0.4729410000000  0.4422990000000  0.4891960000000 1.0
C      1  0.5047780000000  0.4489400000000  0.5265660000000 1.0
C      1  0.4965780000000  0.4489170000000  0.4704680000000 1.0
C      1  0.4772230000000  0.4533270000000  0.5174810000000 1.0
C      1  0.5227140000000  0.4640870000000  0.5074670000000 1.0
C      1  0.5181110000000  0.5836940000000  0.5598240000000 1.0
C      1  0.5386460000000  0.5784910000000  0.4566850000000 1.0
C      1  0.4413800000000  0.5797560000000  0.4861500000000 1.0
C      1  0.4682510000000  0.4802290000000  0.5263510000000 1.0
C      1  0.5465970000000  0.4761950000000  0.5215430000000 1.0
C      1  0.4920740000000  0.4759050000000  0.4582170000000 1.0
C      1  0.3919400000000  0.5132170000000  0.4934640000000 1.0
C      1  0.5477950000000  0.5163830000000  0.6007150000000 1.0
C      1  0.5622020000000  0.5139120000000  0.4109620000000 1.0
C      1  0.4598850000000  0.5621760000000  0.4443390000000 1.0
C      1  0.4722030000000  0.5675890000000  0.5663820000000 1.0
C      1  0.5696890000000  0.5663260000000  0.4925400000000 1.0
C      1  0.4695880000000  0.4403270000000  0.4153490000000 1.0
C      1  0.4484230000000  0.4381890000000  0.5666600000000 1.0
C      1  0.5830910000000  0.4383250000000  0.5148700000000 1.0
C      1  0.5212970000000  0.4126800000000  0.4436000000000 1.0
C      1  0.4413770000000  0.4084530000000  0.5008930000000 1.0
C      1  0.5280990000000  0.4141210000000  0.5478800000000 1.0
C      1  0.5041240000000  0.6156480000000  0.4770980000000 1.0
C      1  0.4784420000000  0.6156950000000  0.5068050000000 1.0
C      1  0.5170020000000  0.6170360000000  0.5141390000000 1.0
C      1  0.4198760000000  0.4728420000000  0.5372510000000 1.0
C      1  0.5751640000000  0.4735910000000  0.5551430000000 1.0
C      1  0.5100260000000  0.4773950000000  0.4024820000000 1.0
C      1  0.5555320000000  0.5290570000000  0.5181570000000 1.0
C      1  0.4886890000000  0.5238960000000  0.4480890000000 1.0
C      1  0.4596830000000  0.5283310000000  0.5413110000000 1.0
C      1  0.5799020000000  0.5445280000000  0.5090730000000 1.0
C      1  0.4706780000000  0.5390090000000  0.4299630000000 1.0
C      1  0.4538950000000  0.5445550000000  0.5666150000000 1.0
C      1  0.5830510000000  0.5421720000000  0.4505350000000 1.0
C      1  0.4154590000000  0.5404540000000  0.4533720000000 1.0
C      1  0.5017080000000  0.5439390000000  0.6004460000000 1.0
C      1  0.5101330000000  0.5115060000000  0.4331580000000 1.0
C      1  0.4303640000000  0.5241280000000  0.5350790000000 1.0
C      1  0.5652880000000  0.5245430000000  0.5459250000000 1.0
C      1  0.4486670000000  0.5214160000000  0.4180990000000 1.0
C      1  0.4546360000000  0.5236160000000  0.5886020000000 1.0
C      1  0.5973200000000  0.5228900000000  0.4962920000000 1.0
C      1  0.5505560000000  0.5556770000000  0.5806230000000 1.0
C      1  0.5412370000000  0.5515740000000  0.4183080000000 1.0
C      1  0.4068600000000  0.5533750000000  0.5039820000000 1.0
C      1  0.5517490000000  0.4509240000000  0.4610570000000 1.0
C      1  0.4424800000000  0.4500340000000  0.4726040000000 1.0
C      1  0.5069470000000  0.4585190000000  0.5551130000000 1.0
C      1  0.4916750000000  0.5462740000000  0.4094970000000 1.0
C      1  0.4257540000000  0.5536260000000  0.5541020000000 1.0
C      1  0.5846590000000  0.5557220000000  0.5379690000000 1.0
C      1  0.5307080000000  0.6019070000000  0.4731440000000 1.0
C      1  0.4642370000000  0.5983620000000  0.4871390000000 1.0
C      1  0.5077610000000  0.6014370000000  0.5382300000000 1.0
C      1  0.5984430000000  0.4542380000000  0.4713590000000 1.0
C      1  0.4247350000000  0.4561040000000  0.4270300000000 1.0
C      1  0.4779900000000  0.4527790000000  0.6017890000000 1.0
C      1  0.4832220000000  0.3981610000000  0.4715600000000 1.0
C      1  0.4860960000000  0.4046760000000  0.5209840000000 1.0
C      1  0.5261500000000  0.4170250000000  0.4935480000000 1.0
C      1  0.3952160000000  0.4848610000000  0.4898250000000 1.0
C      1  0.5426670000000  0.4883020000000  0.5975240000000 1.0
C      1  0.5637140000000  0.4853990000000  0.4123240000000 1.0
C      1  0.5874610000000  0.5170500000000  0.4676260000000 1.0
C      1  0.4271610000000  0.5157480000000  0.4393400000000 1.0
C      1  0.4841800000000  0.5188400000000  0.5964420000000 1.0
C      1  0.5291470000000  0.5749720000000  0.4291100000000 1.0
C      1  0.4238600000000  0.5761230000000  0.5091850000000 1.0
C      1  0.5468000000000  0.5782540000000  0.5626220000000 1.0
C      1  0.5540000000000  0.5819620000000  0.5111720000000 1.0
C      1  0.4832210000000  0.5784160000000  0.4472830000000 1.0
C      1  0.4636780000000  0.5819220000000  0.5424860000000 1.0
C      1  0.5200700000000  0.5307510000000  0.4843780000000 1.0
C      1  0.4738620000000  0.5354220000000  0.4941030000000 1.0
C      1  0.5067480000000  0.5408350000000  0.5300320000000 1.0
C      1  0.5539440000000  0.4272460000000  0.5548260000000 1.0
C      1  0.5142270000000  0.4284140000000  0.4092470000000 1.0
C      1  0.4219630000000  0.4248540000000  0.5290650000000 1.0
C      1  0.5085900000000  0.4889170000000  0.5021830000000 1.0
C      1  0.4874280000000  0.4932340000000  0.4827460000000 1.0
C      1  0.4947220000000  0.4981890000000  0.5267030000000 1.0
C      1  0.4707010000000  0.3995970000000  0.4465690000000 1.0
C      1  0.4718550000000  0.4004100000000  0.5444000000000 1.0
C      1  0.5529850000000  0.4077930000000  0.4964430000000 1.0
C      1  0.5122950000000  0.4029910000000  0.4698720000000 1.0
C      1  0.4708320000000  0.4118640000000  0.4957330000000 1.0
C      1  0.5118940000000  0.4193580000000  0.5229350000000 1.0
C      1  0.4815250000000  0.6010730000000  0.4649390000000 1.0
C      1  0.4796490000000  0.6041940000000  0.5340950000000 1.0
C      1  0.5400200000000  0.6045310000000  0.5003710000000 1.0
C      1  0.4257320000000  0.4274820000000  0.4854300000000 1.0
C      1  0.5167210000000  0.4387330000000  0.5750270000000 1.0
C      1  0.5449370000000  0.4295470000000  0.4406460000000 1.0
C      1  0.4013540000000  0.4780130000000  0.4629920000000 1.0
C      1  0.5158260000000  0.4803410000000  0.6018120000000 1.0
C      1  0.5814810000000  0.4764800000000  0.4326630000000 1.0
C      1  0.5315570000000  0.4982890000000  0.5383710000000 1.0
C      1  0.5170700000000  0.4858880000000  0.4454570000000 1.0
C      1  0.4605800000000  0.4897340000000  0.4980510000000 1.0
C      1  0.5109020000000  0.5353060000000  0.5581230000000 1.0
C      1  0.5431950000000  0.5297390000000  0.4661500000000 1.0
C      1  0.4471700000000  0.5305790000000  0.4828680000000 1.0
C      1  0.5465540000000  0.4431550000000  0.5783460000000 1.0
C      1  0.5406350000000  0.4400950000000  0.4134500000000 1.0
C      1  0.4086260000000  0.4382810000000  0.5065670000000 1.0
C      1  0.4348240000000  0.5768840000000  0.5373180000000 1.0
C      1  0.5649050000000  0.5779910000000  0.5385280000000 1.0
C      1  0.5001990000000  0.5719340000000  0.4239670000000 1.0
C      1  0.5299460000000  0.5384810000000  0.6079340000000 1.0
C      1  0.5764700000000  0.5367760000000  0.4221950000000 1.0
C      1  0.3940070000000  0.5345350000000  0.4731420000000 1.0
C      1  0.5840760000000  0.5001110000000  0.5435250000000 1.0
C      1  0.4963920000000  0.5074130000000  0.4059930000000 1.0
C      1  0.4235130000000  0.4990250000000  0.5508540000000 1.0
C      1  0.4300430000000  0.4465590000000  0.5460340000000 1.0
C      1  0.5681130000000  0.4483040000000  0.5383140000000 1.0
C      1  0.4962450000000  0.4506680000000  0.4090540000000 1.0
C      1  0.4665950000000  0.4845450000000  0.5623530000000 1.0
C      1  0.5693640000000  0.4837960000000  0.5007850000000 1.0
C      1  0.4654470000000  0.4831640000000  0.4386700000000 1.0
C      1  0.4152780000000  0.4552730000000  0.4532110000000 1.0
C      1  0.5055630000000  0.4535630000000  0.5994190000000 1.0
C      1  0.5811000000000  0.4534770000000  0.4496310000000 1.0
C      1  0.5264890000000  0.5272840000000  0.5129510000000 1.0
C      1  0.4926910000000  0.5222530000000  0.4766490000000 1.0
C      1  0.4819980000000  0.5270570000000  0.5221490000000 1.0
C      1  0.4082970000000  0.4678340000000  0.5105480000000 1.0
C      1  0.5553240000000  0.4713230000000  0.5770300000000 1.0
C      1  0.5384960000000  0.4697070000000  0.4104940000000 1.0
C      1  0.5475940000000  0.4811600000000  0.4521960000000 1.0
C      1  0.4371770000000  0.4809190000000  0.4802640000000 1.0
C      1  0.5158200000000  0.4861540000000  0.5634600000000 1.0
C      1  0.5813590000000  0.4573140000000  0.4934220000000 1.0
C      1  0.4526370000000  0.4577330000000  0.4303290000000 1.0
C      1  0.4679620000000  0.4572370000000  0.5759970000000 1.0
C      1  0.4571500000000  0.4118400000000  0.5637790000000 1.0
C      1  0.5769930000000  0.4122230000000  0.5075160000000 1.0
C      1  0.4682980000000  0.4136230000000  0.4236390000000 1.0
C      1  0.5923630000000  0.4980240000000  0.5140410000000 1.0
C      1  0.4676440000000  0.4984180000000  0.4122500000000 1.0
C      1  0.4425400000000  0.4980430000000  0.5745300000000 1.0
C      1  0.4241730000000  0.5288550000000  0.5050040000000 1.0
C      1  0.5416960000000  0.5309090000000  0.5659470000000 1.0
C      1  0.5357280000000  0.5272780000000  0.4356810000000 1.0
END
