TITL C-3578202-4305-388 -1.16263078690968e-06 125000 -1080.95792198774 0 0 172 (C1) n - 1
REM
REM in /home/bkarasulu/work/CARBON/AIRSS/Generating-Clusters/EDIP-Nigel-Params/with-SteepDescent/Higher-Symm/SD-CG/HFTN-CG
REM
REM
REM
REM
REM
REM ./C.cell (12c818d87b63d06a65506943cc24bca4)
REM
REM compiler GCC version 9.2.1 20190827 (Red Hat 9.2.1-1)
REM options -cpp -mtune=generic -march=x86-64 -g -O0 -fpre-include=/usr/include/finclude/math-vector-fortran.h
REM seed -92492144 1360012122 337305370 779174598 -195978653 1555486722 -683132312 1682296989 -1068318852 584543956 -1564995513 1621504800 -1461286930 2052409297 -1246341332 -1887892729 288725671 -242189868 285342689 1167057303 1154014918 -1257764743 684840787 1246469800 150562568 2085481555 -27990339 856624737 221728043 -532568463 1908494619 567096119 -855622076
REM
CELL 1.54180   50.00000   50.00000   50.00000   90.00000   90.00000   90.00000
LATT -1
SFAC C  
C      1  0.4793990000000  0.4921900000000  0.6304410000000 1.0
C      1  0.5079880000000  0.4797210000000  0.6304900000000 1.0
C      1  0.5204710000000  0.5083010000000  0.6305160000000 1.0
C      1  0.4918750000000  0.5207900000000  0.6304760000000 1.0
C      1  0.5194440000000  0.4901770000000  0.3658920000000 1.0
C      1  0.4895840000000  0.4812830000000  0.3656450000000 1.0
C      1  0.4806620000000  0.5111210000000  0.3659000000000 1.0
C      1  0.5105190000000  0.5200530000000  0.3661340000000 1.0
C      1  0.4061940000000  0.5379060000000  0.4622590000000 1.0
C      1  0.4627870000000  0.4058410000000  0.4624320000000 1.0
C      1  0.5927420000000  0.4620780000000  0.4625000000000 1.0
C      1  0.5381600000000  0.5927870000000  0.4624760000000 1.0
C      1  0.5852710000000  0.5559940000000  0.5263910000000 1.0
C      1  0.5563310000000  0.4151340000000  0.5265960000000 1.0
C      1  0.4153370000000  0.4439270000000  0.5260170000000 1.0
C      1  0.4442430000000  0.5850260000000  0.5261460000000 1.0
C      1  0.4142830000000  0.5482280000000  0.5122950000000 1.0
C      1  0.4521130000000  0.4141720000000  0.5122710000000 1.0
C      1  0.5858910000000  0.4517730000000  0.5125030000000 1.0
C      1  0.5485550000000  0.5859770000000  0.5125160000000 1.0
C      1  0.5860740000000  0.5516230000000  0.4830080000000 1.0
C      1  0.5522330000000  0.4140690000000  0.4831970000000 1.0
C      1  0.4142570000000  0.4483740000000  0.4826610000000 1.0
C      1  0.4487270000000  0.5861860000000  0.4827910000000 1.0
C      1  0.3954280000000  0.4606840000000  0.5132990000000 1.0
C      1  0.5397180000000  0.3952280000000  0.5136710000000 1.0
C      1  0.6051090000000  0.5392030000000  0.5134850000000 1.0
C      1  0.4610180000000  0.6050470000000  0.5135170000000 1.0
C      1  0.6008610000000  0.4666990000000  0.4905450000000 1.0
C      1  0.4675480000000  0.3990950000000  0.4907230000000 1.0
C      1  0.3993590000000  0.5329230000000  0.4905530000000 1.0
C      1  0.5335630000000  0.6009060000000  0.4905470000000 1.0
C      1  0.5113090000000  0.4490830000000  0.4590260000000 1.0
C      1  0.5494920000000  0.5105220000000  0.4614290000000 1.0
C      1  0.4887640000000  0.5497910000000  0.4615780000000 1.0
C      1  0.4497680000000  0.4880420000000  0.4593460000000 1.0
C      1  0.4923740000000  0.4491290000000  0.5420370000000 1.0
C      1  0.4490770000000  0.5079520000000  0.5419630000000 1.0
C      1  0.5079820000000  0.5513710000000  0.5422960000000 1.0
C      1  0.5512380000000  0.4923690000000  0.5421930000000 1.0
C      1  0.4733390000000  0.4309440000000  0.5584340000000 1.0
C      1  0.5693560000000  0.4733490000000  0.5586130000000 1.0
C      1  0.5270190000000  0.5695900000000  0.5586580000000 1.0
C      1  0.4308110000000  0.5269750000000  0.5583570000000 1.0
C      1  0.5223610000000  0.4294910000000  0.4399760000000 1.0
C      1  0.4299950000000  0.4780790000000  0.4400170000000 1.0
C      1  0.4786800000000  0.5689720000000  0.4415550000000 1.0
C      1  0.5685500000000  0.5211530000000  0.4416360000000 1.0
C      1  0.5109170000000  0.5553470000000  0.5117430000000 1.0
C      1  0.4454460000000  0.5107980000000  0.5110910000000 1.0
C      1  0.4892020000000  0.4454130000000  0.5112630000000 1.0
C      1  0.5551530000000  0.4890790000000  0.5117530000000 1.0
C      1  0.4899840000000  0.5611040000000  0.4897840000000 1.0
C      1  0.5607520000000  0.5097690000000  0.4896250000000 1.0
C      1  0.5095010000000  0.4400710000000  0.4881650000000 1.0
C      1  0.4401300000000  0.4901920000000  0.4883070000000 1.0
C      1  0.5554130000000  0.4990180000000  0.3998180000000 1.0
C      1  0.5011740000000  0.5558120000000  0.4000750000000 1.0
C      1  0.4443370000000  0.5015990000000  0.3992410000000 1.0
C      1  0.4986700000000  0.4450070000000  0.3990030000000 1.0
C      1  0.4434500000000  0.5069100000000  0.5988880000000 1.0
C      1  0.5067050000000  0.5568070000000  0.5989980000000 1.0
C      1  0.5565470000000  0.4935710000000  0.5990030000000 1.0
C      1  0.4933150000000  0.4437110000000  0.5989700000000 1.0
C      1  0.6045520000000  0.4943400000000  0.5413220000000 1.0
C      1  0.5059480000000  0.6047090000000  0.5413000000000 1.0
C      1  0.3957530000000  0.5057460000000  0.5410690000000 1.0
C      1  0.4945760000000  0.3958080000000  0.5413150000000 1.0
C      1  0.3933630000000  0.4921350000000  0.4639860000000 1.0
C      1  0.4927020000000  0.6068640000000  0.4638210000000 1.0
C      1  0.6065870000000  0.5075750000000  0.4638330000000 1.0
C      1  0.5085680000000  0.3932490000000  0.4642610000000 1.0
C      1  0.4489790000000  0.5314160000000  0.4399410000000 1.0
C      1  0.4676600000000  0.4483550000000  0.4387960000000 1.0
C      1  0.5501510000000  0.4685300000000  0.4394910000000 1.0
C      1  0.5304260000000  0.5497530000000  0.4406690000000 1.0
C      1  0.5505600000000  0.5278540000000  0.5525370000000 1.0
C      1  0.5276990000000  0.4500100000000  0.5522920000000 1.0
C      1  0.4498840000000  0.4724860000000  0.5520600000000 1.0
C      1  0.4724160000000  0.5505620000000  0.5523510000000 1.0
C      1  0.4340710000000  0.5458630000000  0.4596940000000 1.0
C      1  0.4543380000000  0.4335350000000  0.4596710000000 1.0
C      1  0.5645340000000  0.4552720000000  0.4606040000000 1.0
C      1  0.5447850000000  0.5645000000000  0.4607030000000 1.0
C      1  0.5594580000000  0.5421390000000  0.5281540000000 1.0
C      1  0.5421300000000  0.4407940000000  0.5280460000000 1.0
C      1  0.4409940000000  0.4580830000000  0.5275610000000 1.0
C      1  0.4582100000000  0.5592760000000  0.5277520000000 1.0
C      1  0.5930940000000  0.4654910000000  0.5400510000000 1.0
C      1  0.5348370000000  0.5932880000000  0.5400450000000 1.0
C      1  0.4071050000000  0.5346370000000  0.5398240000000 1.0
C      1  0.4656890000000  0.4071830000000  0.5399170000000 1.0
C      1  0.4063760000000  0.4663200000000  0.4573350000000 1.0
C      1  0.4670460000000  0.5933310000000  0.4575970000000 1.0
C      1  0.5928870000000  0.5331190000000  0.4576980000000 1.0
C      1  0.5344650000000  0.4061330000000  0.4577180000000 1.0
C      1  0.3944440000000  0.4898590000000  0.5155490000000 1.0
C      1  0.5105470000000  0.3943310000000  0.5158700000000 1.0
C      1  0.6065030000000  0.5100130000000  0.5157020000000 1.0
C      1  0.4902160000000  0.6066960000000  0.5157050000000 1.0
C      1  0.5974080000000  0.4967010000000  0.4904620000000 1.0
C      1  0.4974450000000  0.4030950000000  0.4905490000000 1.0
C      1  0.4034480000000  0.5030300000000  0.4902980000000 1.0
C      1  0.5035150000000  0.5975240000000  0.4904600000000 1.0
C      1  0.4855610000000  0.5366340000000  0.6065490000000 1.0
C      1  0.4636470000000  0.4858480000000  0.6064660000000 1.0
C      1  0.5143530000000  0.4639440000000  0.6065490000000 1.0
C      1  0.5363430000000  0.5146510000000  0.6066190000000 1.0
C      1  0.5182320000000  0.5330060000000  0.3913070000000 1.0
C      1  0.5327200000000  0.4819180000000  0.3907910000000 1.0
C      1  0.4814960000000  0.4677390000000  0.3904020000000 1.0
C      1  0.4672270000000  0.5187580000000  0.3908950000000 1.0
C      1  0.4493670000000  0.5473950000000  0.5726210000000 1.0
C      1  0.4529420000000  0.4496080000000  0.5725300000000 1.0
C      1  0.5505410000000  0.4531680000000  0.5727240000000 1.0
C      1  0.5472660000000  0.5508450000000  0.5728550000000 1.0
C      1  0.5537700000000  0.5410540000000  0.4239630000000 1.0
C      1  0.5418330000000  0.4451000000000  0.4222620000000 1.0
C      1  0.4447060000000  0.4584370000000  0.4218500000000 1.0
C      1  0.4587970000000  0.5544490000000  0.4235890000000 1.0
C      1  0.4532300000000  0.4727980000000  0.3979830000000 1.0
C      1  0.5275860000000  0.4536130000000  0.3981940000000 1.0
C      1  0.5463110000000  0.5277780000000  0.3992060000000 1.0
C      1  0.4724160000000  0.5467890000000  0.3990750000000 1.0
C      1  0.5428860000000  0.4663000000000  0.5979880000000 1.0
C      1  0.4660020000000  0.4573070000000  0.5978680000000 1.0
C      1  0.4570140000000  0.5342550000000  0.5979270000000 1.0
C      1  0.5340120000000  0.5431880000000  0.5980740000000 1.0
C      1  0.4752720000000  0.5219850000000  0.5469000000000 1.0
C      1  0.4785770000000  0.4753600000000  0.5468170000000 1.0
C      1  0.5249550000000  0.4786650000000  0.5465790000000 1.0
C      1  0.5220070000000  0.5251470000000  0.5467240000000 1.0
C      1  0.5238640000000  0.5238510000000  0.4559110000000 1.0
C      1  0.5239610000000  0.4753660000000  0.4536480000000 1.0
C      1  0.4743840000000  0.4729930000000  0.4554460000000 1.0
C      1  0.4734260000000  0.5252670000000  0.4571330000000 1.0
C      1  0.5985610000000  0.4856650000000  0.4444840000000 1.0
C      1  0.5145500000000  0.5986090000000  0.4444340000000 1.0
C      1  0.4007510000000  0.5140510000000  0.4444690000000 1.0
C      1  0.4866730000000  0.4004270000000  0.4449430000000 1.0
C      1  0.3990250000000  0.4929840000000  0.5665530000000 1.0
C      1  0.4930360000000  0.6014210000000  0.5667090000000 1.0
C      1  0.6012310000000  0.5072460000000  0.5667270000000 1.0
C      1  0.5072600000000  0.3991470000000  0.5668260000000 1.0
C      1  0.4916990000000  0.4289160000000  0.4251110000000 1.0
C      1  0.5706450000000  0.4926010000000  0.4269010000000 1.0
C      1  0.5072140000000  0.5708990000000  0.4273630000000 1.0
C      1  0.4283670000000  0.5076150000000  0.4260760000000 1.0
C      1  0.4941670000000  0.4222070000000  0.5772070000000 1.0
C      1  0.4220440000000  0.5060760000000  0.5770370000000 1.0
C      1  0.5061140000000  0.5784490000000  0.5773120000000 1.0
C      1  0.5782080000000  0.4942250000000  0.5773000000000 1.0
C      1  0.4518670000000  0.5549710000000  0.4823180000000 1.0
C      1  0.4454050000000  0.4519440000000  0.4820060000000 1.0
C      1  0.5473390000000  0.4448670000000  0.4828470000000 1.0
C      1  0.5551270000000  0.5474990000000  0.4830830000000 1.0
C      1  0.5412130000000  0.5567290000000  0.5087660000000 1.0
C      1  0.5565970000000  0.4588840000000  0.5085530000000 1.0
C      1  0.4591390000000  0.4434730000000  0.5080880000000 1.0
C      1  0.4435200000000  0.5410270000000  0.5082890000000 1.0
C      1  0.4873090000000  0.4776300000000  0.4822900000000 1.0
C      1  0.5173280000000  0.4870350000000  0.4807100000000 1.0
C      1  0.5100510000000  0.5165910000000  0.4813260000000 1.0
C      1  0.4785550000000  0.5110200000000  0.4825820000000 1.0
C      1  0.5126280000000  0.4819660000000  0.5195150000000 1.0
C      1  0.4821010000000  0.4877160000000  0.5199880000000 1.0
C      1  0.4876400000000  0.5187220000000  0.5198890000000 1.0
C      1  0.5187960000000  0.5129020000000  0.5194160000000 1.0
C      1  0.5797340000000  0.4208150000000  0.5095180000000 1.0
C      1  0.5795640000000  0.5793410000000  0.5092340000000 1.0
C      1  0.4209400000000  0.5793610000000  0.5089230000000 1.0
C      1  0.4209710000000  0.4206130000000  0.5088110000000 1.0
END
