TITL C-3577080-309-328 -3.11393178586413e-06 125000 -1134.2620669301 0 0 178 (C1) n - 1
REM
REM in /home/bkarasulu/work/CARBON/AIRSS/Generating-Clusters/EDIP-Nigel-Params/with-SteepDescent/Higher-Symm/SD-CG/HFTN-CG
REM
REM
REM
REM
REM
REM ./C.cell (12c818d87b63d06a65506943cc24bca4)
REM
REM compiler GCC version 9.2.1 20190827 (Red Hat 9.2.1-1)
REM options -cpp -mtune=generic -march=x86-64 -g -O0 -fpre-include=/usr/include/finclude/math-vector-fortran.h
REM seed 427103762 1208422938 909530702 -142878757 1767818266 58957184 -685263086 504932327 1008936333 289319471 819286228 1634533185 -1959433828 -2134897570 -1864659026 762175560 -162682987 -31963466 -645594816 260795695 -1805088873 -87385739 925098999 -76405877 -154616103 -1833025988 274475705 147927141 470956 271127398 2122130667 1860225552 -476601988
REM
CELL 1.54180   50.00000   50.00000   50.00000   90.00000   90.00000   90.00000
LATT -1
SFAC C  
C      1  0.5011240000000  0.5929970000000  0.5773460000000 1.0
C      1  0.4996420000000  0.6209530000000  0.4883050000000 1.0
C      1  0.5005340000000  0.5773240000000  0.4059380000000 1.0
C      1  0.5003520000000  0.4883130000000  0.3797930000000 1.0
C      1  0.5005150000000  0.4067700000000  0.4227950000000 1.0
C      1  0.4989010000000  0.3793260000000  0.5115930000000 1.0
C      1  0.5000190000000  0.4228480000000  0.5935490000000 1.0
C      1  0.4993160000000  0.5121440000000  0.6204730000000 1.0
C      1  0.5142970000000  0.5885640000000  0.5204520000000 1.0
C      1  0.4860350000000  0.5770560000000  0.4520910000000 1.0
C      1  0.5151920000000  0.5211320000000  0.4115940000000 1.0
C      1  0.4864450000000  0.4530520000000  0.4238210000000 1.0
C      1  0.5140640000000  0.4112440000000  0.4793390000000 1.0
C      1  0.4857880000000  0.4235370000000  0.5476410000000 1.0
C      1  0.5135960000000  0.4794560000000  0.5882390000000 1.0
C      1  0.4860110000000  0.5474800000000  0.5765000000000 1.0
C      1  0.4938010000000  0.5151330000000  0.3906700000000 1.0
C      1  0.5072830000000  0.4336750000000  0.4122830000000 1.0
C      1  0.4921990000000  0.3905120000000  0.4850030000000 1.0
C      1  0.5070020000000  0.4121960000000  0.5668560000000 1.0
C      1  0.4924760000000  0.4854430000000  0.6094810000000 1.0
C      1  0.5078640000000  0.5660990000000  0.5877770000000 1.0
C      1  0.4928350000000  0.6097940000000  0.5148540000000 1.0
C      1  0.5069060000000  0.5884080000000  0.4326630000000 1.0
C      1  0.5715300000000  0.5496000000000  0.5763130000000 1.0
C      1  0.4293390000000  0.5913930000000  0.5188530000000 1.0
C      1  0.5749970000000  0.5755990000000  0.4495750000000 1.0
C      1  0.4262010000000  0.5179580000000  0.4123160000000 1.0
C      1  0.5750750000000  0.4506060000000  0.4269480000000 1.0
C      1  0.4291720000000  0.4097220000000  0.4809150000000 1.0
C      1  0.5708080000000  0.4225570000000  0.5515270000000 1.0
C      1  0.4249110000000  0.4830770000000  0.5878290000000 1.0
C      1  0.5940000000000  0.4790780000000  0.4834070000000 1.0
C      1  0.3974920000000  0.4665390000000  0.5015510000000 1.0
C      1  0.6019360000000  0.4760430000000  0.5271540000000 1.0
C      1  0.4034030000000  0.5019140000000  0.5281390000000 1.0
C      1  0.5944340000000  0.5210090000000  0.5192550000000 1.0
C      1  0.3971640000000  0.5362660000000  0.4978780000000 1.0
C      1  0.6032100000000  0.5226880000000  0.4755870000000 1.0
C      1  0.4041130000000  0.4987770000000  0.4715260000000 1.0
C      1  0.4668990000000  0.4056390000000  0.4881000000000 1.0
C      1  0.5329840000000  0.4240250000000  0.5593990000000 1.0
C      1  0.4675960000000  0.4883590000000  0.5955740000000 1.0
C      1  0.5338140000000  0.5583560000000  0.5757230000000 1.0
C      1  0.4671170000000  0.5954390000000  0.5118340000000 1.0
C      1  0.5325580000000  0.5781840000000  0.4397620000000 1.0
C      1  0.4690480000000  0.5124920000000  0.4049810000000 1.0
C      1  0.5327510000000  0.4403840000000  0.4232440000000 1.0
C      1  0.4502900000000  0.4485400000000  0.5027390000000 1.0
C      1  0.5492060000000  0.4650680000000  0.5388910000000 1.0
C      1  0.4497690000000  0.5027380000000  0.5518170000000 1.0
C      1  0.5492580000000  0.5389020000000  0.5335570000000 1.0
C      1  0.4501980000000  0.5524230000000  0.4972270000000 1.0
C      1  0.5504790000000  0.5362510000000  0.4599690000000 1.0
C      1  0.4510820000000  0.4982830000000  0.4484470000000 1.0
C      1  0.5495440000000  0.4593730000000  0.4661360000000 1.0
C      1  0.5045400000000  0.5338400000000  0.4388980000000 1.0
C      1  0.4975520000000  0.4820860000000  0.4354210000000 1.0
C      1  0.5035090000000  0.4388780000000  0.4670260000000 1.0
C      1  0.4970630000000  0.4354470000000  0.5190750000000 1.0
C      1  0.5028630000000  0.4674350000000  0.5604230000000 1.0
C      1  0.4962710000000  0.5188650000000  0.5651460000000 1.0
C      1  0.5032090000000  0.5607330000000  0.5324240000000 1.0
C      1  0.4968320000000  0.5653510000000  0.4806730000000 1.0
C      1  0.5913430000000  0.4862130000000  0.5520260000000 1.0
C      1  0.4085950000000  0.5270440000000  0.5427860000000 1.0
C      1  0.5908290000000  0.5493130000000  0.5130870000000 1.0
C      1  0.4077900000000  0.5469010000000  0.4731350000000 1.0
C      1  0.5924170000000  0.5131640000000  0.4494650000000 1.0
C      1  0.4094850000000  0.4743090000000  0.4562180000000 1.0
C      1  0.5908370000000  0.4505450000000  0.4892690000000 1.0
C      1  0.4075760000000  0.4542390000000  0.5267310000000 1.0
C      1  0.4739580000000  0.5699070000000  0.5002100000000 1.0
C      1  0.5276300000000  0.5513950000000  0.4484830000000 1.0
C      1  0.4748510000000  0.5016740000000  0.4308900000000 1.0
C      1  0.5271900000000  0.4481830000000  0.4502320000000 1.0
C      1  0.4741270000000  0.4311930000000  0.4995450000000 1.0
C      1  0.5258910000000  0.4502040000000  0.5497200000000 1.0
C      1  0.4733520000000  0.4994300000000  0.5697790000000 1.0
C      1  0.5266060000000  0.5501440000000  0.5490080000000 1.0
C      1  0.4382880000000  0.5310180000000  0.5888520000000 1.0
C      1  0.5617230000000  0.5849430000000  0.5411950000000 1.0
C      1  0.4389920000000  0.5900730000000  0.4691400000000 1.0
C      1  0.5624440000000  0.5420470000000  0.4144280000000 1.0
C      1  0.4392710000000  0.4701330000000  0.4112880000000 1.0
C      1  0.5620760000000  0.4143400000000  0.4590830000000 1.0
C      1  0.4386940000000  0.4107920000000  0.5306390000000 1.0
C      1  0.5605710000000  0.4587000000000  0.5854580000000 1.0
C      1  0.5640800000000  0.5623350000000  0.5203540000000 1.0
C      1  0.4359950000000  0.5595480000000  0.4707750000000 1.0
C      1  0.5649470000000  0.5214930000000  0.4373820000000 1.0
C      1  0.4367950000000  0.4715440000000  0.4419500000000 1.0
C      1  0.5645370000000  0.4367800000000  0.4803340000000 1.0
C      1  0.4357410000000  0.4413120000000  0.5290940000000 1.0
C      1  0.5632700000000  0.4788310000000  0.5623480000000 1.0
C      1  0.4356270000000  0.5296290000000  0.5580670000000 1.0
C      1  0.5931710000000  0.5486380000000  0.4843000000000 1.0
C      1  0.4084660000000  0.5230300000000  0.4566220000000 1.0
C      1  0.5909600000000  0.4848110000000  0.4556150000000 1.0
C      1  0.4074170000000  0.4540370000000  0.4769390000000 1.0
C      1  0.5925260000000  0.4507360000000  0.5180290000000 1.0
C      1  0.4076270000000  0.4779740000000  0.5434690000000 1.0
C      1  0.5908400000000  0.5148420000000  0.5470260000000 1.0
C      1  0.4069300000000  0.5476260000000  0.5223060000000 1.0
C      1  0.4334330000000  0.4391100000000  0.4786730000000 1.0
C      1  0.5663580000000  0.4413270000000  0.5288190000000 1.0
C      1  0.4321160000000  0.4789600000000  0.5601640000000 1.0
C      1  0.5659380000000  0.5272910000000  0.5573090000000 1.0
C      1  0.4332560000000  0.5619620000000  0.5211670000000 1.0
C      1  0.5680020000000  0.5585770000000  0.4719130000000 1.0
C      1  0.4331180000000  0.5219290000000  0.4400370000000 1.0
C      1  0.5669500000000  0.4725780000000  0.4439660000000 1.0
C      1  0.5518590000000  0.5708810000000  0.4940550000000 1.0
C      1  0.4485920000000  0.5466400000000  0.4462910000000 1.0
C      1  0.5516920000000  0.4949150000000  0.4307150000000 1.0
C      1  0.4494060000000  0.4471230000000  0.4546970000000 1.0
C      1  0.5512800000000  0.4289680000000  0.5061390000000 1.0
C      1  0.4479510000000  0.4542160000000  0.5537120000000 1.0
C      1  0.5502270000000  0.5051050000000  0.5693080000000 1.0
C      1  0.4488300000000  0.5538320000000  0.5454350000000 1.0
C      1  0.4980120000000  0.4884470000000  0.4659280000000 1.0
C      1  0.5072820000000  0.4680590000000  0.4846690000000 1.0
C      1  0.4965490000000  0.4665760000000  0.5125130000000 1.0
C      1  0.5055620000000  0.4854860000000  0.5331020000000 1.0
C      1  0.4958160000000  0.5131490000000  0.5344960000000 1.0
C      1  0.5048600000000  0.5330920000000  0.5147940000000 1.0
C      1  0.4958310000000  0.5344120000000  0.4866330000000 1.0
C      1  0.5087830000000  0.5162590000000  0.4680510000000 1.0
C      1  0.5235990000000  0.6086900000000  0.4792170000000 1.0
C      1  0.4762060000000  0.5627900000000  0.4081950000000 1.0
C      1  0.5241910000000  0.4792570000000  0.3924430000000 1.0
C      1  0.4762450000000  0.4090230000000  0.4373830000000 1.0
C      1  0.5227800000000  0.3915460000000  0.5208460000000 1.0
C      1  0.4758280000000  0.4375730000000  0.5912930000000 1.0
C      1  0.5232980000000  0.5209350000000  0.6079370000000 1.0
C      1  0.4768210000000  0.5912810000000  0.5627100000000 1.0
C      1  0.5231920000000  0.6046670000000  0.5641710000000 1.0
C      1  0.4775180000000  0.6198800000000  0.4708370000000 1.0
C      1  0.5231000000000  0.5642400000000  0.3947970000000 1.0
C      1  0.4777630000000  0.4713570000000  0.3811110000000 1.0
C      1  0.5228400000000  0.3952490000000  0.4359270000000 1.0
C      1  0.4767970000000  0.3805630000000  0.5290260000000 1.0
C      1  0.5220420000000  0.4360810000000  0.6052630000000 1.0
C      1  0.4769080000000  0.5293620000000  0.6191290000000 1.0
C      1  0.4338950000000  0.6046080000000  0.4939350000000 1.0
C      1  0.5664360000000  0.5698090000000  0.4234430000000 1.0
C      1  0.4353230000000  0.4958820000000  0.3977600000000 1.0
C      1  0.5666690000000  0.4242040000000  0.4317040000000 1.0
C      1  0.4336070000000  0.3963910000000  0.5057830000000 1.0
C      1  0.5661400000000  0.4309190000000  0.5784510000000 1.0
C      1  0.4338710000000  0.5052960000000  0.6023540000000 1.0
C      1  0.5672450000000  0.5768710000000  0.5687460000000 1.0
C      1  0.5237650000000  0.5825120000000  0.4920700000000 1.0
C      1  0.4765280000000  0.5532080000000  0.4358020000000 1.0
C      1  0.5240950000000  0.4928100000000  0.4183250000000 1.0
C      1  0.4769820000000  0.4364420000000  0.4474250000000 1.0
C      1  0.5232350000000  0.4175450000000  0.5077130000000 1.0
C      1  0.4759340000000  0.4473810000000  0.5638170000000 1.0
C      1  0.5228470000000  0.5076550000000  0.5819290000000 1.0
C      1  0.4767530000000  0.5638910000000  0.5526650000000 1.0
C      1  0.5355380000000  0.5996220000000  0.5393460000000 1.0
C      1  0.4651200000000  0.5984810000000  0.4573820000000 1.0
C      1  0.5362690000000  0.5396460000000  0.3996770000000 1.0
C      1  0.4652520000000  0.4580270000000  0.4025860000000 1.0
C      1  0.5355550000000  0.3997190000000  0.4608170000000 1.0
C      1  0.4647740000000  0.4022250000000  0.5423350000000 1.0
C      1  0.5344790000000  0.4607810000000  0.5998420000000 1.0
C      1  0.4645500000000  0.5428460000000  0.5976420000000 1.0
C      1  0.4552280000000  0.5010650000000  0.5220250000000 1.0
C      1  0.5403040000000  0.5176910000000  0.5107140000000 1.0
C      1  0.4552640000000  0.5224630000000  0.4992990000000 1.0
C      1  0.5377260000000  0.5157400000000  0.4785490000000 1.0
C      1  0.4571180000000  0.4997760000000  0.4780540000000 1.0
C      1  0.5356370000000  0.4769640000000  0.4869000000000 1.0
C      1  0.4556620000000  0.4784060000000  0.5008220000000 1.0
C      1  0.5408730000000  0.4867090000000  0.5163900000000 1.0
C      1  0.6082360000000  0.5017190000000  0.4991500000000 1.0
C      1  0.3903790000000  0.4984830000000  0.4998320000000 1.0
END
