TITL C-3578206-1180-383 1.3871361461495e-06 125000 -844.582844214917 0 0 135 (C1) n - 1
REM
REM in /home/bkarasulu/work/CARBON/AIRSS/Generating-Clusters/EDIP-Nigel-Params/with-SteepDescent/Higher-Symm/SD-CG/HFTN-CG
REM
REM
REM
REM
REM
REM ./C.cell (12c818d87b63d06a65506943cc24bca4)
REM
REM compiler GCC version 9.2.1 20190827 (Red Hat 9.2.1-1)
REM options -cpp -mtune=generic -march=x86-64 -g -O0 -fpre-include=/usr/include/finclude/math-vector-fortran.h
REM seed -692282514 661355205 -1384812447 -1088681980 1069672420 658947175 -277628568 -1088722469 -1023904340 -460872406 -42188385 2028943090 -1081450977 -1573695004 -68272960 -1248607311 1927103154 1817538189 1757645417 -1268846269 -614506814 1514816349 2012190830 -836416942 1381317548 1904664698 -795138655 2145171686 1130660261 1581646464 1499373376 -1495437331 -1258413584
REM
CELL 1.54180   50.00000   50.00000   50.00000   90.00000   90.00000   90.00000
LATT -1
SFAC C  
C      1  0.5219950000000  0.5991630000000  0.5516820000000 1.0
C      1  0.5098960000000  0.4186230000000  0.5536070000000 1.0
C      1  0.5473380000000  0.5577870000000  0.4396240000000 1.0
C      1  0.4661530000000  0.5524070000000  0.5816960000000 1.0
C      1  0.5449920000000  0.4246640000000  0.4584420000000 1.0
C      1  0.5216570000000  0.4981850000000  0.4459940000000 1.0
C      1  0.4665480000000  0.5300740000000  0.5033550000000 1.0
C      1  0.5083480000000  0.4514150000000  0.4827520000000 1.0
C      1  0.5078950000000  0.4716660000000  0.4328310000000 1.0
C      1  0.5717190000000  0.5650690000000  0.4508630000000 1.0
C      1  0.4833020000000  0.4521830000000  0.5042180000000 1.0
C      1  0.4412440000000  0.5312160000000  0.4603510000000 1.0
C      1  0.5841160000000  0.4613860000000  0.5125710000000 1.0
C      1  0.4395030000000  0.5455700000000  0.4339220000000 1.0
C      1  0.5244580000000  0.4922060000000  0.5644920000000 1.0
C      1  0.4601740000000  0.4243250000000  0.5656720000000 1.0
C      1  0.4922930000000  0.4576040000000  0.5907880000000 1.0
C      1  0.4756210000000  0.4034190000000  0.5209380000000 1.0
C      1  0.4689700000000  0.5259720000000  0.3984550000000 1.0
C      1  0.5003500000000  0.5304310000000  0.4855360000000 1.0
C      1  0.4579990000000  0.4348530000000  0.4937810000000 1.0
C      1  0.4648140000000  0.5104450000000  0.4519840000000 1.0
C      1  0.5553510000000  0.5297900000000  0.5633420000000 1.0
C      1  0.5369340000000  0.5982710000000  0.5164990000000 1.0
C      1  0.4915140000000  0.5326450000000  0.4376340000000 1.0
C      1  0.5300980000000  0.4696530000000  0.4953800000000 1.0
C      1  0.5922850000000  0.5149320000000  0.5020560000000 1.0
C      1  0.5253250000000  0.5183690000000  0.5253950000000 1.0
C      1  0.4808850000000  0.4896090000000  0.4712040000000 1.0
C      1  0.5377250000000  0.4240850000000  0.5585950000000 1.0
C      1  0.4716250000000  0.5672610000000  0.4643270000000 1.0
C      1  0.5910550000000  0.4813770000000  0.4665520000000 1.0
C      1  0.4468480000000  0.4845340000000  0.5061630000000 1.0
C      1  0.4038990000000  0.4668410000000  0.5000950000000 1.0
C      1  0.4893680000000  0.4323580000000  0.5721350000000 1.0
C      1  0.4417770000000  0.5432160000000  0.5688500000000 1.0
C      1  0.5337020000000  0.4656120000000  0.5249340000000 1.0
C      1  0.4403820000000  0.5121760000000  0.5670120000000 1.0
C      1  0.5880060000000  0.5075220000000  0.4533600000000 1.0
C      1  0.4857240000000  0.5205720000000  0.5445250000000 1.0
C      1  0.4515080000000  0.4158220000000  0.5360070000000 1.0
C      1  0.5501260000000  0.4311730000000  0.5830040000000 1.0
C      1  0.5047870000000  0.5050720000000  0.4706690000000 1.0
C      1  0.4227730000000  0.4524460000000  0.4584070000000 1.0
C      1  0.4459090000000  0.4948020000000  0.4316100000000 1.0
C      1  0.4653830000000  0.4056920000000  0.4937020000000 1.0
C      1  0.4177490000000  0.4751310000000  0.5463450000000 1.0
C      1  0.4364290000000  0.4655260000000  0.5671630000000 1.0
C      1  0.5444140000000  0.5339400000000  0.4240610000000 1.0
C      1  0.4757720000000  0.4818940000000  0.5006790000000 1.0
C      1  0.5413740000000  0.4370620000000  0.4314230000000 1.0
C      1  0.5052660000000  0.5725580000000  0.4209670000000 1.0
C      1  0.5802150000000  0.4872160000000  0.4943530000000 1.0
C      1  0.5526250000000  0.4207110000000  0.5136770000000 1.0
C      1  0.4808360000000  0.3951580000000  0.4733060000000 1.0
C      1  0.4971940000000  0.5495270000000  0.4628830000000 1.0
C      1  0.5545660000000  0.4858580000000  0.4128740000000 1.0
C      1  0.4878190000000  0.5923020000000  0.4687140000000 1.0
C      1  0.5200820000000  0.4227990000000  0.4757430000000 1.0
C      1  0.5354270000000  0.5220980000000  0.4969460000000 1.0
C      1  0.4718980000000  0.5923210000000  0.4946790000000 1.0
C      1  0.5737930000000  0.5497910000000  0.4741770000000 1.0
C      1  0.5745490000000  0.5441900000000  0.5430630000000 1.0
C      1  0.4919770000000  0.4642700000000  0.4584320000000 1.0
C      1  0.5032200000000  0.4139930000000  0.5249550000000 1.0
C      1  0.5925810000000  0.5277890000000  0.4746660000000 1.0
C      1  0.5375690000000  0.4754880000000  0.5853100000000 1.0
C      1  0.4712520000000  0.5860810000000  0.5416270000000 1.0
C      1  0.4692740000000  0.4481080000000  0.4452830000000 1.0
C      1  0.4993020000000  0.5007330000000  0.5252410000000 1.0
C      1  0.4479940000000  0.4873480000000  0.5840450000000 1.0
C      1  0.4601080000000  0.4687950000000  0.4235590000000 1.0
C      1  0.4026440000000  0.4658570000000  0.4726120000000 1.0
C      1  0.4895120000000  0.5867980000000  0.5184730000000 1.0
C      1  0.4882070000000  0.4525110000000  0.5373730000000 1.0
C      1  0.5484230000000  0.4933430000000  0.4865600000000 1.0
C      1  0.5580790000000  0.4825340000000  0.5324300000000 1.0
C      1  0.4907240000000  0.4252060000000  0.4362320000000 1.0
C      1  0.5095080000000  0.5166280000000  0.5751620000000 1.0
C      1  0.4433190000000  0.5454020000000  0.4904380000000 1.0
C      1  0.5002340000000  0.4082410000000  0.4587790000000 1.0
C      1  0.5090170000000  0.4760330000000  0.5409150000000 1.0
C      1  0.4191300000000  0.4895880000000  0.4476200000000 1.0
C      1  0.4486350000000  0.4431320000000  0.4660560000000 1.0
C      1  0.4851780000000  0.4805310000000  0.4152170000000 1.0
C      1  0.4828120000000  0.5694530000000  0.5633550000000 1.0
C      1  0.4772070000000  0.5452420000000  0.5272140000000 1.0
C      1  0.5181500000000  0.4620750000000  0.6000770000000 1.0
C      1  0.4458940000000  0.5762870000000  0.5295480000000 1.0
C      1  0.5721500000000  0.4372880000000  0.4985510000000 1.0
C      1  0.5522660000000  0.5622530000000  0.5418790000000 1.0
C      1  0.4603470000000  0.5062830000000  0.5458220000000 1.0
C      1  0.5679440000000  0.4379930000000  0.4699950000000 1.0
C      1  0.4417870000000  0.5507830000000  0.5408960000000 1.0
C      1  0.5444960000000  0.5062030000000  0.5464500000000 1.0
C      1  0.4160800000000  0.5048020000000  0.5506000000000 1.0
C      1  0.5132870000000  0.4423790000000  0.4243160000000 1.0
C      1  0.4754430000000  0.5323490000000  0.5992280000000 1.0
C      1  0.4866140000000  0.5028340000000  0.3960070000000 1.0
C      1  0.5595310000000  0.4576890000000  0.5773700000000 1.0
C      1  0.5250230000000  0.5635460000000  0.5876450000000 1.0
C      1  0.4159760000000  0.5342750000000  0.5011910000000 1.0
C      1  0.5509270000000  0.4955360000000  0.4556740000000 1.0
C      1  0.4478510000000  0.5101240000000  0.5192980000000 1.0
C      1  0.5238610000000  0.5537880000000  0.5414830000000 1.0
C      1  0.5330740000000  0.4874320000000  0.3948020000000 1.0
C      1  0.4163040000000  0.5156810000000  0.4610330000000 1.0
C      1  0.4373280000000  0.4366890000000  0.5154590000000 1.0
C      1  0.5742290000000  0.4631220000000  0.5504660000000 1.0
C      1  0.5072680000000  0.5615660000000  0.5158630000000 1.0
C      1  0.5126620000000  0.5724820000000  0.5630510000000 1.0
C      1  0.5488790000000  0.4388450000000  0.5362840000000 1.0
C      1  0.4772630000000  0.4836720000000  0.5884180000000 1.0
C      1  0.4823010000000  0.5550650000000  0.4192780000000 1.0
C      1  0.4907270000000  0.5090480000000  0.5965320000000 1.0
C      1  0.5254050000000  0.4114140000000  0.5038610000000 1.0
C      1  0.5166310000000  0.5831400000000  0.4691310000000 1.0
C      1  0.4448820000000  0.5221470000000  0.4141020000000 1.0
C      1  0.4578450000000  0.4515500000000  0.5508790000000 1.0
C      1  0.4263330000000  0.4653200000000  0.5177950000000 1.0
C      1  0.5764870000000  0.4598580000000  0.4532460000000 1.0
C      1  0.5181330000000  0.5201890000000  0.4253780000000 1.0
C      1  0.5469600000000  0.6059840000000  0.5414250000000 1.0
C      1  0.4602550000000  0.5663630000000  0.4356980000000 1.0
C      1  0.5545280000000  0.5481520000000  0.4969220000000 1.0
C      1  0.5586610000000  0.4616220000000  0.4297910000000 1.0
C      1  0.3993390000000  0.5227660000000  0.4817130000000 1.0
C      1  0.4115870000000  0.5215630000000  0.5268370000000 1.0
C      1  0.5306680000000  0.5742230000000  0.4985660000000 1.0
C      1  0.4464620000000  0.5755340000000  0.4993110000000 1.0
C      1  0.5149750000000  0.5087380000000  0.3979630000000 1.0
C      1  0.5313310000000  0.5366850000000  0.5817310000000 1.0
C      1  0.5649980000000  0.5121570000000  0.4236650000000 1.0
C      1  0.5735330000000  0.5331110000000  0.5162130000000 1.0
C      1  0.5250350000000  0.5757120000000  0.4409410000000 1.0
END
