TITL C-3577090-796-754 -6.67387796790588e-07 125000 -1207.60487060655 0 0 190 (C1) n - 1
REM
REM in /home/bkarasulu/work/CARBON/AIRSS/Generating-Clusters/EDIP-Nigel-Params/with-SteepDescent/Higher-Symm/SD-CG/HFTN-CG
REM
REM
REM
REM
REM
REM ./C.cell (12c818d87b63d06a65506943cc24bca4)
REM
REM compiler GCC version 9.2.1 20190827 (Red Hat 9.2.1-1)
REM options -cpp -mtune=generic -march=x86-64 -g -O0 -fpre-include=/usr/include/finclude/math-vector-fortran.h
REM seed -1226337304 597106425 358690110 1758346774 -311420688 1293599442 1720908917 -1758564656 1754289922 1975730475 1544183283 -1264899245 -1952815986 999363168 1010866548 -588100902 -1653754536 1790690162 -1222162766 1763031909 1019344951 -1846114454 331487962 1638208809 -1712535134 -99032743 2092972996 -894542621 -1727197007 409658929 574431885 2038028293 -1703079821
REM
CELL 1.54180   50.00000   50.00000   50.00000   90.00000   90.00000   90.00000
LATT -1
SFAC C  
C      1  0.5723460000000  0.4808670000000  0.5843950000000 1.0
C      1  0.4792490000000  0.5880130000000  0.5746980000000 1.0
C      1  0.5840770000000  0.5764780000000  0.4810730000000 1.0
C      1  0.4259420000000  0.5209310000000  0.5893710000000 1.0
C      1  0.5737750000000  0.5186790000000  0.4175970000000 1.0
C      1  0.4311150000000  0.4833580000000  0.4205860000000 1.0
C      1  0.5181930000000  0.4146390000000  0.5709900000000 1.0
C      1  0.4798920000000  0.4125320000000  0.4265010000000 1.0
C      1  0.5189010000000  0.5855630000000  0.4273520000000 1.0
C      1  0.4129230000000  0.4272580000000  0.4827180000000 1.0
C      1  0.5854890000000  0.4272740000000  0.5177880000000 1.0
C      1  0.4158250000000  0.5714410000000  0.5205960000000 1.0
C      1  0.5335360000000  0.5040000000000  0.5998170000000 1.0
C      1  0.5008130000000  0.6130360000000  0.5381860000000 1.0
C      1  0.6070940000000  0.5435710000000  0.5060320000000 1.0
C      1  0.4661040000000  0.4976540000000  0.5968510000000 1.0
C      1  0.5405470000000  0.4962640000000  0.3906150000000 1.0
C      1  0.4688660000000  0.5046230000000  0.4030660000000 1.0
C      1  0.4937480000000  0.3915670000000  0.5380770000000 1.0
C      1  0.5034790000000  0.4039950000000  0.4672020000000 1.0
C      1  0.4952350000000  0.6039880000000  0.4659290000000 1.0
C      1  0.3927240000000  0.4631870000000  0.5086090000000 1.0
C      1  0.6094830000000  0.4634960000000  0.4973760000000 1.0
C      1  0.3914230000000  0.5383890000000  0.4972430000000 1.0
C      1  0.5024090000000  0.5769710000000  0.5235930000000 1.0
C      1  0.5872100000000  0.5203530000000  0.5045760000000 1.0
C      1  0.5238370000000  0.5100660000000  0.5713770000000 1.0
C      1  0.4948840000000  0.4111830000000  0.5148120000000 1.0
C      1  0.5072320000000  0.4352230000000  0.4728820000000 1.0
C      1  0.4953620000000  0.5762870000000  0.4800800000000 1.0
C      1  0.3930910000000  0.4923430000000  0.5143770000000 1.0
C      1  0.5664490000000  0.4733240000000  0.4967270000000 1.0
C      1  0.4400360000000  0.5220860000000  0.5010280000000 1.0
C      1  0.4695650000000  0.4975460000000  0.5651290000000 1.0
C      1  0.5080920000000  0.4837090000000  0.4291100000000 1.0
C      1  0.4869020000000  0.5050810000000  0.4284130000000 1.0
C      1  0.5070470000000  0.5327390000000  0.3980080000000 1.0
C      1  0.5391080000000  0.4052320000000  0.5004220000000 1.0
C      1  0.3921830000000  0.5021840000000  0.5440600000000 1.0
C      1  0.5000430000000  0.4617920000000  0.3921830000000 1.0
C      1  0.5001150000000  0.4668890000000  0.5915660000000 1.0
C      1  0.4971300000000  0.5383040000000  0.6021470000000 1.0
C      1  0.4632270000000  0.6023150000000  0.5045080000000 1.0
C      1  0.5330740000000  0.6044080000000  0.4969010000000 1.0
C      1  0.4554030000000  0.3910090000000  0.4968110000000 1.0
C      1  0.6049540000000  0.4959600000000  0.5361230000000 1.0
C      1  0.4038930000000  0.5010020000000  0.4666900000000 1.0
C      1  0.5994750000000  0.5013690000000  0.4659030000000 1.0
C      1  0.4601110000000  0.4332600000000  0.4205920000000 1.0
C      1  0.4329080000000  0.4206480000000  0.4622550000000 1.0
C      1  0.4218760000000  0.4622930000000  0.4381160000000 1.0
C      1  0.5391690000000  0.5649940000000  0.4215640000000 1.0
C      1  0.4601730000000  0.5671490000000  0.5812330000000 1.0
C      1  0.5378600000000  0.4351750000000  0.5759320000000 1.0
C      1  0.5635130000000  0.5804410000000  0.4612750000000 1.0
C      1  0.4354780000000  0.5784380000000  0.5402090000000 1.0
C      1  0.5664660000000  0.4195830000000  0.5387540000000 1.0
C      1  0.5797450000000  0.5399450000000  0.4365710000000 1.0
C      1  0.4200170000000  0.5403140000000  0.5685740000000 1.0
C      1  0.5780190000000  0.4614700000000  0.5638410000000 1.0
C      1  0.5105420000000  0.4203640000000  0.4248330000000 1.0
C      1  0.4193140000000  0.4233720000000  0.5121380000000 1.0
C      1  0.4311560000000  0.5120390000000  0.4298180000000 1.0
C      1  0.4897370000000  0.5786230000000  0.4250450000000 1.0
C      1  0.5085540000000  0.5839300000000  0.5787920000000 1.0
C      1  0.4898270000000  0.4209070000000  0.5718860000000 1.0
C      1  0.5746100000000  0.5760280000000  0.5091290000000 1.0
C      1  0.4219600000000  0.5737860000000  0.4912690000000 1.0
C      1  0.5802470000000  0.4254490000000  0.4873680000000 1.0
C      1  0.5743330000000  0.4892440000000  0.4251220000000 1.0
C      1  0.4225770000000  0.4920150000000  0.5836210000000 1.0
C      1  0.5736460000000  0.5099100000000  0.5773220000000 1.0
C      1  0.5230010000000  0.5985180000000  0.5550870000000 1.0
C      1  0.5927430000000  0.5587900000000  0.5263550000000 1.0
C      1  0.5554500000000  0.5268180000000  0.5971900000000 1.0
C      1  0.4729030000000  0.4013840000000  0.5568720000000 1.0
C      1  0.5249600000000  0.3995080000000  0.4454580000000 1.0
C      1  0.4741960000000  0.5962820000000  0.4458300000000 1.0
C      1  0.4039280000000  0.4450240000000  0.5286640000000 1.0
C      1  0.6031040000000  0.4452610000000  0.4747930000000 1.0
C      1  0.4000620000000  0.5571650000000  0.4762840000000 1.0
C      1  0.4450210000000  0.4746350000000  0.5940270000000 1.0
C      1  0.5582470000000  0.4751520000000  0.4015740000000 1.0
C      1  0.4479430000000  0.5255200000000  0.4071780000000 1.0
C      1  0.5125370000000  0.4423120000000  0.4448270000000 1.0
C      1  0.4495790000000  0.4325880000000  0.5165430000000 1.0
C      1  0.4473600000000  0.5130720000000  0.4546810000000 1.0
C      1  0.4860200000000  0.5506460000000  0.4392910000000 1.0
C      1  0.5176520000000  0.5520450000000  0.5587850000000 1.0
C      1  0.4793810000000  0.4552690000000  0.5461170000000 1.0
C      1  0.5406880000000  0.5575000000000  0.5097940000000 1.0
C      1  0.4480650000000  0.5564830000000  0.4873160000000 1.0
C      1  0.5595190000000  0.4462790000000  0.4833490000000 1.0
C      1  0.5561850000000  0.4860900000000  0.4485690000000 1.0
C      1  0.4433710000000  0.4879640000000  0.5448570000000 1.0
C      1  0.5571640000000  0.5110020000000  0.5420550000000 1.0
C      1  0.5341060000000  0.5448790000000  0.4003000000000 1.0
C      1  0.5449210000000  0.4018490000000  0.5300540000000 1.0
C      1  0.4001180000000  0.5321400000000  0.5481750000000 1.0
C      1  0.4708680000000  0.4555240000000  0.4022770000000 1.0
C      1  0.5287360000000  0.4567690000000  0.5926870000000 1.0
C      1  0.4680340000000  0.5473710000000  0.6017380000000 1.0
C      1  0.4534450000000  0.6002000000000  0.5330920000000 1.0
C      1  0.5437290000000  0.6012330000000  0.4682500000000 1.0
C      1  0.4496170000000  0.3965720000000  0.4668180000000 1.0
C      1  0.5999450000000  0.4674360000000  0.5455750000000 1.0
C      1  0.4026750000000  0.4712470000000  0.4589900000000 1.0
C      1  0.5979620000000  0.5323300000000  0.4583170000000 1.0
C      1  0.5622360000000  0.5215350000000  0.4855660000000 1.0
C      1  0.5187930000000  0.4903490000000  0.5507090000000 1.0
C      1  0.4808240000000  0.5333580000000  0.5301040000000 1.0
C      1  0.4442720000000  0.4754830000000  0.4830020000000 1.0
C      1  0.5373760000000  0.4783110000000  0.5073670000000 1.0
C      1  0.4697120000000  0.5219880000000  0.5043470000000 1.0
C      1  0.4791040000000  0.5231740000000  0.5571770000000 1.0
C      1  0.5242970000000  0.5209340000000  0.4504540000000 1.0
C      1  0.4714510000000  0.4683380000000  0.4568250000000 1.0
C      1  0.5263740000000  0.4512310000000  0.5177470000000 1.0
C      1  0.4835270000000  0.4549880000000  0.4819430000000 1.0
C      1  0.5119500000000  0.5283590000000  0.4759960000000 1.0
C      1  0.5424860000000  0.5515510000000  0.5888810000000 1.0
C      1  0.5421680000000  0.5833380000000  0.5393360000000 1.0
C      1  0.5821570000000  0.5402970000000  0.5459320000000 1.0
C      1  0.4562410000000  0.4533560000000  0.5773190000000 1.0
C      1  0.5455280000000  0.4502170000000  0.4024730000000 1.0
C      1  0.4609220000000  0.5506240000000  0.4091830000000 1.0
C      1  0.4468020000000  0.4057260000000  0.5440310000000 1.0
C      1  0.5512300000000  0.3992200000000  0.4550340000000 1.0
C      1  0.4522730000000  0.5846410000000  0.4605650000000 1.0
C      1  0.4171440000000  0.4601020000000  0.5498880000000 1.0
C      1  0.6043000000000  0.4567920000000  0.4493110000000 1.0
C      1  0.4012720000000  0.5461910000000  0.4506280000000 1.0
C      1  0.4960230000000  0.4816320000000  0.4911430000000 1.0
C      1  0.4482490000000  0.4613640000000  0.5081250000000 1.0
C      1  0.4731070000000  0.5003020000000  0.4554090000000 1.0
C      1  0.4972660000000  0.5522410000000  0.4661790000000 1.0
C      1  0.5043530000000  0.5503070000000  0.5328420000000 1.0
C      1  0.5003240000000  0.4405160000000  0.5263530000000 1.0
C      1  0.5359950000000  0.5290770000000  0.4984170000000 1.0
C      1  0.4874020000000  0.5091190000000  0.4819820000000 1.0
C      1  0.5226840000000  0.4819860000000  0.4813640000000 1.0
C      1  0.5277950000000  0.4921540000000  0.4520710000000 1.0
C      1  0.4627100000000  0.4733570000000  0.5285410000000 1.0
C      1  0.5322150000000  0.5022940000000  0.5263360000000 1.0
C      1  0.5973870000000  0.5181940000000  0.5580380000000 1.0
C      1  0.5177610000000  0.5619430000000  0.6008760000000 1.0
C      1  0.5549720000000  0.5981870000000  0.5180720000000 1.0
C      1  0.4041110000000  0.4819860000000  0.5631520000000 1.0
C      1  0.6010170000000  0.4830510000000  0.4407390000000 1.0
C      1  0.4038900000000  0.5198020000000  0.4421890000000 1.0
C      1  0.4804810000000  0.4432440000000  0.5880910000000 1.0
C      1  0.5193420000000  0.4403650000000  0.4009200000000 1.0
C      1  0.4858730000000  0.5548840000000  0.3953640000000 1.0
C      1  0.4355980000000  0.3916830000000  0.5199730000000 1.0
C      1  0.5622370000000  0.4002060000000  0.4807060000000 1.0
C      1  0.4403960000000  0.5993780000000  0.4830020000000 1.0
C      1  0.4720460000000  0.5734500000000  0.4996740000000 1.0
C      1  0.5697640000000  0.4941330000000  0.4733400000000 1.0
C      1  0.4935500000000  0.4776490000000  0.5624700000000 1.0
C      1  0.5335430000000  0.4351110000000  0.4934700000000 1.0
C      1  0.4694240000000  0.4170240000000  0.5005110000000 1.0
C      1  0.5196030000000  0.5769310000000  0.4990440000000 1.0
C      1  0.4331610000000  0.5028150000000  0.4776640000000 1.0
C      1  0.5775530000000  0.4985180000000  0.5234300000000 1.0
C      1  0.4271390000000  0.5098690000000  0.5279620000000 1.0
C      1  0.5029940000000  0.5302800000000  0.5727640000000 1.0
C      1  0.5037290000000  0.5289260000000  0.4287220000000 1.0
C      1  0.4917890000000  0.4600660000000  0.4349410000000 1.0
C      1  0.4750740000000  0.6056720000000  0.5516340000000 1.0
C      1  0.6034220000000  0.5540880000000  0.4784020000000 1.0
C      1  0.5474110000000  0.4778540000000  0.5992600000000 1.0
C      1  0.5221980000000  0.3953960000000  0.5493340000000 1.0
C      1  0.4764320000000  0.3982970000000  0.4525240000000 1.0
C      1  0.5210240000000  0.6037000000000  0.4505610000000 1.0
C      1  0.3992740000000  0.4530900000000  0.4817190000000 1.0
C      1  0.5975640000000  0.4530370000000  0.5209740000000 1.0
C      1  0.4023890000000  0.5463530000000  0.5228960000000 1.0
C      1  0.4513490000000  0.5230050000000  0.6039940000000 1.0
C      1  0.5520940000000  0.5220850000000  0.3986950000000 1.0
C      1  0.4536880000000  0.4795350000000  0.4021690000000 1.0
C      1  0.4992880000000  0.4998670000000  0.6071330000000 1.0
C      1  0.5103220000000  0.4935640000000  0.3921400000000 1.0
C      1  0.5118750000000  0.3955320000000  0.4944080000000 1.0
C      1  0.4969480000000  0.6147660000000  0.5035060000000 1.0
C      1  0.6120030000000  0.4934480000000  0.4964360000000 1.0
C      1  0.3880230000000  0.5098850000000  0.4909770000000 1.0
C      1  0.5643230000000  0.5651840000000  0.4363230000000 1.0
C      1  0.4353470000000  0.5651220000000  0.5661710000000 1.0
C      1  0.4357900000000  0.4363910000000  0.4377810000000 1.0
C      1  0.5640890000000  0.4357530000000  0.5632460000000 1.0
END
