TITL C-3578194-7807-144 -9.9475178070606e-08 125000 -575.835479666818 0 0 94 (C1) n - 1
REM
REM in /home/bkarasulu/work/CARBON/AIRSS/Generating-Clusters/EDIP-Nigel-Params/with-SteepDescent/Higher-Symm/SD-CG/HFTN-CG
REM
REM
REM
REM
REM
REM ./C.cell (12c818d87b63d06a65506943cc24bca4)
REM
REM compiler GCC version 9.2.1 20190827 (Red Hat 9.2.1-1)
REM options -cpp -mtune=generic -march=x86-64 -g -O0 -fpre-include=/usr/include/finclude/math-vector-fortran.h
REM seed 2082119294 -833142542 -1387377548 -985754504 193640607 -622038100 111752361 -1248581287 235129215 225741140 1038513878 1562797966 1751027635 -515075182 711814725 1390546412 -823970101 -1866862889 1622031939 -1190419868 -1669780897 -1314488705 1785948630 1006051416 1945098466 1034475803 -724152453 -1976873684 704642555 -1173234027 32909030 -66151400 -309305298
REM
CELL 1.54180   50.00000   50.00000   50.00000   90.00000   90.00000   90.00000
LATT -1
SFAC C  
C      1  0.5633710000000  0.4856770000000  0.4183130000000 1.0
C      1  0.5436870000000  0.5572780000000  0.4706040000000 1.0
C      1  0.5474720000000  0.5586990000000  0.5552100000000 1.0
C      1  0.5388190000000  0.4537140000000  0.5696710000000 1.0
C      1  0.5469520000000  0.4203830000000  0.4795190000000 1.0
C      1  0.4791540000000  0.4813210000000  0.4313230000000 1.0
C      1  0.4745950000000  0.5825640000000  0.4680990000000 1.0
C      1  0.4711610000000  0.5701180000000  0.5687650000000 1.0
C      1  0.4762420000000  0.4662170000000  0.5658390000000 1.0
C      1  0.4863730000000  0.4097590000000  0.4704780000000 1.0
C      1  0.4852760000000  0.4192280000000  0.5437570000000 1.0
C      1  0.4984410000000  0.4369830000000  0.4322680000000 1.0
C      1  0.4886990000000  0.5290200000000  0.4194940000000 1.0
C      1  0.4891800000000  0.5879640000000  0.5122760000000 1.0
C      1  0.4951860000000  0.5264520000000  0.5859560000000 1.0
C      1  0.5020560000000  0.5363270000000  0.4696340000000 1.0
C      1  0.5101580000000  0.5170000000000  0.5125630000000 1.0
C      1  0.5077940000000  0.4817430000000  0.5392200000000 1.0
C      1  0.5202770000000  0.4551200000000  0.4988280000000 1.0
C      1  0.5047630000000  0.4923340000000  0.4762240000000 1.0
C      1  0.4313990000000  0.4867260000000  0.4492540000000 1.0
C      1  0.4414570000000  0.5363540000000  0.4784590000000 1.0
C      1  0.4408240000000  0.5546770000000  0.5498100000000 1.0
C      1  0.4469010000000  0.4784930000000  0.5445950000000 1.0
C      1  0.4440300000000  0.4416630000000  0.4831910000000 1.0
C      1  0.4469840000000  0.5097990000000  0.4435170000000 1.0
C      1  0.4500690000000  0.5539480000000  0.5011480000000 1.0
C      1  0.4539780000000  0.5308920000000  0.5587980000000 1.0
C      1  0.4505010000000  0.4522890000000  0.5328980000000 1.0
C      1  0.4549210000000  0.4430980000000  0.4563230000000 1.0
C      1  0.5333900000000  0.4923760000000  0.4678090000000 1.0
C      1  0.5311080000000  0.5313360000000  0.4637910000000 1.0
C      1  0.5387340000000  0.5120990000000  0.5139960000000 1.0
C      1  0.5380050000000  0.4914400000000  0.5386000000000 1.0
C      1  0.5503610000000  0.4662320000000  0.5025390000000 1.0
C      1  0.4483950000000  0.4997330000000  0.5236080000000 1.0
C      1  0.4280390000000  0.4644240000000  0.4919020000000 1.0
C      1  0.4201910000000  0.4878440000000  0.4758750000000 1.0
C      1  0.4198870000000  0.5165200000000  0.4886630000000 1.0
C      1  0.4295920000000  0.5486990000000  0.5234760000000 1.0
C      1  0.5195530000000  0.5671970000000  0.5538980000000 1.0
C      1  0.5256920000000  0.4766270000000  0.5788980000000 1.0
C      1  0.5252780000000  0.4254540000000  0.4999220000000 1.0
C      1  0.5406970000000  0.4697340000000  0.4229420000000 1.0
C      1  0.5219230000000  0.5746100000000  0.4617630000000 1.0
C      1  0.4818260000000  0.4095990000000  0.5174860000000 1.0
C      1  0.4914660000000  0.4600160000000  0.4138890000000 1.0
C      1  0.4877140000000  0.5544980000000  0.4325770000000 1.0
C      1  0.4873290000000  0.6015720000000  0.5370130000000 1.0
C      1  0.4900530000000  0.5005840000000  0.5960850000000 1.0
C      1  0.4671380000000  0.5076750000000  0.4218600000000 1.0
C      1  0.4649730000000  0.5818970000000  0.4946270000000 1.0
C      1  0.4701370000000  0.5427960000000  0.5810050000000 1.0
C      1  0.4655010000000  0.4396090000000  0.5550930000000 1.0
C      1  0.4758520000000  0.4233810000000  0.4479750000000 1.0
C      1  0.5150210000000  0.4814710000000  0.4121310000000 1.0
C      1  0.4952940000000  0.5752850000000  0.4505360000000 1.0
C      1  0.4940710000000  0.5819890000000  0.5561160000000 1.0
C      1  0.4968550000000  0.4760610000000  0.5848690000000 1.0
C      1  0.4988470000000  0.4105650000000  0.4953600000000 1.0
C      1  0.4966380000000  0.5101610000000  0.5382490000000 1.0
C      1  0.5002430000000  0.4587370000000  0.5217350000000 1.0
C      1  0.4922910000000  0.4660960000000  0.4739430000000 1.0
C      1  0.4896880000000  0.5115620000000  0.4599910000000 1.0
C      1  0.4983640000000  0.5403870000000  0.4997560000000 1.0
C      1  0.5567760000000  0.4681830000000  0.5313580000000 1.0
C      1  0.5699170000000  0.4500420000000  0.4880210000000 1.0
C      1  0.5787980000000  0.5116040000000  0.4583970000000 1.0
C      1  0.5763080000000  0.5325580000000  0.5047010000000 1.0
C      1  0.5751360000000  0.5268650000000  0.5325710000000 1.0
C      1  0.4682470000000  0.4568270000000  0.5087070000000 1.0
C      1  0.4654060000000  0.4708490000000  0.4567410000000 1.0
C      1  0.4602380000000  0.5123710000000  0.4706260000000 1.0
C      1  0.4713540000000  0.5383220000000  0.5113670000000 1.0
C      1  0.4677940000000  0.5196170000000  0.5342440000000 1.0
C      1  0.5587130000000  0.5316230000000  0.5553150000000 1.0
C      1  0.5515990000000  0.4433610000000  0.5464250000000 1.0
C      1  0.5578170000000  0.4429650000000  0.4627890000000 1.0
C      1  0.5612750000000  0.5066440000000  0.4367970000000 1.0
C      1  0.5498100000000  0.5475280000000  0.4999300000000 1.0
C      1  0.5382890000000  0.5096870000000  0.5640500000000 1.0
C      1  0.5326230000000  0.4237430000000  0.5309590000000 1.0
C      1  0.5371660000000  0.4634530000000  0.4521430000000 1.0
C      1  0.5367630000000  0.5223050000000  0.4364610000000 1.0
C      1  0.5378840000000  0.5679260000000  0.5196490000000 1.0
C      1  0.5090000000000  0.5660690000000  0.5109280000000 1.0
C      1  0.5113680000000  0.5248690000000  0.5608500000000 1.0
C      1  0.5079910000000  0.4375090000000  0.5424100000000 1.0
C      1  0.5109740000000  0.4494930000000  0.4563660000000 1.0
C      1  0.5113890000000  0.5099420000000  0.4268300000000 1.0
C      1  0.5769110000000  0.5082080000000  0.4863040000000 1.0
C      1  0.5506280000000  0.4946420000000  0.4922040000000 1.0
C      1  0.4232830000000  0.5180640000000  0.5185140000000 1.0
C      1  0.4587640000000  0.4866970000000  0.4965990000000 1.0
END
