TITL C-3578202-4305-433 -2.03007572303764e-06 125000 -487.211224843366 0 0 81 (C1) n - 1
REM
REM in /home/bkarasulu/work/CARBON/AIRSS/Generating-Clusters/EDIP-Nigel-Params/with-SteepDescent/Higher-Symm/SD-CG/HFTN-CG
REM
REM
REM
REM
REM
REM ./C.cell (12c818d87b63d06a65506943cc24bca4)
REM
REM compiler GCC version 9.2.1 20190827 (Red Hat 9.2.1-1)
REM options -cpp -mtune=generic -march=x86-64 -g -O0 -fpre-include=/usr/include/finclude/math-vector-fortran.h
REM seed -1350617712 1927862028 1156931702 -413880638 1756976250 -1783195879 -319193606 -1714987329 -1895553207 1766596641 -1434095823 -807081162 749739827 -751052935 -1068493567 1093971592 -1015430015 586405550 15407938 -430451851 875522079 687418222 805587795 -1551704735 996571577 422798992 2099895023 500714764 -692722065 -1241382649 284641900 -561254211 399553853
REM
CELL 1.54180   50.00000   50.00000   50.00000   90.00000   90.00000   90.00000
LATT -1
SFAC C  
C      1  0.5216700000000  0.5630660000000  0.4529290000000 1.0
C      1  0.5183890000000  0.4332400000000  0.4714620000000 1.0
C      1  0.5225010000000  0.5092540000000  0.5781420000000 1.0
C      1  0.4292460000000  0.4667870000000  0.5229200000000 1.0
C      1  0.4300620000000  0.5356260000000  0.5159270000000 1.0
C      1  0.4284530000000  0.4953920000000  0.4586940000000 1.0
C      1  0.5235310000000  0.5360940000000  0.4777750000000 1.0
C      1  0.5273730000000  0.4624920000000  0.4780010000000 1.0
C      1  0.5239510000000  0.5003700000000  0.5423670000000 1.0
C      1  0.4714230000000  0.4622550000000  0.5544630000000 1.0
C      1  0.4714010000000  0.5648810000000  0.5060460000000 1.0
C      1  0.4700860000000  0.4727920000000  0.4400650000000 1.0
C      1  0.4924360000000  0.4372520000000  0.4562510000000 1.0
C      1  0.4958130000000  0.4936930000000  0.5758070000000 1.0
C      1  0.4949600000000  0.5684390000000  0.4677770000000 1.0
C      1  0.4739000000000  0.5063810000000  0.5599980000000 1.0
C      1  0.4732680000000  0.5480700000000  0.4647420000000 1.0
C      1  0.4698430000000  0.4448740000000  0.4747420000000 1.0
C      1  0.5166960000000  0.4756410000000  0.4341270000000 1.0
C      1  0.5174440000000  0.4546960000000  0.5533990000000 1.0
C      1  0.5173720000000  0.5685720000000  0.5122150000000 1.0
C      1  0.5338130000000  0.4214860000000  0.5223080000000 1.0
C      1  0.5350220000000  0.5586040000000  0.5567930000000 1.0
C      1  0.5344410000000  0.5203330000000  0.4215080000000 1.0
C      1  0.5146370000000  0.5377910000000  0.5074100000000 1.0
C      1  0.5148430000000  0.4864340000000  0.4630410000000 1.0
C      1  0.5147550000000  0.4738800000000  0.5287960000000 1.0
C      1  0.4421380000000  0.4943370000000  0.5239990000000 1.0
C      1  0.4442730000000  0.5181820000000  0.4930620000000 1.0
C      1  0.4408520000000  0.4870160000000  0.4857990000000 1.0
C      1  0.4043880000000  0.5300130000000  0.5199970000000 1.0
C      1  0.4023090000000  0.4999980000000  0.4590430000000 1.0
C      1  0.4038920000000  0.4657740000000  0.5151880000000 1.0
C      1  0.4879600000000  0.5701400000000  0.5527900000000 1.0
C      1  0.4876800000000  0.5107870000000  0.4132360000000 1.0
C      1  0.4869090000000  0.4189440000000  0.5354090000000 1.0
C      1  0.5689920000000  0.4689860000000  0.4512430000000 1.0
C      1  0.5643800000000  0.4737590000000  0.5547970000000 1.0
C      1  0.5641020000000  0.5596540000000  0.4947640000000 1.0
C      1  0.5153450000000  0.4984440000000  0.4141190000000 1.0
C      1  0.5150980000000  0.4255610000000  0.5452780000000 1.0
C      1  0.5156830000000  0.5757020000000  0.5416630000000 1.0
C      1  0.5176040000000  0.5443000000000  0.4288610000000 1.0
C      1  0.5152780000000  0.4194180000000  0.4982680000000 1.0
C      1  0.5180910000000  0.5393520000000  0.5728140000000 1.0
C      1  0.4437780000000  0.5120610000000  0.4401890000000 1.0
C      1  0.4441220000000  0.4419890000000  0.5208780000000 1.0
C      1  0.4446220000000  0.5451570000000  0.5396450000000 1.0
C      1  0.5587160000000  0.5530060000000  0.5418890000000 1.0
C      1  0.5591000000000  0.5117890000000  0.4331380000000 1.0
C      1  0.5581970000000  0.4364410000000  0.5252660000000 1.0
C      1  0.4705060000000  0.4732030000000  0.4876300000000 1.0
C      1  0.4717890000000  0.5017560000000  0.5296870000000 1.0
C      1  0.4730580000000  0.5231530000000  0.4830910000000 1.0
C      1  0.5329870000000  0.5095780000000  0.4688830000000 1.0
C      1  0.5341150000000  0.4681260000000  0.5060800000000 1.0
C      1  0.5333300000000  0.5212880000000  0.5239330000000 1.0
C      1  0.4670210000000  0.5618230000000  0.5335210000000 1.0
C      1  0.4665800000000  0.4984780000000  0.4297170000000 1.0
C      1  0.4661680000000  0.4396780000000  0.5388690000000 1.0
C      1  0.4879480000000  0.4114870000000  0.5068420000000 1.0
C      1  0.4902700000000  0.5503740000000  0.5745330000000 1.0
C      1  0.4896200000000  0.5396170000000  0.4189170000000 1.0
C      1  0.5511110000000  0.4519780000000  0.4634970000000 1.0
C      1  0.5476110000000  0.4952490000000  0.5616730000000 1.0
C      1  0.5471690000000  0.5554410000000  0.4727390000000 1.0
C      1  0.5705830000000  0.4614800000000  0.5304580000000 1.0
C      1  0.5705570000000  0.5448520000000  0.5175680000000 1.0
C      1  0.5723420000000  0.4963900000000  0.4527320000000 1.0
C      1  0.4843660000000  0.5286680000000  0.5106310000000 1.0
C      1  0.4843890000000  0.4935260000000  0.4695190000000 1.0
C      1  0.4839510000000  0.4752260000000  0.5201490000000 1.0
C      1  0.4669110000000  0.5422490000000  0.4371860000000 1.0
C      1  0.4646290000000  0.4241690000000  0.4943270000000 1.0
C      1  0.4675570000000  0.5334140000000  0.5677220000000 1.0
C      1  0.5607700000000  0.5172720000000  0.5143280000000 1.0
C      1  0.5601110000000  0.5035250000000  0.4782920000000 1.0
C      1  0.5613390000000  0.4790130000000  0.5083780000000 1.0
C      1  0.4944150000000  0.5782170000000  0.4959080000000 1.0
C      1  0.4929980000000  0.4571610000000  0.4337750000000 1.0
C      1  0.4949650000000  0.4644060000000  0.5703700000000 1.0
END
