TITL C-3578198-8939-240 6.67080070808588e-06 125000 -1093.01680780575 0 0 174 (C1) n - 1
REM
REM in /home/bkarasulu/work/CARBON/AIRSS/Generating-Clusters/EDIP-Nigel-Params/with-SteepDescent/Higher-Symm/SD-CG/HFTN-CG
REM
REM
REM
REM
REM
REM ./C.cell (12c818d87b63d06a65506943cc24bca4)
REM
REM compiler GCC version 9.2.1 20190827 (Red Hat 9.2.1-1)
REM options -cpp -mtune=generic -march=x86-64 -g -O0 -fpre-include=/usr/include/finclude/math-vector-fortran.h
REM seed -549358205 -1901085051 1659889033 713187371 539809595 -276634894 -315454883 1353879905 1268183167 1963336917 1164505813 -508677915 162116784 864031048 -1945717934 1945623678 -750883166 -534778023 -1075054769 873491418 -274246986 1417182905 11165029 13660374 479082835 -1600343510 1417445777 -1401319315 131959144 829105602 -1907440080 2126276763 2018001479
REM
CELL 1.54180   50.00000   50.00000   50.00000   90.00000   90.00000   90.00000
LATT -1
SFAC C  
C      1  0.5940000000000  0.5454080000000  0.4898990000000 1.0
C      1  0.4051740000000  0.4565730000000  0.5081530000000 1.0
C      1  0.4327450000000  0.5449910000000  0.5288680000000 1.0
C      1  0.5805550000000  0.4462330000000  0.4704630000000 1.0
C      1  0.4793280000000  0.5606980000000  0.4995760000000 1.0
C      1  0.5191710000000  0.4368760000000  0.5013690000000 1.0
C      1  0.4852930000000  0.4040940000000  0.4237620000000 1.0
C      1  0.5130960000000  0.5952580000000  0.5752460000000 1.0
C      1  0.5011620000000  0.5690230000000  0.5874450000000 1.0
C      1  0.4978560000000  0.4306260000000  0.4115130000000 1.0
C      1  0.5370510000000  0.4971180000000  0.5578880000000 1.0
C      1  0.4625270000000  0.5024090000000  0.4429500000000 1.0
C      1  0.5370910000000  0.5903480000000  0.5340870000000 1.0
C      1  0.4619560000000  0.4094590000000  0.4656260000000 1.0
C      1  0.5755080000000  0.5535990000000  0.5646280000000 1.0
C      1  0.4239470000000  0.4469800000000  0.4344810000000 1.0
C      1  0.3944160000000  0.4835280000000  0.5509370000000 1.0
C      1  0.5999690000000  0.5159620000000  0.4506730000000 1.0
C      1  0.4812090000000  0.4518640000000  0.5891580000000 1.0
C      1  0.5185600000000  0.5465700000000  0.4121090000000 1.0
C      1  0.5448540000000  0.5321180000000  0.4944990000000 1.0
C      1  0.4553480000000  0.4668470000000  0.5065660000000 1.0
C      1  0.4393130000000  0.4911510000000  0.5563990000000 1.0
C      1  0.5579090000000  0.5060700000000  0.4418320000000 1.0
C      1  0.4850630000000  0.5990040000000  0.4535780000000 1.0
C      1  0.5183640000000  0.4064780000000  0.5441190000000 1.0
C      1  0.4109230000000  0.5249290000000  0.5336830000000 1.0
C      1  0.5886320000000  0.4747280000000  0.4673600000000 1.0
C      1  0.4788140000000  0.5256600000000  0.4316550000000 1.0
C      1  0.5211600000000  0.4723250000000  0.5674040000000 1.0
C      1  0.4859690000000  0.5623240000000  0.5434810000000 1.0
C      1  0.5124170000000  0.4374410000000  0.4553630000000 1.0
C      1  0.5490780000000  0.5158830000000  0.6024880000000 1.0
C      1  0.4501880000000  0.4844650000000  0.3979100000000 1.0
C      1  0.4395910000000  0.5379540000000  0.5893590000000 1.0
C      1  0.5606080000000  0.4633310000000  0.4126400000000 1.0
C      1  0.4862100000000  0.4354530000000  0.5639890000000 1.0
C      1  0.5104290000000  0.5613640000000  0.4390200000000 1.0
C      1  0.4646760000000  0.5130050000000  0.4928540000000 1.0
C      1  0.5363390000000  0.4865720000000  0.5069490000000 1.0
C      1  0.5352920000000  0.5936290000000  0.4712010000000 1.0
C      1  0.4649080000000  0.4056030000000  0.5279310000000 1.0
C      1  0.4805230000000  0.5548560000000  0.5703290000000 1.0
C      1  0.5188220000000  0.4449590000000  0.4287550000000 1.0
C      1  0.4920320000000  0.5039540000000  0.3959830000000 1.0
C      1  0.5074830000000  0.4956100000000  0.6019480000000 1.0
C      1  0.4635750000000  0.4246200000000  0.5501920000000 1.0
C      1  0.5355690000000  0.5699270000000  0.4535860000000 1.0
C      1  0.5646120000000  0.5856500000000  0.5214230000000 1.0
C      1  0.4339230000000  0.4148670000000  0.4778260000000 1.0
C      1  0.4124060000000  0.5056750000000  0.5565000000000 1.0
C      1  0.5855820000000  0.4914460000000  0.4429360000000 1.0
C      1  0.5233110000000  0.5120550000000  0.4984060000000 1.0
C      1  0.4772020000000  0.4870480000000  0.5022930000000 1.0
C      1  0.4398010000000  0.4789610000000  0.5839510000000 1.0
C      1  0.5588270000000  0.5199690000000  0.4151150000000 1.0
C      1  0.4870470000000  0.5248730000000  0.4750150000000 1.0
C      1  0.5148110000000  0.4740760000000  0.5241370000000 1.0
C      1  0.5483450000000  0.4102120000000  0.5414330000000 1.0
C      1  0.4556140000000  0.5921330000000  0.4581370000000 1.0
C      1  0.4285930000000  0.5560310000000  0.5012430000000 1.0
C      1  0.5807470000000  0.4379180000000  0.4992860000000 1.0
C      1  0.4507240000000  0.5601290000000  0.5754430000000 1.0
C      1  0.5495050000000  0.4412910000000  0.4267910000000 1.0
C      1  0.4771250000000  0.4790500000000  0.4046610000000 1.0
C      1  0.5222420000000  0.5210400000000  0.5954720000000 1.0
C      1  0.4849520000000  0.4826140000000  0.5883010000000 1.0
C      1  0.5148150000000  0.5160690000000  0.4099970000000 1.0
C      1  0.4478710000000  0.4510090000000  0.5827240000000 1.0
C      1  0.5514100000000  0.5481580000000  0.4182570000000 1.0
C      1  0.4965050000000  0.5862040000000  0.4295680000000 1.0
C      1  0.5073000000000  0.4167880000000  0.5686860000000 1.0
C      1  0.5941000000000  0.5412230000000  0.5194010000000 1.0
C      1  0.4123030000000  0.4626060000000  0.4793640000000 1.0
C      1  0.5586210000000  0.4348030000000  0.4546620000000 1.0
C      1  0.4366120000000  0.5688020000000  0.5501770000000 1.0
C      1  0.5372060000000  0.3981230000000  0.4910380000000 1.0
C      1  0.4658100000000  0.6111250000000  0.5092390000000 1.0
C      1  0.5831450000000  0.4530870000000  0.5472330000000 1.0
C      1  0.4203060000000  0.5476070000000  0.4532720000000 1.0
C      1  0.5578220000000  0.5279910000000  0.5230500000000 1.0
C      1  0.4412740000000  0.4716120000000  0.4790470000000 1.0
C      1  0.5794880000000  0.5668710000000  0.4750350000000 1.0
C      1  0.4184820000000  0.4345940000000  0.5236140000000 1.0
C      1  0.5808010000000  0.5629900000000  0.5360790000000 1.0
C      1  0.4167170000000  0.4374910000000  0.4628060000000 1.0
C      1  0.4849510000000  0.5240170000000  0.5717390000000 1.0
C      1  0.5145140000000  0.4756010000000  0.4280160000000 1.0
C      1  0.5378220000000  0.5435120000000  0.5434620000000 1.0
C      1  0.4614340000000  0.4560740000000  0.4565680000000 1.0
C      1  0.5500620000000  0.4072250000000  0.4624880000000 1.0
C      1  0.4492090000000  0.5937000000000  0.5397410000000 1.0
C      1  0.5097220000000  0.5060280000000  0.4727710000000 1.0
C      1  0.4915290000000  0.4922790000000  0.5275870000000 1.0
C      1  0.4784910000000  0.5903100000000  0.5385260000000 1.0
C      1  0.5204070000000  0.4094840000000  0.4574450000000 1.0
C      1  0.5046010000000  0.5950670000000  0.4775930000000 1.0
C      1  0.4955710000000  0.3967240000000  0.5236250000000 1.0
C      1  0.3982850000000  0.4807880000000  0.5228140000000 1.0
C      1  0.6017560000000  0.5205550000000  0.4780480000000 1.0
C      1  0.5044270000000  0.5194100000000  0.5237020000000 1.0
C      1  0.4956580000000  0.4793060000000  0.4770070000000 1.0
C      1  0.5398130000000  0.5884760000000  0.5637120000000 1.0
C      1  0.4591820000000  0.4115120000000  0.4360420000000 1.0
C      1  0.4743190000000  0.4489340000000  0.4085550000000 1.0
C      1  0.5247210000000  0.5510590000000  0.5911470000000 1.0
C      1  0.4050660000000  0.4967850000000  0.4411730000000 1.0
C      1  0.5939140000000  0.5047040000000  0.5566420000000 1.0
C      1  0.4086640000000  0.5053450000000  0.5124030000000 1.0
C      1  0.5755290000000  0.4933940000000  0.4861260000000 1.0
C      1  0.5830470000000  0.5261650000000  0.5723760000000 1.0
C      1  0.4172300000000  0.4747800000000  0.4267180000000 1.0
C      1  0.5609870000000  0.5561040000000  0.4478490000000 1.0
C      1  0.4402860000000  0.4411120000000  0.5548360000000 1.0
C      1  0.5603730000000  0.4351510000000  0.5549890000000 1.0
C      1  0.4454400000000  0.5636370000000  0.4475220000000 1.0
C      1  0.5178470000000  0.5217620000000  0.5516340000000 1.0
C      1  0.4816130000000  0.4776400000000  0.4485710000000 1.0
C      1  0.5008470000000  0.3895880000000  0.4457880000000 1.0
C      1  0.4974970000000  0.6092470000000  0.5529160000000 1.0
C      1  0.5557210000000  0.4969190000000  0.5279120000000 1.0
C      1  0.4426690000000  0.5023010000000  0.4747850000000 1.0
C      1  0.5372190000000  0.4780060000000  0.4055640000000 1.0
C      1  0.4622550000000  0.5210410000000  0.5926350000000 1.0
C      1  0.4425740000000  0.5028740000000  0.4187060000000 1.0
C      1  0.5576650000000  0.4984550000000  0.5812520000000 1.0
C      1  0.4602660000000  0.4931290000000  0.5982570000000 1.0
C      1  0.5392240000000  0.5059880000000  0.3995720000000 1.0
C      1  0.5629730000000  0.5282900000000  0.4633280000000 1.0
C      1  0.4380900000000  0.4666450000000  0.5351730000000 1.0
C      1  0.5332920000000  0.4893770000000  0.4513640000000 1.0
C      1  0.4648190000000  0.5092190000000  0.5499160000000 1.0
C      1  0.5460790000000  0.5599530000000  0.5699570000000 1.0
C      1  0.4533790000000  0.4401790000000  0.4302590000000 1.0
C      1  0.4687620000000  0.4406800000000  0.5030500000000 1.0
C      1  0.5304600000000  0.5588490000000  0.4972060000000 1.0
C      1  0.5240360000000  0.4711140000000  0.6067790000000 1.0
C      1  0.4763270000000  0.5295820000000  0.3920170000000 1.0
C      1  0.5897210000000  0.4768700000000  0.5614170000000 1.0
C      1  0.4110190000000  0.5248830000000  0.4386000000000 1.0
C      1  0.4775870000000  0.5750900000000  0.4091980000000 1.0
C      1  0.5248300000000  0.4270210000000  0.5901150000000 1.0
C      1  0.4569100000000  0.5563300000000  0.4214860000000 1.0
C      1  0.5462220000000  0.4445440000000  0.5788510000000 1.0
C      1  0.5533480000000  0.4704500000000  0.5948800000000 1.0
C      1  0.4470490000000  0.5311120000000  0.4046120000000 1.0
C      1  0.4137480000000  0.5111690000000  0.4842270000000 1.0
C      1  0.5821890000000  0.4884770000000  0.5148900000000 1.0
C      1  0.4384260000000  0.4166950000000  0.5086550000000 1.0
C      1  0.5595280000000  0.5834210000000  0.4904620000000 1.0
C      1  0.5549680000000  0.4130270000000  0.5122340000000 1.0
C      1  0.4483540000000  0.5987810000000  0.4884460000000 1.0
C      1  0.5210330000000  0.4504270000000  0.5432800000000 1.0
C      1  0.4851170000000  0.5462180000000  0.4535460000000 1.0
C      1  0.5075850000000  0.4452920000000  0.6058490000000 1.0
C      1  0.4936880000000  0.5549890000000  0.3943060000000 1.0
C      1  0.4133860000000  0.5412490000000  0.4807610000000 1.0
C      1  0.5871010000000  0.4589100000000  0.5193810000000 1.0
C      1  0.4730100000000  0.4356110000000  0.4744210000000 1.0
C      1  0.5260980000000  0.5640380000000  0.5257800000000 1.0
C      1  0.4827550000000  0.5430190000000  0.5222980000000 1.0
C      1  0.5174550000000  0.4555580000000  0.4782260000000 1.0
C      1  0.4962330000000  0.6095310000000  0.5035930000000 1.0
C      1  0.5051370000000  0.3955590000000  0.4951630000000 1.0
C      1  0.5028680000000  0.5650650000000  0.4828280000000 1.0
C      1  0.4947820000000  0.4355890000000  0.5206770000000 1.0
C      1  0.5148610000000  0.6119720000000  0.5276630000000 1.0
C      1  0.4854110000000  0.3887580000000  0.4723140000000 1.0
C      1  0.5981940000000  0.5111410000000  0.5285040000000 1.0
C      1  0.3990020000000  0.4893220000000  0.4685470000000 1.0
C      1  0.5454010000000  0.4714980000000  0.4754350000000 1.0
C      1  0.4579270000000  0.5275520000000  0.5259740000000 1.0
C      1  0.4523320000000  0.5687000000000  0.4893070000000 1.0
C      1  0.5454410000000  0.4439880000000  0.5146950000000 1.0
END
