TITL C-3577076-40-534 -4.26622287578401e-07 125000 -844.596502859891 0 0 136 (C1) n - 1
REM
REM in /home/bkarasulu/work/CARBON/AIRSS/Generating-Clusters/EDIP-Nigel-Params/with-SteepDescent/Higher-Symm/SD-CG/HFTN-CG
REM
REM
REM
REM
REM
REM ./C.cell (12c818d87b63d06a65506943cc24bca4)
REM
REM compiler GCC version 9.2.1 20190827 (Red Hat 9.2.1-1)
REM options -cpp -mtune=generic -march=x86-64 -g -O0 -fpre-include=/usr/include/finclude/math-vector-fortran.h
REM seed 760786209 -1024257078 -1067184154 -604989865 770064942 -423348225 2007742466 1317980492 1100576267 -17389776 1682682133 -1019259355 -1645608913 -1860165294 244167619 -1819517951 133527447 623093289 1057979453 3457058 -900765380 -55985080 -565483355 516064573 -1438569755 -1885915123 1983115960 1649751461 1706846997 -2063887450 -465215567 -537154949 1611131811
REM
CELL 1.54180   50.00000   50.00000   50.00000   90.00000   90.00000   90.00000
LATT -1
SFAC C  
C      1  0.5740780000000  0.4767260000000  0.4462250000000 1.0
C      1  0.5131760000000  0.4835770000000  0.5892840000000 1.0
C      1  0.4138330000000  0.4846450000000  0.4660600000000 1.0
C      1  0.5285520000000  0.5930750000000  0.4926990000000 1.0
C      1  0.4896400000000  0.5935910000000  0.5369920000000 1.0
C      1  0.4752030000000  0.5912720000000  0.4772440000000 1.0
C      1  0.5766180000000  0.4834070000000  0.4756250000000 1.0
C      1  0.4831940000000  0.4837130000000  0.5809620000000 1.0
C      1  0.4358980000000  0.4813650000000  0.4450980000000 1.0
C      1  0.5242680000000  0.4861870000000  0.4585260000000 1.0
C      1  0.5254930000000  0.4841570000000  0.5367680000000 1.0
C      1  0.4532290000000  0.4862990000000  0.5022160000000 1.0
C      1  0.4602200000000  0.4281050000000  0.4425820000000 1.0
C      1  0.5826190000000  0.4220460000000  0.4991570000000 1.0
C      1  0.4688700000000  0.4236010000000  0.5627410000000 1.0
C      1  0.5749340000000  0.5151950000000  0.5079090000000 1.0
C      1  0.4548790000000  0.5153730000000  0.5601690000000 1.0
C      1  0.4689650000000  0.5148430000000  0.4272660000000 1.0
C      1  0.4346610000000  0.4980140000000  0.5745700000000 1.0
C      1  0.4685560000000  0.4952910000000  0.4036320000000 1.0
C      1  0.5966600000000  0.4964960000000  0.5183630000000 1.0
C      1  0.4675710000000  0.4735070000000  0.5550140000000 1.0
C      1  0.4744470000000  0.4751440000000  0.4423570000000 1.0
C      1  0.5519150000000  0.4779280000000  0.4913460000000 1.0
C      1  0.4815920000000  0.4490170000000  0.5530740000000 1.0
C      1  0.4656720000000  0.4525900000000  0.4587930000000 1.0
C      1  0.5554520000000  0.4507900000000  0.4981860000000 1.0
C      1  0.5745310000000  0.4471040000000  0.5368430000000 1.0
C      1  0.4315970000000  0.4492210000000  0.5467230000000 1.0
C      1  0.4936730000000  0.4446160000000  0.4169660000000 1.0
C      1  0.5947800000000  0.4452780000000  0.5160420000000 1.0
C      1  0.4405780000000  0.4465680000000  0.5740860000000 1.0
C      1  0.4642510000000  0.4430840000000  0.4137000000000 1.0
C      1  0.5259100000000  0.4347600000000  0.4535640000000 1.0
C      1  0.5277220000000  0.4301730000000  0.5461910000000 1.0
C      1  0.4369040000000  0.4321960000000  0.4993160000000 1.0
C      1  0.4211200000000  0.5580140000000  0.4776600000000 1.0
C      1  0.5707120000000  0.5481820000000  0.4457740000000 1.0
C      1  0.5173740000000  0.5555520000000  0.5821350000000 1.0
C      1  0.4881430000000  0.4458920000000  0.5255760000000 1.0
C      1  0.4823940000000  0.4460920000000  0.4806440000000 1.0
C      1  0.5277540000000  0.4417900000000  0.5000820000000 1.0
C      1  0.5679100000000  0.4327490000000  0.4745960000000 1.0
C      1  0.4918200000000  0.4059840000000  0.5687150000000 1.0
C      1  0.4376420000000  0.4142570000000  0.4556610000000 1.0
C      1  0.4371400000000  0.5797910000000  0.5040580000000 1.0
C      1  0.5260600000000  0.5840320000000  0.4453340000000 1.0
C      1  0.5321420000000  0.5802490000000  0.5561180000000 1.0
C      1  0.4739190000000  0.5551870000000  0.5610920000000 1.0
C      1  0.4619060000000  0.5520020000000  0.4529520000000 1.0
C      1  0.5599470000000  0.5577030000000  0.4909740000000 1.0
C      1  0.5453330000000  0.4800540000000  0.4350340000000 1.0
C      1  0.5349990000000  0.4865040000000  0.5677040000000 1.0
C      1  0.4218470000000  0.4875570000000  0.4957670000000 1.0
C      1  0.4935100000000  0.6100520000000  0.4668590000000 1.0
C      1  0.5287060000000  0.6086040000000  0.5161030000000 1.0
C      1  0.4723420000000  0.6085740000000  0.5209250000000 1.0
C      1  0.5102530000000  0.4661490000000  0.4065310000000 1.0
C      1  0.5753710000000  0.4689390000000  0.5554060000000 1.0
C      1  0.4139730000000  0.4701920000000  0.5383100000000 1.0
C      1  0.5430330000000  0.5365440000000  0.4455830000000 1.0
C      1  0.5251810000000  0.5340250000000  0.5611200000000 1.0
C      1  0.4351350000000  0.5347940000000  0.4922030000000 1.0
C      1  0.5134420000000  0.4537580000000  0.4748060000000 1.0
C      1  0.5179170000000  0.4520910000000  0.5271870000000 1.0
C      1  0.4655190000000  0.4566020000000  0.5045300000000 1.0
C      1  0.4307900000000  0.5451460000000  0.5388800000000 1.0
C      1  0.5013810000000  0.5447180000000  0.4245220000000 1.0
C      1  0.5656980000000  0.5446280000000  0.5391880000000 1.0
C      1  0.5059000000000  0.4233330000000  0.4346150000000 1.0
C      1  0.5565280000000  0.4234990000000  0.5398440000000 1.0
C      1  0.4390210000000  0.4290260000000  0.5273540000000 1.0
C      1  0.5033910000000  0.5147720000000  0.5479270000000 1.0
C      1  0.4567960000000  0.5146430000000  0.4762860000000 1.0
C      1  0.5406690000000  0.5153290000000  0.4698420000000 1.0
C      1  0.5300230000000  0.5633280000000  0.4940950000000 1.0
C      1  0.4890490000000  0.5639490000000  0.5357800000000 1.0
C      1  0.4791090000000  0.5609850000000  0.4776220000000 1.0
C      1  0.5561190000000  0.4685560000000  0.5751070000000 1.0
C      1  0.4060050000000  0.4697310000000  0.5117520000000 1.0
C      1  0.5371780000000  0.4632340000000  0.4131950000000 1.0
C      1  0.4864400000000  0.4149460000000  0.5212800000000 1.0
C      1  0.4789010000000  0.4151640000000  0.4831620000000 1.0
C      1  0.5348570000000  0.4116320000000  0.4962040000000 1.0
C      1  0.4518820000000  0.4707290000000  0.4112690000000 1.0
C      1  0.6000620000000  0.4712520000000  0.5028190000000 1.0
C      1  0.4460640000000  0.4727660000000  0.5872440000000 1.0
C      1  0.3909590000000  0.5228600000000  0.4857160000000 1.0
C      1  0.5618140000000  0.5064350000000  0.4118610000000 1.0
C      1  0.5440670000000  0.5187930000000  0.6011450000000 1.0
C      1  0.5709510000000  0.5197510000000  0.5555020000000 1.0
C      1  0.4139800000000  0.5207030000000  0.5336960000000 1.0
C      1  0.5112510000000  0.5184300000000  0.4138240000000 1.0
C      1  0.5195380000000  0.5559280000000  0.4460550000000 1.0
C      1  0.5374930000000  0.5539770000000  0.5426760000000 1.0
C      1  0.4455220000000  0.5527790000000  0.5142220000000 1.0
C      1  0.5730180000000  0.5135610000000  0.4759020000000 1.0
C      1  0.4833530000000  0.5118580000000  0.5716910000000 1.0
C      1  0.4461050000000  0.5094850000000  0.4473410000000 1.0
C      1  0.4875740000000  0.5174460000000  0.4736000000000 1.0
C      1  0.5265740000000  0.5191900000000  0.4986020000000 1.0
C      1  0.4853600000000  0.5190120000000  0.5215610000000 1.0
C      1  0.5177550000000  0.6012050000000  0.5409810000000 1.0
C      1  0.4574480000000  0.6001700000000  0.4986350000000 1.0
C      1  0.5202170000000  0.6023180000000  0.4660640000000 1.0
C      1  0.4158320000000  0.4962660000000  0.5513650000000 1.0
C      1  0.4984890000000  0.4932890000000  0.4024980000000 1.0
C      1  0.5849380000000  0.4949960000000  0.5458890000000 1.0
C      1  0.4135950000000  0.5163170000000  0.5031720000000 1.0
C      1  0.5392760000000  0.5210970000000  0.4210050000000 1.0
C      1  0.5460260000000  0.5150120000000  0.5721230000000 1.0
C      1  0.5836680000000  0.5012190000000  0.4307830000000 1.0
C      1  0.5173700000000  0.5087890000000  0.6054400000000 1.0
C      1  0.4007330000000  0.5114210000000  0.4608660000000 1.0
C      1  0.4613110000000  0.5008660000000  0.5292600000000 1.0
C      1  0.4958890000000  0.4988090000000  0.4499780000000 1.0
C      1  0.5448260000000  0.4987260000000  0.5131090000000 1.0
C      1  0.4753460000000  0.5493600000000  0.5122180000000 1.0
C      1  0.5086500000000  0.5508030000000  0.4732100000000 1.0
C      1  0.5190340000000  0.5512420000000  0.5200710000000 1.0
C      1  0.5072900000000  0.4080370000000  0.5445010000000 1.0
C      1  0.4481980000000  0.4122820000000  0.4823450000000 1.0
C      1  0.5445260000000  0.4155510000000  0.4671100000000 1.0
C      1  0.4320790000000  0.5534060000000  0.4519140000000 1.0
C      1  0.5724040000000  0.5656650000000  0.4672640000000 1.0
C      1  0.4884320000000  0.5565200000000  0.5861920000000 1.0
C      1  0.4840900000000  0.4100230000000  0.4500970000000 1.0
C      1  0.5592610000000  0.4076960000000  0.5142830000000 1.0
C      1  0.4600280000000  0.4113590000000  0.5364830000000 1.0
C      1  0.5773880000000  0.5520270000000  0.5136620000000 1.0
C      1  0.4450640000000  0.5520080000000  0.5630450000000 1.0
C      1  0.4738060000000  0.5522940000000  0.4265060000000 1.0
C      1  0.4215450000000  0.5266380000000  0.4434850000000 1.0
C      1  0.5873730000000  0.5241170000000  0.4508010000000 1.0
C      1  0.4936540000000  0.5273010000000  0.5962320000000 1.0
C      1  0.4996820000000  0.5085440000000  0.4982760000000 1.0
END
