TITL C-3578200-9634-616 -5.39013096273249e-06 125000 -1073.45544109257 0 0 176 (C1) n - 1
REM
REM in /home/bkarasulu/work/CARBON/AIRSS/Generating-Clusters/EDIP-Nigel-Params/with-SteepDescent/Higher-Symm/SD-CG/HFTN-CG
REM
REM
REM
REM
REM
REM ./C.cell (12c818d87b63d06a65506943cc24bca4)
REM
REM compiler GCC version 9.2.1 20190827 (Red Hat 9.2.1-1)
REM options -cpp -mtune=generic -march=x86-64 -g -O0 -fpre-include=/usr/include/finclude/math-vector-fortran.h
REM seed 1390483412 -1080986712 194335600 624169374 1336412891 -749360231 -131108247 -1879471236 -896520687 83797281 -696722018 -1912531708 1010128549 1122659260 -509650576 -738208441 -548087457 142420420 -1164623781 -195843058 1202422407 -233766562 -908334978 -1512585009 -905396217 -1499970374 -133897919 -1516329789 1883765016 -397664911 -767604182 -1593253585 252357035
REM
CELL 1.54180   50.00000   50.00000   50.00000   90.00000   90.00000   90.00000
LATT -1
SFAC C  
C      1  0.5696980000000  0.4573680000000  0.4853950000000 1.0
C      1  0.5412400000000  0.4308810000000  0.4898100000000 1.0
C      1  0.4883940000000  0.4247150000000  0.4872850000000 1.0
C      1  0.4603260000000  0.4396190000000  0.4946280000000 1.0
C      1  0.4270200000000  0.4765450000000  0.4873380000000 1.0
C      1  0.4234780000000  0.5155350000000  0.4884510000000 1.0
C      1  0.4389100000000  0.5551890000000  0.4835260000000 1.0
C      1  0.4836900000000  0.5809610000000  0.4892670000000 1.0
C      1  0.5229540000000  0.5783390000000  0.4877010000000 1.0
C      1  0.5625560000000  0.5423470000000  0.4885290000000 1.0
C      1  0.5784910000000  0.5083560000000  0.4856850000000 1.0
C      1  0.4869890000000  0.5513030000000  0.4005900000000 1.0
C      1  0.5171020000000  0.5481530000000  0.4072680000000 1.0
C      1  0.5442150000000  0.5349690000000  0.4001330000000 1.0
C      1  0.5542280000000  0.5065780000000  0.4058960000000 1.0
C      1  0.5500880000000  0.4769340000000  0.3994790000000 1.0
C      1  0.5261430000000  0.4556990000000  0.4069980000000 1.0
C      1  0.4974570000000  0.4437510000000  0.4007600000000 1.0
C      1  0.4695740000000  0.4551050000000  0.4033940000000 1.0
C      1  0.4487490000000  0.4775770000000  0.4007160000000 1.0
C      1  0.4446310000000  0.5079820000000  0.3983430000000 1.0
C      1  0.4616770000000  0.5338660000000  0.4048010000000 1.0
C      1  0.6016240000000  0.5377360000000  0.5091010000000 1.0
C      1  0.6018920000000  0.4781070000000  0.5077810000000 1.0
C      1  0.5791860000000  0.4210700000000  0.5093350000000 1.0
C      1  0.5208940000000  0.3969070000000  0.5087260000000 1.0
C      1  0.4613300000000  0.3979090000000  0.5100030000000 1.0
C      1  0.4188620000000  0.4391740000000  0.5098460000000 1.0
C      1  0.3899540000000  0.4885900000000  0.5082760000000 1.0
C      1  0.4040480000000  0.5496910000000  0.5093550000000 1.0
C      1  0.4470350000000  0.5967880000000  0.5087550000000 1.0
C      1  0.5068730000000  0.6131590000000  0.5085260000000 1.0
C      1  0.5607400000000  0.5846390000000  0.5093800000000 1.0
C      1  0.5534160000000  0.5550750000000  0.5585110000000 1.0
C      1  0.5791270000000  0.5174960000000  0.5656050000000 1.0
C      1  0.5734500000000  0.4736760000000  0.5563000000000 1.0
C      1  0.5510580000000  0.4339570000000  0.5621410000000 1.0
C      1  0.5078360000000  0.4151460000000  0.5685900000000 1.0
C      1  0.4620430000000  0.4263330000000  0.5668500000000 1.0
C      1  0.4273290000000  0.4588820000000  0.5692880000000 1.0
C      1  0.4236420000000  0.5028610000000  0.5572570000000 1.0
C      1  0.4327440000000  0.5481840000000  0.5663040000000 1.0
C      1  0.4715270000000  0.5730470000000  0.5581480000000 1.0
C      1  0.5168580000000  0.5803470000000  0.5676580000000 1.0
C      1  0.4811520000000  0.5474060000000  0.5691380000000 1.0
C      1  0.5101810000000  0.5517430000000  0.5795040000000 1.0
C      1  0.5341260000000  0.5350740000000  0.5686050000000 1.0
C      1  0.5510550000000  0.5108810000000  0.5798240000000 1.0
C      1  0.5491110000000  0.4810180000000  0.5711250000000 1.0
C      1  0.5343540000000  0.4554510000000  0.5749600000000 1.0
C      1  0.5063210000000  0.4442170000000  0.5820940000000 1.0
C      1  0.4759750000000  0.4534100000000  0.5686470000000 1.0
C      1  0.4529840000000  0.4731740000000  0.5804070000000 1.0
C      1  0.4500060000000  0.5021070000000  0.5696860000000 1.0
C      1  0.4568600000000  0.5310160000000  0.5797140000000 1.0
C      1  0.4128620000000  0.5296320000000  0.5536430000000 1.0
C      1  0.4424680000000  0.5736060000000  0.5531720000000 1.0
C      1  0.4931880000000  0.5927650000000  0.5547920000000 1.0
C      1  0.5438130000000  0.5825820000000  0.5556920000000 1.0
C      1  0.5804500000000  0.5449650000000  0.5545360000000 1.0
C      1  0.5937790000000  0.4943370000000  0.5540000000000 1.0
C      1  0.5779760000000  0.4449250000000  0.5529870000000 1.0
C      1  0.5345020000000  0.4093150000000  0.5563040000000 1.0
C      1  0.4826770000000  0.4085250000000  0.5545720000000 1.0
C      1  0.4334560000000  0.4315900000000  0.5586130000000 1.0
C      1  0.4094820000000  0.4775020000000  0.5546250000000 1.0
C      1  0.4825920000000  0.4763840000000  0.4401140000000 1.0
C      1  0.4592320000000  0.4864700000000  0.4502250000000 1.0
C      1  0.4518300000000  0.5114690000000  0.4416440000000 1.0
C      1  0.4656130000000  0.5343100000000  0.4490910000000 1.0
C      1  0.4919770000000  0.5348930000000  0.4413360000000 1.0
C      1  0.5146480000000  0.5463970000000  0.4516180000000 1.0
C      1  0.5377210000000  0.5335900000000  0.4438590000000 1.0
C      1  0.5449220000000  0.5076280000000  0.4494030000000 1.0
C      1  0.5299350000000  0.4879000000000  0.4375590000000 1.0
C      1  0.5262650000000  0.4599070000000  0.4379940000000 1.0
C      1  0.4992500000000  0.4561450000000  0.4483020000000 1.0
C      1  0.4573390000000  0.5017420000000  0.6182910000000 1.0
C      1  0.4610290000000  0.5280250000000  0.6095620000000 1.0
C      1  0.4843000000000  0.5406410000000  0.6182730000000 1.0
C      1  0.5095810000000  0.5481000000000  0.6092500000000 1.0
C      1  0.5311810000000  0.5329510000000  0.6180560000000 1.0
C      1  0.5467420000000  0.5113700000000  0.6098500000000 1.0
C      1  0.5391830000000  0.4869870000000  0.6209040000000 1.0
C      1  0.5232920000000  0.4653270000000  0.6220400000000 1.0
C      1  0.5028260000000  0.4496750000000  0.6115810000000 1.0
C      1  0.4774080000000  0.4584790000000  0.6183740000000 1.0
C      1  0.4569970000000  0.4751580000000  0.6098440000000 1.0
C      1  0.4320490000000  0.5617580000000  0.4403890000000 1.0
C      1  0.4771030000000  0.5895250000000  0.4385120000000 1.0
C      1  0.5288330000000  0.5871540000000  0.4408430000000 1.0
C      1  0.5733800000000  0.5593290000000  0.4398590000000 1.0
C      1  0.5933890000000  0.5101330000000  0.4403540000000 1.0
C      1  0.5836950000000  0.4583470000000  0.4384320000000 1.0
C      1  0.5466900000000  0.4212910000000  0.4411870000000 1.0
C      1  0.4970550000000  0.4064430000000  0.4403880000000 1.0
C      1  0.4484590000000  0.4232530000000  0.4395990000000 1.0
C      1  0.4149930000000  0.4623170000000  0.4389870000000 1.0
C      1  0.4076000000000  0.5138780000000  0.4382290000000 1.0
C      1  0.4789750000000  0.3907170000000  0.5319450000000 1.0
C      1  0.4227390000000  0.4217890000000  0.5328400000000 1.0
C      1  0.3925680000000  0.4708130000000  0.5315130000000 1.0
C      1  0.3935700000000  0.5361200000000  0.5325320000000 1.0
C      1  0.4297150000000  0.5891850000000  0.5309930000000 1.0
C      1  0.4917700000000  0.6141580000000  0.5340650000000 1.0
C      1  0.5502760000000  0.5991640000000  0.5322930000000 1.0
C      1  0.5970780000000  0.5542400000000  0.5322420000000 1.0
C      1  0.6107810000000  0.4946400000000  0.5301500000000 1.0
C      1  0.5930230000000  0.4345450000000  0.5304890000000 1.0
C      1  0.5383690000000  0.3935030000000  0.5317240000000 1.0
C      1  0.4242590000000  0.4328780000000  0.4816150000000 1.0
C      1  0.3898590000000  0.4823130000000  0.4788630000000 1.0
C      1  0.3986110000000  0.5443320000000  0.4799880000000 1.0
C      1  0.4425500000000  0.5931810000000  0.4793900000000 1.0
C      1  0.5010710000000  0.6136420000000  0.4783960000000 1.0
C      1  0.5586380000000  0.5912060000000  0.4807900000000 1.0
C      1  0.6006060000000  0.5453290000000  0.4804050000000 1.0
C      1  0.6062230000000  0.4819610000000  0.4792760000000 1.0
C      1  0.5831970000000  0.4218780000000  0.4792240000000 1.0
C      1  0.5292560000000  0.3953840000000  0.4805520000000 1.0
C      1  0.4659330000000  0.3938440000000  0.4803540000000 1.0
C      1  0.5412500000000  0.4317410000000  0.4150290000000 1.0
C      1  0.4969400000000  0.4185930000000  0.4144800000000 1.0
C      1  0.4555600000000  0.4329030000000  0.4141700000000 1.0
C      1  0.4251640000000  0.4672480000000  0.4129530000000 1.0
C      1  0.4192930000000  0.5121970000000  0.4118450000000 1.0
C      1  0.4422890000000  0.5522870000000  0.4155480000000 1.0
C      1  0.4806200000000  0.5764700000000  0.4132200000000 1.0
C      1  0.5249640000000  0.5743860000000  0.4158610000000 1.0
C      1  0.5642250000000  0.5516480000000  0.4132680000000 1.0
C      1  0.5809680000000  0.5093060000000  0.4151210000000 1.0
C      1  0.5720890000000  0.4643660000000  0.4130820000000 1.0
C      1  0.5764380000000  0.4645040000000  0.5134930000000 1.0
C      1  0.5507330000000  0.4270060000000  0.5185460000000 1.0
C      1  0.5002590000000  0.4178380000000  0.5145900000000 1.0
C      1  0.4592710000000  0.4287150000000  0.5228980000000 1.0
C      1  0.4275940000000  0.4669470000000  0.5158210000000 1.0
C      1  0.4119870000000  0.5072000000000  0.5153650000000 1.0
C      1  0.4332950000000  0.5556200000000  0.5138690000000 1.0
C      1  0.4731040000000  0.5863860000000  0.5162860000000 1.0
C      1  0.5182720000000  0.5829630000000  0.5193820000000 1.0
C      1  0.5625480000000  0.5559960000000  0.5157400000000 1.0
C      1  0.5813380000000  0.5152980000000  0.5168710000000 1.0
C      1  0.5027210000000  0.5964410000000  0.4534390000000 1.0
C      1  0.5532370000000  0.5773290000000  0.4555170000000 1.0
C      1  0.5890450000000  0.5370920000000  0.4543520000000 1.0
C      1  0.5935330000000  0.4829220000000  0.4532970000000 1.0
C      1  0.5731170000000  0.4318790000000  0.4519590000000 1.0
C      1  0.5232810000000  0.4093200000000  0.4557420000000 1.0
C      1  0.4693720000000  0.4061880000000  0.4530510000000 1.0
C      1  0.4286040000000  0.4398720000000  0.4537760000000 1.0
C      1  0.4036330000000  0.4868700000000  0.4524810000000 1.0
C      1  0.4132990000000  0.5401220000000  0.4536660000000 1.0
C      1  0.4508970000000  0.5828510000000  0.4526120000000 1.0
C      1  0.5489730000000  0.5017560000000  0.4775210000000 1.0
C      1  0.5455850000000  0.4721890000000  0.4759050000000 1.0
C      1  0.5256530000000  0.4568560000000  0.4892240000000 1.0
C      1  0.4990220000000  0.4531050000000  0.4774630000000 1.0
C      1  0.4748740000000  0.4665030000000  0.4916040000000 1.0
C      1  0.4556490000000  0.4843830000000  0.4787570000000 1.0
C      1  0.4542330000000  0.5117050000000  0.4914410000000 1.0
C      1  0.4625700000000  0.5378730000000  0.4779840000000 1.0
C      1  0.4860730000000  0.5508320000000  0.4913170000000 1.0
C      1  0.5144360000000  0.5497410000000  0.4804700000000 1.0
C      1  0.5332160000000  0.5300590000000  0.4937080000000 1.0
C      1  0.4498180000000  0.5090360000000  0.5220940000000 1.0
C      1  0.4548760000000  0.5383090000000  0.5294140000000 1.0
C      1  0.4827600000000  0.5509050000000  0.5216660000000 1.0
C      1  0.5118300000000  0.5540680000000  0.5321830000000 1.0
C      1  0.5353380000000  0.5338300000000  0.5242450000000 1.0
C      1  0.5533710000000  0.5077690000000  0.5305380000000 1.0
C      1  0.5488810000000  0.4794180000000  0.5197520000000 1.0
C      1  0.5351090000000  0.4533980000000  0.5319410000000 1.0
C      1  0.5051690000000  0.4465520000000  0.5267890000000 1.0
C      1  0.4768440000000  0.4559870000000  0.5375950000000 1.0
C      1  0.4547400000000  0.4776400000000  0.5291030000000 1.0
END
