TITL C-3578206-1180-713 2.02498039583896e-06 125000 -991.83309781795 0 0 159 (C1) n - 1
REM
REM in /home/bkarasulu/work/CARBON/AIRSS/Generating-Clusters/EDIP-Nigel-Params/with-SteepDescent/Higher-Symm/SD-CG/HFTN-CG
REM
REM
REM
REM
REM
REM ./C.cell (12c818d87b63d06a65506943cc24bca4)
REM
REM compiler GCC version 9.2.1 20190827 (Red Hat 9.2.1-1)
REM options -cpp -mtune=generic -march=x86-64 -g -O0 -fpre-include=/usr/include/finclude/math-vector-fortran.h
REM seed 1906335909 1268382024 -1690199743 -392071218 805407382 -841708174 932835626 771651986 -1174545769 1466719975 -1335622088 280802609 -848350691 99832873 -1368342531 706194889 -1243840243 298349564 -1182604455 1889595580 717523098 44539269 -303795262 -1150196682 407553704 733005786 -202519103 -572153919 -2005114936 -927262984 1552064216 979218956 1489118082
REM
CELL 1.54180   50.00000   50.00000   50.00000   90.00000   90.00000   90.00000
LATT -1
SFAC C  
C      1  0.5131640000000  0.5111180000000  0.5209530000000 1.0
C      1  0.4526100000000  0.5127710000000  0.5237980000000 1.0
C      1  0.5089300000000  0.5166550000000  0.4485090000000 1.0
C      1  0.5243690000000  0.4877740000000  0.5112330000000 1.0
C      1  0.4647170000000  0.4872880000000  0.5302380000000 1.0
C      1  0.4967060000000  0.4892740000000  0.4518970000000 1.0
C      1  0.5670360000000  0.5795900000000  0.4876630000000 1.0
C      1  0.4756230000000  0.5712380000000  0.5490560000000 1.0
C      1  0.4565370000000  0.5766880000000  0.4545930000000 1.0
C      1  0.5650800000000  0.4254620000000  0.4840220000000 1.0
C      1  0.4880220000000  0.4219670000000  0.5648970000000 1.0
C      1  0.4525440000000  0.4265350000000  0.4581770000000 1.0
C      1  0.5032880000000  0.5305640000000  0.5021220000000 1.0
C      1  0.4659970000000  0.5261980000000  0.4998420000000 1.0
C      1  0.5206330000000  0.5308330000000  0.4736600000000 1.0
C      1  0.5032490000000  0.4752060000000  0.4967750000000 1.0
C      1  0.4714150000000  0.4750010000000  0.5036470000000 1.0
C      1  0.5155960000000  0.4730750000000  0.4702110000000 1.0
C      1  0.4487060000000  0.4724930000000  0.5506980000000 1.0
C      1  0.4721350000000  0.4758260000000  0.4351200000000 1.0
C      1  0.5342280000000  0.4760100000000  0.5371240000000 1.0
C      1  0.4213540000000  0.5102020000000  0.5246890000000 1.0
C      1  0.5318100000000  0.5179660000000  0.4267810000000 1.0
C      1  0.5253900000000  0.5120960000000  0.5480970000000 1.0
C      1  0.5174340000000  0.4894500000000  0.6148440000000 1.0
C      1  0.4031780000000  0.4847350000000  0.4630930000000 1.0
C      1  0.5841240000000  0.4873240000000  0.4312760000000 1.0
C      1  0.5145390000000  0.5189620000000  0.6095330000000 1.0
C      1  0.4001220000000  0.5139430000000  0.4605030000000 1.0
C      1  0.5837000000000  0.5162680000000  0.4310340000000 1.0
C      1  0.4562590000000  0.4930440000000  0.4131350000000 1.0
C      1  0.6023240000000  0.4880900000000  0.5006280000000 1.0
C      1  0.4489020000000  0.4846830000000  0.5781430000000 1.0
C      1  0.4574480000000  0.5225180000000  0.4194000000000 1.0
C      1  0.6029260000000  0.5191330000000  0.5006720000000 1.0
C      1  0.4512090000000  0.5146740000000  0.5830470000000 1.0
C      1  0.4963300000000  0.4351220000000  0.5917270000000 1.0
C      1  0.4260270000000  0.4381250000000  0.4578090000000 1.0
C      1  0.5746070000000  0.4442420000000  0.4636740000000 1.0
C      1  0.4866720000000  0.5535160000000  0.5701560000000 1.0
C      1  0.4338600000000  0.5608350000000  0.4457150000000 1.0
C      1  0.5779300000000  0.5602400000000  0.4678650000000 1.0
C      1  0.4076890000000  0.5047640000000  0.4117480000000 1.0
C      1  0.6278760000000  0.5133490000000  0.4700790000000 1.0
C      1  0.4497070000000  0.5140320000000  0.6129710000000 1.0
C      1  0.4267220000000  0.4848830000000  0.4145860000000 1.0
C      1  0.6221000000000  0.4864710000000  0.4775340000000 1.0
C      1  0.4692090000000  0.4984940000000  0.6281420000000 1.0
C      1  0.4758660000000  0.5861250000000  0.4337880000000 1.0
C      1  0.5776880000000  0.5769120000000  0.5154910000000 1.0
C      1  0.4479990000000  0.5793870000000  0.5504350000000 1.0
C      1  0.4704620000000  0.4212130000000  0.4344360000000 1.0
C      1  0.5807240000000  0.4193140000000  0.5077580000000 1.0
C      1  0.4602510000000  0.4112580000000  0.5605430000000 1.0
C      1  0.4439960000000  0.4346890000000  0.5565020000000 1.0
C      1  0.4815960000000  0.4476970000000  0.4239530000000 1.0
C      1  0.5757630000000  0.4229790000000  0.5353980000000 1.0
C      1  0.4349710000000  0.5534660000000  0.5458470000000 1.0
C      1  0.4893670000000  0.5620250000000  0.4229390000000 1.0
C      1  0.5725220000000  0.5492890000000  0.5238460000000 1.0
C      1  0.5100510000000  0.5553240000000  0.5189810000000 1.0
C      1  0.4641900000000  0.5567020000000  0.4989210000000 1.0
C      1  0.5228450000000  0.5622830000000  0.4689730000000 1.0
C      1  0.5146090000000  0.4563710000000  0.5500890000000 1.0
C      1  0.4667640000000  0.4444310000000  0.5041490000000 1.0
C      1  0.5190550000000  0.4420730000000  0.4678780000000 1.0
C      1  0.5606800000000  0.5586240000000  0.4431350000000 1.0
C      1  0.5155990000000  0.5533550000000  0.5705340000000 1.0
C      1  0.4198510000000  0.5589890000000  0.4719890000000 1.0
C      1  0.5568250000000  0.4463420000000  0.4386510000000 1.0
C      1  0.5269560000000  0.4400520000000  0.5897870000000 1.0
C      1  0.4200520000000  0.4445660000000  0.4862350000000 1.0
C      1  0.5509450000000  0.5172870000000  0.4700790000000 1.0
C      1  0.5028710000000  0.5058800000000  0.5688580000000 1.0
C      1  0.4476980000000  0.5166410000000  0.4760290000000 1.0
C      1  0.5485360000000  0.4860560000000  0.4662240000000 1.0
C      1  0.5045210000000  0.4753930000000  0.5744860000000 1.0
C      1  0.4483470000000  0.4855960000000  0.4807850000000 1.0
C      1  0.5282050000000  0.4046990000000  0.4967240000000 1.0
C      1  0.4934540000000  0.4204820000000  0.5194240000000 1.0
C      1  0.4939820000000  0.4229120000000  0.4753390000000 1.0
C      1  0.5276810000000  0.6021760000000  0.4941350000000 1.0
C      1  0.4934060000000  0.5997540000000  0.5126890000000 1.0
C      1  0.4966370000000  0.5775340000000  0.4752370000000 1.0
C      1  0.5244590000000  0.5370450000000  0.4052040000000 1.0
C      1  0.5612690000000  0.5210490000000  0.5604010000000 1.0
C      1  0.4097630000000  0.5317750000000  0.5091210000000 1.0
C      1  0.5151250000000  0.4765100000000  0.4072480000000 1.0
C      1  0.5711840000000  0.4675010000000  0.5588600000000 1.0
C      1  0.4126360000000  0.4663840000000  0.5377110000000 1.0
C      1  0.5622110000000  0.5932500000000  0.5329390000000 1.0
C      1  0.4444090000000  0.5987300000000  0.5297270000000 1.0
C      1  0.4933290000000  0.6013860000000  0.4553990000000 1.0
C      1  0.5479060000000  0.4016030000000  0.5201010000000 1.0
C      1  0.4675740000000  0.3957420000000  0.5349740000000 1.0
C      1  0.4909560000000  0.4033170000000  0.4505200000000 1.0
C      1  0.5749370000000  0.4717600000000  0.4771470000000 1.0
C      1  0.4836960000000  0.4629750000000  0.5936400000000 1.0
C      1  0.4492740000000  0.4702560000000  0.4540970000000 1.0
C      1  0.5828780000000  0.5312620000000  0.4778730000000 1.0
C      1  0.4802460000000  0.5257820000000  0.5807680000000 1.0
C      1  0.4390360000000  0.5312270000000  0.4410220000000 1.0
C      1  0.4907730000000  0.4412260000000  0.5408820000000 1.0
C      1  0.4718380000000  0.4401270000000  0.4755780000000 1.0
C      1  0.5370730000000  0.4321200000000  0.4899570000000 1.0
C      1  0.4855690000000  0.5712340000000  0.5203600000000 1.0
C      1  0.4738280000000  0.5608530000000  0.4720650000000 1.0
C      1  0.5381490000000  0.5750590000000  0.4911410000000 1.0
C      1  0.5603750000000  0.4426070000000  0.5495710000000 1.0
C      1  0.4267490000000  0.4390950000000  0.5345460000000 1.0
C      1  0.5103550000000  0.4484090000000  0.4180330000000 1.0
C      1  0.5540090000000  0.5457610000000  0.5454180000000 1.0
C      1  0.4199560000000  0.5568620000000  0.5205020000000 1.0
C      1  0.5177130000000  0.5635490000000  0.4179330000000 1.0
C      1  0.5852760000000  0.5111330000000  0.5464450000000 1.0
C      1  0.4115060000000  0.5120810000000  0.5530500000000 1.0
C      1  0.4992410000000  0.5251030000000  0.3938410000000 1.0
C      1  0.5893860000000  0.4830690000000  0.5426560000000 1.0
C      1  0.4077040000000  0.4836650000000  0.5630490000000 1.0
C      1  0.4958630000000  0.4948990000000  0.3931800000000 1.0
C      1  0.5339530000000  0.4334230000000  0.5599330000000 1.0
C      1  0.4383480000000  0.4320230000000  0.5076930000000 1.0
C      1  0.5285510000000  0.4340880000000  0.4396660000000 1.0
C      1  0.5283330000000  0.5611730000000  0.5444120000000 1.0
C      1  0.4357110000000  0.5693790000000  0.4973500000000 1.0
C      1  0.5336790000000  0.5737590000000  0.4420700000000 1.0
C      1  0.4191480000000  0.4749340000000  0.4877550000000 1.0
C      1  0.5563570000000  0.4771340000000  0.4360480000000 1.0
C      1  0.5303160000000  0.4722330000000  0.5914460000000 1.0
C      1  0.4177530000000  0.5296520000000  0.4802360000000 1.0
C      1  0.5573240000000  0.5282530000000  0.4405690000000 1.0
C      1  0.5271740000000  0.5310530000000  0.5860900000000 1.0
C      1  0.5324920000000  0.6176110000000  0.4702820000000 1.0
C      1  0.5172850000000  0.6095650000000  0.5298290000000 1.0
C      1  0.4742110000000  0.6067380000000  0.4890500000000 1.0
C      1  0.5306640000000  0.3933270000000  0.4698190000000 1.0
C      1  0.5058340000000  0.3964810000000  0.5336550000000 1.0
C      1  0.4784300000000  0.3977990000000  0.4868820000000 1.0
C      1  0.4460330000000  0.5991620000000  0.5011890000000 1.0
C      1  0.5231330000000  0.6037720000000  0.4477390000000 1.0
C      1  0.5359070000000  0.5910380000000  0.5430130000000 1.0
C      1  0.4559660000000  0.4021910000000  0.5073760000000 1.0
C      1  0.5215090000000  0.4036800000000  0.4444540000000 1.0
C      1  0.5313020000000  0.4046280000000  0.5457550000000 1.0
C      1  0.6094790000000  0.4743760000000  0.5251590000000 1.0
C      1  0.4227180000000  0.4775330000000  0.5865710000000 1.0
C      1  0.4691780000000  0.4870880000000  0.3876470000000 1.0
C      1  0.5938200000000  0.5301400000000  0.5263670000000 1.0
C      1  0.4295060000000  0.5313900000000  0.5668590000000 1.0
C      1  0.4773140000000  0.5401010000000  0.4074590000000 1.0
C      1  0.4210810000000  0.4718900000000  0.4410180000000 1.0
C      1  0.5984620000000  0.4804500000000  0.4576430000000 1.0
C      1  0.4894190000000  0.4778920000000  0.6194910000000 1.0
C      1  0.4112430000000  0.5215800000000  0.4341520000000 1.0
C      1  0.6012440000000  0.5191280000000  0.4563920000000 1.0
C      1  0.4861500000000  0.5273160000000  0.6106240000000 1.0
C      1  0.5506600000000  0.4852530000000  0.5708960000000 1.0
C      1  0.5382260000000  0.4904660000000  0.4167040000000 1.0
C      1  0.4108330000000  0.4842700000000  0.5143600000000 1.0
END
