TITL C-3578201-9217-530 -1.8315039503217e-06 125000 -614.425324400471 0 0 97 (C1) n - 1
REM
REM in /home/bkarasulu/work/CARBON/AIRSS/Generating-Clusters/EDIP-Nigel-Params/with-SteepDescent/Higher-Symm/SD-CG/HFTN-CG
REM
REM
REM
REM
REM
REM ./C.cell (12c818d87b63d06a65506943cc24bca4)
REM
REM compiler GCC version 9.2.1 20190827 (Red Hat 9.2.1-1)
REM options -cpp -mtune=generic -march=x86-64 -g -O0 -fpre-include=/usr/include/finclude/math-vector-fortran.h
REM seed 1192946036 693703533 1152289358 -1471658636 1550125085 -1944627628 -1824087742 706085134 -1485740680 1907258536 1865011421 887538123 -739210518 -1694600060 -837425495 339052653 905842565 788713825 -770072350 -382554616 -1829281506 -1305260118 -304833046 -965758090 -434598004 743585839 -1456322610 -1978604591 1619505966 -497777959 1232591943 -1373966589 -869516977
REM
CELL 1.54180   50.00000   50.00000   50.00000   90.00000   90.00000   90.00000
LATT -1
SFAC C  
C      1  0.3920520000000  0.5215970000000  0.4992170000000 1.0
C      1  0.3822760000000  0.5088370000000  0.5227590000000 1.0
C      1  0.3903050000000  0.4818080000000  0.5181650000000 1.0
C      1  0.3904910000000  0.4790030000000  0.4877760000000 1.0
C      1  0.3832500000000  0.5048290000000  0.4780000000000 1.0
C      1  0.6068250000000  0.5183630000000  0.4918540000000 1.0
C      1  0.6003800000000  0.5109070000000  0.5199940000000 1.0
C      1  0.6058280000000  0.4826880000000  0.5209860000000 1.0
C      1  0.5984090000000  0.4752510000000  0.4943300000000 1.0
C      1  0.6125570000000  0.4939330000000  0.4780530000000 1.0
C      1  0.5500360000000  0.5475530000000  0.5450680000000 1.0
C      1  0.5509500000000  0.4702160000000  0.5579220000000 1.0
C      1  0.5562080000000  0.4349440000000  0.4850140000000 1.0
C      1  0.5550200000000  0.4925900000000  0.4352940000000 1.0
C      1  0.5744210000000  0.5608890000000  0.4661390000000 1.0
C      1  0.4489560000000  0.5455170000000  0.5489820000000 1.0
C      1  0.4504730000000  0.4710850000000  0.5594970000000 1.0
C      1  0.4573500000000  0.4388780000000  0.4902370000000 1.0
C      1  0.4540400000000  0.4869040000000  0.4354530000000 1.0
C      1  0.4475590000000  0.5579480000000  0.4727050000000 1.0
C      1  0.5061550000000  0.5328050000000  0.5203840000000 1.0
C      1  0.5099090000000  0.5062910000000  0.5350830000000 1.0
C      1  0.5103190000000  0.4666620000000  0.5073660000000 1.0
C      1  0.5061990000000  0.4732490000000  0.4775770000000 1.0
C      1  0.5275580000000  0.5237780000000  0.4766240000000 1.0
C      1  0.4809030000000  0.5315530000000  0.5047290000000 1.0
C      1  0.4818330000000  0.4928890000000  0.5367030000000 1.0
C      1  0.4625980000000  0.4928240000000  0.4888560000000 1.0
C      1  0.4862530000000  0.4944530000000  0.4705410000000 1.0
C      1  0.4938030000000  0.5230960000000  0.4761650000000 1.0
C      1  0.4378330000000  0.5087200000000  0.4501280000000 1.0
C      1  0.4363130000000  0.5495970000000  0.4985320000000 1.0
C      1  0.4340080000000  0.5195610000000  0.5513990000000 1.0
C      1  0.4372870000000  0.4600490000000  0.5340900000000 1.0
C      1  0.4371700000000  0.4510070000000  0.4708440000000 1.0
C      1  0.5721480000000  0.5154820000000  0.4431950000000 1.0
C      1  0.5716920000000  0.5630650000000  0.4951760000000 1.0
C      1  0.5648820000000  0.5219080000000  0.5530360000000 1.0
C      1  0.5669610000000  0.4563740000000  0.5369510000000 1.0
C      1  0.5675500000000  0.4507730000000  0.4633440000000 1.0
C      1  0.4736130000000  0.5522870000000  0.5648090000000 1.0
C      1  0.4771030000000  0.4591850000000  0.5689620000000 1.0
C      1  0.4850620000000  0.4308730000000  0.4811510000000 1.0
C      1  0.4837090000000  0.4940340000000  0.4388360000000 1.0
C      1  0.4719160000000  0.5772790000000  0.4714420000000 1.0
C      1  0.5215900000000  0.5514900000000  0.5570460000000 1.0
C      1  0.5245440000000  0.4584170000000  0.5643600000000 1.0
C      1  0.5309250000000  0.4204160000000  0.4754630000000 1.0
C      1  0.5287860000000  0.4982960000000  0.4225290000000 1.0
C      1  0.5182800000000  0.5674720000000  0.4580400000000 1.0
C      1  0.5490100000000  0.4997520000000  0.5658450000000 1.0
C      1  0.5525950000000  0.4435820000000  0.5140620000000 1.0
C      1  0.5489530000000  0.4698650000000  0.4527240000000 1.0
C      1  0.5611180000000  0.5425130000000  0.4472750000000 1.0
C      1  0.5535690000000  0.5471140000000  0.5134300000000 1.0
C      1  0.4471100000000  0.4996380000000  0.5699810000000 1.0
C      1  0.4582640000000  0.4565360000000  0.5136570000000 1.0
C      1  0.4495520000000  0.4577480000000  0.4438710000000 1.0
C      1  0.4506090000000  0.5369870000000  0.4505230000000 1.0
C      1  0.4509200000000  0.5585330000000  0.5224610000000 1.0
C      1  0.4899210000000  0.5802130000000  0.4954160000000 1.0
C      1  0.4854490000000  0.5308900000000  0.5815200000000 1.0
C      1  0.4866470000000  0.4427120000000  0.5465690000000 1.0
C      1  0.4881290000000  0.4253060000000  0.4527560000000 1.0
C      1  0.4900710000000  0.5219950000000  0.4287390000000 1.0
C      1  0.5172170000000  0.5704320000000  0.4877720000000 1.0
C      1  0.5147290000000  0.5322050000000  0.5783630000000 1.0
C      1  0.5151460000000  0.4371750000000  0.5464350000000 1.0
C      1  0.5173480000000  0.4314700000000  0.4504820000000 1.0
C      1  0.5188960000000  0.5257780000000  0.4268580000000 1.0
C      1  0.4794420000000  0.5673370000000  0.5203830000000 1.0
C      1  0.4769600000000  0.5035150000000  0.5733810000000 1.0
C      1  0.4842170000000  0.4640700000000  0.5253330000000 1.0
C      1  0.4704850000000  0.4401310000000  0.4367960000000 1.0
C      1  0.4810900000000  0.5383370000000  0.4508750000000 1.0
C      1  0.5265510000000  0.5438460000000  0.5005670000000 1.0
C      1  0.5197970000000  0.5057170000000  0.5654680000000 1.0
C      1  0.5230920000000  0.4402670000000  0.5169170000000 1.0
C      1  0.5201250000000  0.4621590000000  0.4525970000000 1.0
C      1  0.5314890000000  0.5406910000000  0.4510240000000 1.0
C      1  0.4354930000000  0.5005530000000  0.4786120000000 1.0
C      1  0.4223770000000  0.5231450000000  0.4993880000000 1.0
C      1  0.4342070000000  0.5081440000000  0.5236470000000 1.0
C      1  0.4210650000000  0.4802500000000  0.5198870000000 1.0
C      1  0.4207740000000  0.4744220000000  0.4839380000000 1.0
C      1  0.5578560000000  0.5057190000000  0.4771080000000 1.0
C      1  0.5796400000000  0.5275510000000  0.4845260000000 1.0
C      1  0.5707370000000  0.5141180000000  0.5247490000000 1.0
C      1  0.5558410000000  0.4877000000000  0.5177160000000 1.0
C      1  0.5681410000000  0.4775600000000  0.4908540000000 1.0
C      1  0.4899350000000  0.5673300000000  0.4494040000000 1.0
C      1  0.5098010000000  0.4217010000000  0.4964740000000 1.0
C      1  0.5077160000000  0.4774780000000  0.4294840000000 1.0
C      1  0.4947330000000  0.5652810000000  0.5478710000000 1.0
C      1  0.5020990000000  0.4741350000000  0.5782610000000 1.0
C      1  0.5260540000000  0.4895320000000  0.5170920000000 1.0
C      1  0.4647010000000  0.5069130000000  0.5150970000000 1.0
END
