TITL C-3578198-8939-49 1.4607055734737e-06 125000 -526.385572468014 0 0 86 (C1) n - 1
REM
REM in /home/bkarasulu/work/CARBON/AIRSS/Generating-Clusters/EDIP-Nigel-Params/with-SteepDescent/Higher-Symm/SD-CG/HFTN-CG
REM
REM
REM
REM
REM
REM ./C.cell (12c818d87b63d06a65506943cc24bca4)
REM
REM compiler GCC version 9.2.1 20190827 (Red Hat 9.2.1-1)
REM options -cpp -mtune=generic -march=x86-64 -g -O0 -fpre-include=/usr/include/finclude/math-vector-fortran.h
REM seed 899426822 628376011 -1391151354 -1987440441 1220134222 814992223 -823419864 1807996603 -121138502 -1639966316 -909295848 980426279 528444493 -1225756842 507857810 701779599 -1758348439 802899972 -268520975 639829571 65237123 997867017 -1454756879 -604608155 366070334 -1724688413 -1766173352 1196812949 1242121376 1647791406 1348844341 2032219269 -1665271130
REM
CELL 1.54180   50.00000   50.00000   50.00000   90.00000   90.00000   90.00000
LATT -1
SFAC C  
C      1  0.4444690000000  0.5359300000000  0.5488760000000 1.0
C      1  0.4636280000000  0.4790190000000  0.5669910000000 1.0
C      1  0.4417300000000  0.4836040000000  0.4856700000000 1.0
C      1  0.4996620000000  0.4670240000000  0.5194970000000 1.0
C      1  0.4520580000000  0.5287490000000  0.4971670000000 1.0
C      1  0.5587090000000  0.4432950000000  0.5186210000000 1.0
C      1  0.5807290000000  0.5192650000000  0.5109530000000 1.0
C      1  0.4390250000000  0.5519190000000  0.5253690000000 1.0
C      1  0.4273640000000  0.4509290000000  0.5121980000000 1.0
C      1  0.4689320000000  0.5574500000000  0.4682160000000 1.0
C      1  0.5199600000000  0.4748170000000  0.4121180000000 1.0
C      1  0.5419590000000  0.5489110000000  0.5125460000000 1.0
C      1  0.4990200000000  0.4194430000000  0.5097040000000 1.0
C      1  0.5038470000000  0.5668160000000  0.4942480000000 1.0
C      1  0.5240550000000  0.5075520000000  0.4729990000000 1.0
C      1  0.4368440000000  0.5088570000000  0.5443770000000 1.0
C      1  0.5707350000000  0.5159450000000  0.5384080000000 1.0
C      1  0.5324970000000  0.5675490000000  0.4921300000000 1.0
C      1  0.4899650000000  0.4673970000000  0.5694710000000 1.0
C      1  0.5126120000000  0.5204880000000  0.5440340000000 1.0
C      1  0.5334580000000  0.4522000000000  0.5336820000000 1.0
C      1  0.4277710000000  0.5307960000000  0.4662400000000 1.0
C      1  0.4920330000000  0.4696380000000  0.4726210000000 1.0
C      1  0.5336390000000  0.4904170000000  0.5689750000000 1.0
C      1  0.5342340000000  0.4810220000000  0.5409310000000 1.0
C      1  0.5421430000000  0.4995710000000  0.5187270000000 1.0
C      1  0.5821510000000  0.5019050000000  0.4852770000000 1.0
C      1  0.4944500000000  0.5021650000000  0.4734050000000 1.0
C      1  0.5252480000000  0.4355820000000  0.5560330000000 1.0
C      1  0.4422550000000  0.4658590000000  0.5549690000000 1.0
C      1  0.4523280000000  0.5002730000000  0.5098180000000 1.0
C      1  0.4147970000000  0.4952170000000  0.5319710000000 1.0
C      1  0.5179440000000  0.5294640000000  0.4200890000000 1.0
C      1  0.4130100000000  0.4897100000000  0.4816420000000 1.0
C      1  0.5211750000000  0.5364360000000  0.4621670000000 1.0
C      1  0.4973220000000  0.4416020000000  0.5561860000000 1.0
C      1  0.5396690000000  0.5573700000000  0.5409870000000 1.0
C      1  0.5762930000000  0.4641190000000  0.5122740000000 1.0
C      1  0.4287920000000  0.4912320000000  0.4365570000000 1.0
C      1  0.5315240000000  0.5200150000000  0.5673470000000 1.0
C      1  0.4767630000000  0.4702250000000  0.4313510000000 1.0
C      1  0.5120800000000  0.5306420000000  0.5879740000000 1.0
C      1  0.4189140000000  0.5342510000000  0.4976550000000 1.0
C      1  0.4995540000000  0.5069580000000  0.5979500000000 1.0
C      1  0.4905020000000  0.5554690000000  0.5191770000000 1.0
C      1  0.5665490000000  0.4748720000000  0.4870140000000 1.0
C      1  0.5520180000000  0.4305080000000  0.4928780000000 1.0
C      1  0.4868950000000  0.4399320000000  0.5283300000000 1.0
C      1  0.4571030000000  0.5721520000000  0.4889720000000 1.0
C      1  0.4951630000000  0.4864770000000  0.4163350000000 1.0
C      1  0.4550570000000  0.5371740000000  0.4540670000000 1.0
C      1  0.4867520000000  0.4456830000000  0.4421670000000 1.0
C      1  0.4723770000000  0.4514990000000  0.4882390000000 1.0
C      1  0.5434560000000  0.5377510000000  0.4306630000000 1.0
C      1  0.5080880000000  0.5609240000000  0.5458490000000 1.0
C      1  0.5588830000000  0.4492530000000  0.4703320000000 1.0
C      1  0.5229610000000  0.5226910000000  0.5149420000000 1.0
C      1  0.5625580000000  0.5155170000000  0.4373770000000 1.0
C      1  0.5710020000000  0.5469510000000  0.4736810000000 1.0
C      1  0.4839340000000  0.5053270000000  0.5480970000000 1.0
C      1  0.5599660000000  0.4889400000000  0.4293060000000 1.0
C      1  0.4624940000000  0.5669120000000  0.5160360000000 1.0
C      1  0.4865780000000  0.4255530000000  0.4813290000000 1.0
C      1  0.4437060000000  0.4550920000000  0.4895970000000 1.0
C      1  0.4963810000000  0.5507910000000  0.4722950000000 1.0
C      1  0.4746000000000  0.5178150000000  0.4444910000000 1.0
C      1  0.5356860000000  0.4528910000000  0.4522070000000 1.0
C      1  0.4943050000000  0.5494260000000  0.5724240000000 1.0
C      1  0.5445720000000  0.5579180000000  0.4646770000000 1.0
C      1  0.4496560000000  0.4758500000000  0.4300160000000 1.0
C      1  0.5704110000000  0.5449650000000  0.5030880000000 1.0
C      1  0.4219740000000  0.4660830000000  0.5353630000000 1.0
C      1  0.5111580000000  0.4357190000000  0.4537150000000 1.0
C      1  0.4742290000000  0.5351260000000  0.5518830000000 1.0
C      1  0.4154570000000  0.5051380000000  0.4567540000000 1.0
C      1  0.5377770000000  0.4865140000000  0.4917830000000 1.0
C      1  0.4811960000000  0.4949090000000  0.5198110000000 1.0
C      1  0.5764000000000  0.5204380000000  0.4627370000000 1.0
C      1  0.5412720000000  0.4686030000000  0.4283900000000 1.0
C      1  0.5096400000000  0.4831020000000  0.5853370000000 1.0
C      1  0.5223840000000  0.4351240000000  0.4946590000000 1.0
C      1  0.4937910000000  0.5148450000000  0.4225450000000 1.0
C      1  0.4060580000000  0.5073530000000  0.5049170000000 1.0
C      1  0.5151610000000  0.4646220000000  0.4934690000000 1.0
C      1  0.4915340000000  0.5173310000000  0.5011600000000 1.0
C      1  0.5549700000000  0.5351360000000  0.5554730000000 1.0
END
