TITL C-3577078-809-388 -1.9411155748593e-06 125000 -1085.5909602196 0 0 172 (C1) n - 1
REM
REM in /home/bkarasulu/work/CARBON/AIRSS/Generating-Clusters/EDIP-Nigel-Params/with-SteepDescent/Higher-Symm/SD-CG/HFTN-CG
REM
REM
REM
REM
REM
REM ./C.cell (12c818d87b63d06a65506943cc24bca4)
REM
REM compiler GCC version 9.2.1 20190827 (Red Hat 9.2.1-1)
REM options -cpp -mtune=generic -march=x86-64 -g -O0 -fpre-include=/usr/include/finclude/math-vector-fortran.h
REM seed 1365644154 423380327 -1749665456 137339210 1783077450 2105267599 -443345266 578843372 1966757435 -500751365 -1194117091 -1386295921 41010276 -775489830 2112742078 -1359622203 1448630212 1457455892 994492023 -575429542 -27385654 -1538240865 -1635006473 -1922062408 2090296185 1652694177 -1463281126 1832133368 -2099403001 1451087877 1037503068 -804023589 51850657
REM
CELL 1.54180   50.00000   50.00000   50.00000   90.00000   90.00000   90.00000
LATT -1
SFAC C  
C      1  0.5139540000000  0.4703680000000  0.3936670000000 1.0
C      1  0.4689810000000  0.4931590000000  0.4009070000000 1.0
C      1  0.4772110000000  0.5219710000000  0.4006160000000 1.0
C      1  0.5076530000000  0.5246120000000  0.4011680000000 1.0
C      1  0.5268800000000  0.4997890000000  0.3960590000000 1.0
C      1  0.5489180000000  0.5359630000000  0.5112980000000 1.0
C      1  0.5490240000000  0.4620400000000  0.5417180000000 1.0
C      1  0.4804430000000  0.4482670000000  0.5235260000000 1.0
C      1  0.4438980000000  0.5088380000000  0.5371980000000 1.0
C      1  0.4705500000000  0.5527830000000  0.5354660000000 1.0
C      1  0.4627070000000  0.5284190000000  0.5526900000000 1.0
C      1  0.5028980000000  0.5529780000000  0.5337680000000 1.0
C      1  0.5570530000000  0.4905900000000  0.5315000000000 1.0
C      1  0.5168140000000  0.4585050000000  0.5428320000000 1.0
C      1  0.4560300000000  0.4767270000000  0.5352640000000 1.0
C      1  0.5731020000000  0.4893390000000  0.4181760000000 1.0
C      1  0.5116380000000  0.4266340000000  0.4201980000000 1.0
C      1  0.4282260000000  0.4677180000000  0.4184190000000 1.0
C      1  0.4456130000000  0.5564370000000  0.4189270000000 1.0
C      1  0.5341520000000  0.5645370000000  0.4184580000000 1.0
C      1  0.4511910000000  0.5658950000000  0.4883770000000 1.0
C      1  0.5481690000000  0.5729000000000  0.4869480000000 1.0
C      1  0.5843570000000  0.4817930000000  0.4874020000000 1.0
C      1  0.5088490000000  0.4147420000000  0.4910080000000 1.0
C      1  0.4186760000000  0.4713970000000  0.4900610000000 1.0
C      1  0.5585440000000  0.4873430000000  0.5010910000000 1.0
C      1  0.5096260000000  0.4304800000000  0.5178300000000 1.0
C      1  0.4469930000000  0.4747300000000  0.5042600000000 1.0
C      1  0.4624850000000  0.5444880000000  0.5065750000000 1.0
C      1  0.5313320000000  0.5600580000000  0.5092640000000 1.0
C      1  0.4660700000000  0.4529540000000  0.4952710000000 1.0
C      1  0.4424310000000  0.5212900000000  0.5070660000000 1.0
C      1  0.5028390000000  0.5609080000000  0.4955530000000 1.0
C      1  0.5472340000000  0.5134420000000  0.4908790000000 1.0
C      1  0.5395240000000  0.4444060000000  0.5152390000000 1.0
C      1  0.4663160000000  0.5032510000000  0.4643480000000 1.0
C      1  0.4869390000000  0.5262240000000  0.4645830000000 1.0
C      1  0.5126790000000  0.5104750000000  0.4580560000000 1.0
C      1  0.5046750000000  0.4851020000000  0.4431680000000 1.0
C      1  0.4817690000000  0.4770180000000  0.4586470000000 1.0
C      1  0.4212020000000  0.5676380000000  0.4917450000000 1.0
C      1  0.5404530000000  0.6015310000000  0.4915230000000 1.0
C      1  0.6094450000000  0.4940780000000  0.4961950000000 1.0
C      1  0.5309660000000  0.3934550000000  0.4943090000000 1.0
C      1  0.4091730000000  0.4435900000000  0.4946710000000 1.0
C      1  0.4010040000000  0.5372530000000  0.4407430000000 1.0
C      1  0.5037740000000  0.6024960000000  0.4377090000000 1.0
C      1  0.5995870000000  0.5277810000000  0.4447500000000 1.0
C      1  0.5567480000000  0.4130420000000  0.4453120000000 1.0
C      1  0.4418670000000  0.4168020000000  0.4349050000000 1.0
C      1  0.4974780000000  0.4755810000000  0.6049840000000 1.0
C      1  0.4754850000000  0.4950660000000  0.6055360000000 1.0
C      1  0.4868330000000  0.5222310000000  0.6073000000000 1.0
C      1  0.5162010000000  0.5187890000000  0.6073400000000 1.0
C      1  0.5224510000000  0.4901260000000  0.6064480000000 1.0
C      1  0.5756020000000  0.5483050000000  0.5167180000000 1.0
C      1  0.5820950000000  0.4372460000000  0.5203260000000 1.0
C      1  0.4702170000000  0.4127560000000  0.5124940000000 1.0
C      1  0.4025910000000  0.5039190000000  0.5150170000000 1.0
C      1  0.4760720000000  0.5908340000000  0.5145330000000 1.0
C      1  0.4821310000000  0.5973740000000  0.4854410000000 1.0
C      1  0.5909420000000  0.5459090000000  0.4898560000000 1.0
C      1  0.5735720000000  0.4299070000000  0.4913290000000 1.0
C      1  0.4580700000000  0.4115340000000  0.4834160000000 1.0
C      1  0.3944040000000  0.5133770000000  0.4876770000000 1.0
C      1  0.4962650000000  0.4512540000000  0.5893830000000 1.0
C      1  0.4510440000000  0.4897300000000  0.5906900000000 1.0
C      1  0.4739760000000  0.5441370000000  0.5926900000000 1.0
C      1  0.5338550000000  0.5382380000000  0.5946910000000 1.0
C      1  0.5463410000000  0.4794380000000  0.5940350000000 1.0
C      1  0.5094500000000  0.6086170000000  0.4853560000000 1.0
C      1  0.6132170000000  0.5266700000000  0.4911120000000 1.0
C      1  0.5624490000000  0.4025720000000  0.4917150000000 1.0
C      1  0.4292280000000  0.4141590000000  0.4830120000000 1.0
C      1  0.3928470000000  0.5419930000000  0.4875630000000 1.0
C      1  0.4546920000000  0.5736090000000  0.4421100000000 1.0
C      1  0.5553860000000  0.5644380000000  0.4392290000000 1.0
C      1  0.5745400000000  0.4698940000000  0.4419480000000 1.0
C      1  0.4914580000000  0.4302850000000  0.4442130000000 1.0
C      1  0.4104890000000  0.4770270000000  0.4401670000000 1.0
C      1  0.4555510000000  0.5001120000000  0.4923560000000 1.0
C      1  0.4881760000000  0.5356880000000  0.4932660000000 1.0
C      1  0.5198650000000  0.5056640000000  0.4859380000000 1.0
C      1  0.5376660000000  0.4651590000000  0.4934100000000 1.0
C      1  0.4897060000000  0.4660090000000  0.4838030000000 1.0
C      1  0.5701330000000  0.4416770000000  0.5673330000000 1.0
C      1  0.4703090000000  0.4226120000000  0.5577120000000 1.0
C      1  0.4130720000000  0.5067710000000  0.5611590000000 1.0
C      1  0.4803960000000  0.5851050000000  0.5632470000000 1.0
C      1  0.5734470000000  0.5444710000000  0.5639900000000 1.0
C      1  0.5358220000000  0.5782210000000  0.5641640000000 1.0
C      1  0.5881310000000  0.4902270000000  0.5686360000000 1.0
C      1  0.5194460000000  0.4180130000000  0.5607260000000 1.0
C      1  0.4267890000000  0.4581810000000  0.5610960000000 1.0
C      1  0.4337280000000  0.5591230000000  0.5641590000000 1.0
C      1  0.5290340000000  0.5047200000000  0.5351270000000 1.0
C      1  0.5094170000000  0.4830590000000  0.5283340000000 1.0
C      1  0.4835260000000  0.4895110000000  0.5381630000000 1.0
C      1  0.4868240000000  0.5127660000000  0.5535000000000 1.0
C      1  0.5115000000000  0.5263750000000  0.5461250000000 1.0
C      1  0.4362330000000  0.4400700000000  0.4186830000000 1.0
C      1  0.4194010000000  0.5463840000000  0.4215840000000 1.0
C      1  0.5175620000000  0.5871500000000  0.4188280000000 1.0
C      1  0.5901820000000  0.5114830000000  0.4233910000000 1.0
C      1  0.5341470000000  0.4113480000000  0.4284180000000 1.0
C      1  0.5088170000000  0.5689220000000  0.4653270000000 1.0
C      1  0.5604260000000  0.5175390000000  0.4635520000000 1.0
C      1  0.5361130000000  0.4514050000000  0.4653030000000 1.0
C      1  0.4462470000000  0.4490770000000  0.4640270000000 1.0
C      1  0.4316490000000  0.5302690000000  0.4714650000000 1.0
C      1  0.5258240000000  0.3897070000000  0.5236570000000 1.0
C      1  0.4051740000000  0.4458390000000  0.5231900000000 1.0
C      1  0.4219240000000  0.5725150000000  0.5207320000000 1.0
C      1  0.5456480000000  0.5992320000000  0.5223220000000 1.0
C      1  0.6067070000000  0.4875480000000  0.5254920000000 1.0
C      1  0.4060180000000  0.4785020000000  0.5562890000000 1.0
C      1  0.4518960000000  0.5813040000000  0.5550220000000 1.0
C      1  0.5634630000000  0.5714050000000  0.5573030000000 1.0
C      1  0.5927370000000  0.4609020000000  0.5626250000000 1.0
C      1  0.4942690000000  0.4074990000000  0.5524140000000 1.0
C      1  0.5172430000000  0.5407420000000  0.4252090000000 1.0
C      1  0.5440820000000  0.4965030000000  0.4219870000000 1.0
C      1  0.5257700000000  0.4520910000000  0.4138620000000 1.0
C      1  0.4521400000000  0.4851000000000  0.4241190000000 1.0
C      1  0.4643280000000  0.5336810000000  0.4253700000000 1.0
C      1  0.5384930000000  0.5618240000000  0.4624310000000 1.0
C      1  0.5795000000000  0.4920050000000  0.4614470000000 1.0
C      1  0.5120700000000  0.4317620000000  0.4670290000000 1.0
C      1  0.4282560000000  0.4729570000000  0.4624800000000 1.0
C      1  0.4515780000000  0.5536220000000  0.4628390000000 1.0
C      1  0.5207500000000  0.5619180000000  0.5828990000000 1.0
C      1  0.5662520000000  0.4991240000000  0.5861970000000 1.0
C      1  0.5211690000000  0.4381890000000  0.5814350000000 1.0
C      1  0.4497580000000  0.4642710000000  0.5768750000000 1.0
C      1  0.4447580000000  0.5403090000000  0.5849720000000 1.0
C      1  0.4299860000000  0.4414230000000  0.5381010000000 1.0
C      1  0.4209380000000  0.5496060000000  0.5393860000000 1.0
C      1  0.5237150000000  0.5897790000000  0.5401700000000 1.0
C      1  0.5854130000000  0.5021790000000  0.5414290000000 1.0
C      1  0.5397950000000  0.4092220000000  0.5420460000000 1.0
C      1  0.5780780000000  0.5423600000000  0.4609700000000 1.0
C      1  0.5636790000000  0.4389310000000  0.4604430000000 1.0
C      1  0.4670630000000  0.4121370000000  0.4529500000000 1.0
C      1  0.4072110000000  0.5113880000000  0.4569720000000 1.0
C      1  0.4793650000000  0.5910520000000  0.4525910000000 1.0
C      1  0.6004020000000  0.4586270000000  0.5334850000000 1.0
C      1  0.4963930000000  0.3906730000000  0.5288330000000 1.0
C      1  0.3967510000000  0.4760050000000  0.5283030000000 1.0
C      1  0.4476090000000  0.5884910000000  0.5263820000000 1.0
C      1  0.5690870000000  0.5805170000000  0.5293780000000 1.0
C      1  0.4917230000000  0.5494980000000  0.4442650000000 1.0
C      1  0.5373850000000  0.5196930000000  0.4416730000000 1.0
C      1  0.5302020000000  0.4686990000000  0.4391330000000 1.0
C      1  0.4686280000000  0.4554230000000  0.4433450000000 1.0
C      1  0.4478370000000  0.5109180000000  0.4414760000000 1.0
C      1  0.5209690000000  0.6106730000000  0.4592970000000 1.0
C      1  0.6169320000000  0.5152030000000  0.4646080000000 1.0
C      1  0.5564000000000  0.3928060000000  0.4652770000000 1.0
C      1  0.4226030000000  0.4194690000000  0.4560030000000 1.0
C      1  0.3978880000000  0.5553480000000  0.4631270000000 1.0
C      1  0.4944430000000  0.5952850000000  0.5387540000000 1.0
C      1  0.5869480000000  0.5325230000000  0.5407070000000 1.0
C      1  0.5670210000000  0.4226300000000  0.5426140000000 1.0
C      1  0.4503000000000  0.4199090000000  0.5364030000000 1.0
C      1  0.4041830000000  0.5247470000000  0.5377200000000 1.0
C      1  0.4343900000000  0.5121600000000  0.5820910000000 1.0
C      1  0.4916020000000  0.5650480000000  0.5818300000000 1.0
C      1  0.5588380000000  0.5276700000000  0.5833200000000 1.0
C      1  0.5467960000000  0.4517920000000  0.5843790000000 1.0
C      1  0.4709010000000  0.4444160000000  0.5772340000000 1.0
C      1  0.4952060000000  0.4845680000000  0.4130130000000 1.0
C      1  0.5119660000000  0.4798460000000  0.4979400000000 1.0
END
