TITL C-3578197-9521-408 3.36787492153352e-08 125000 -251.322330310252 0 0 42 (C1) n - 1
REM
REM in /home/bkarasulu/work/CARBON/AIRSS/Generating-Clusters/EDIP-Nigel-Params/with-SteepDescent/Higher-Symm/SD-CG/HFTN-CG
REM
REM
REM
REM
REM
REM ./C.cell (12c818d87b63d06a65506943cc24bca4)
REM
REM compiler GCC version 9.2.1 20190827 (Red Hat 9.2.1-1)
REM options -cpp -mtune=generic -march=x86-64 -g -O0 -fpre-include=/usr/include/finclude/math-vector-fortran.h
REM seed -64088248 1473545506 85517376 1881165755 -682714279 777108964 -792389125 -760134678 7217900 370531599 -1576974495 -1031827071 1657762683 -260153308 144010103 1756435693 1016358692 -91321635 853455100 1757336064 1289889180 -510666013 1437303526 -1667861794 919978888 -1960958377 -1644454887 -1199454441 911021879 473945464 -983801072 -620190406 -1584974399
REM
CELL 1.54180   50.00000   50.00000   50.00000   90.00000   90.00000   90.00000
LATT -1
SFAC C  
C      1  0.5744320000000  0.5118830000000  0.4853650000000 1.0
C      1  0.5556960000000  0.4488260000000  0.4851350000000 1.0
C      1  0.4941900000000  0.4251760000000  0.4869000000000 1.0
C      1  0.4385930000000  0.4566800000000  0.4850060000000 1.0
C      1  0.4292580000000  0.5300160000000  0.4864420000000 1.0
C      1  0.4669400000000  0.5612170000000  0.4864040000000 1.0
C      1  0.5351120000000  0.5653780000000  0.4833060000000 1.0
C      1  0.4542260000000  0.4516940000000  0.5082660000000 1.0
C      1  0.4353350000000  0.5046210000000  0.4968360000000 1.0
C      1  0.4634590000000  0.5567500000000  0.5140690000000 1.0
C      1  0.5140600000000  0.5632380000000  0.5024000000000 1.0
C      1  0.5594980000000  0.5283980000000  0.5039240000000 1.0
C      1  0.5582100000000  0.4709920000000  0.5028930000000 1.0
C      1  0.5136430000000  0.4358000000000  0.5051920000000 1.0
C      1  0.4674080000000  0.4993540000000  0.5451480000000 1.0
C      1  0.4819250000000  0.5226930000000  0.5547860000000 1.0
C      1  0.5089530000000  0.5305610000000  0.5476960000000 1.0
C      1  0.5306250000000  0.5125920000000  0.5542860000000 1.0
C      1  0.5302040000000  0.4844340000000  0.5468540000000 1.0
C      1  0.5074250000000  0.4683420000000  0.5552030000000 1.0
C      1  0.4796580000000  0.4732160000000  0.5495740000000 1.0
C      1  0.4967040000000  0.5606840000000  0.4767630000000 1.0
C      1  0.5472790000000  0.5389770000000  0.4776300000000 1.0
C      1  0.5611040000000  0.4867580000000  0.4767320000000 1.0
C      1  0.5271920000000  0.4445410000000  0.4787880000000 1.0
C      1  0.4744310000000  0.4445180000000  0.4771870000000 1.0
C      1  0.4401330000000  0.4842890000000  0.4752730000000 1.0
C      1  0.4530980000000  0.5384170000000  0.4737090000000 1.0
C      1  0.5251240000000  0.5204960000000  0.4719800000000 1.0
C      1  0.5331250000000  0.4931630000000  0.4677840000000 1.0
C      1  0.5153790000000  0.4708300000000  0.4717390000000 1.0
C      1  0.4868590000000  0.4696220000000  0.4691880000000 1.0
C      1  0.4679260000000  0.4911850000000  0.4668160000000 1.0
C      1  0.4743830000000  0.5191600000000  0.4694740000000 1.0
C      1  0.4996000000000  0.5324370000000  0.4671960000000 1.0
C      1  0.5317060000000  0.4834940000000  0.5110730000000 1.0
C      1  0.5067330000000  0.4627270000000  0.5171460000000 1.0
C      1  0.4756980000000  0.4721330000000  0.5120250000000 1.0
C      1  0.4635790000000  0.5031220000000  0.5093280000000 1.0
C      1  0.4777740000000  0.5315200000000  0.5174670000000 1.0
C      1  0.5086750000000  0.5345040000000  0.5107540000000 1.0
C      1  0.5346460000000  0.5155630000000  0.5162650000000 1.0
END
