TITL C-3578197-9521-106 -7.83902816237794e-06 125000 -942.605885000287 0 0 152 (C1) n - 1
REM
REM in /home/bkarasulu/work/CARBON/AIRSS/Generating-Clusters/EDIP-Nigel-Params/with-SteepDescent/Higher-Symm/SD-CG/HFTN-CG
REM
REM
REM
REM
REM
REM ./C.cell (12c818d87b63d06a65506943cc24bca4)
REM
REM compiler GCC version 9.2.1 20190827 (Red Hat 9.2.1-1)
REM options -cpp -mtune=generic -march=x86-64 -g -O0 -fpre-include=/usr/include/finclude/math-vector-fortran.h
REM seed 1113165114 1050589444 -1459406227 1611595702 686334440 -1639783563 537336743 -979005417 485999728 361129013 -2047297485 2121356942 -221352769 1894075686 625269497 1632749993 -1151582031 -181380143 948273622 1351901199 1607957367 -39550662 -16515035 -1860796532 646040915 -1467391401 834339188 -1257783703 226159129 -55381355 -1147708611 1439770828 -1569603957
REM
CELL 1.54180   50.00000   50.00000   50.00000   90.00000   90.00000   90.00000
LATT -1
SFAC C  
C      1  0.4521710000000  0.4452340000000  0.4727300000000 1.0
C      1  0.5728190000000  0.4843930000000  0.4674850000000 1.0
C      1  0.4746180000000  0.5739940000000  0.4681590000000 1.0
C      1  0.4512320000000  0.4477240000000  0.5324440000000 1.0
C      1  0.5718310000000  0.4846170000000  0.5262310000000 1.0
C      1  0.4778970000000  0.5686390000000  0.5289550000000 1.0
C      1  0.4466490000000  0.5594260000000  0.4670660000000 1.0
C      1  0.5698150000000  0.5140100000000  0.4752550000000 1.0
C      1  0.4767840000000  0.4269740000000  0.4652090000000 1.0
C      1  0.4505720000000  0.5567680000000  0.5242760000000 1.0
C      1  0.5743090000000  0.5156000000000  0.5335680000000 1.0
C      1  0.4781070000000  0.4324810000000  0.5247920000000 1.0
C      1  0.4015260000000  0.4649890000000  0.4864610000000 1.0
C      1  0.5838750000000  0.4321240000000  0.4812560000000 1.0
C      1  0.5198890000000  0.6018680000000  0.4853810000000 1.0
C      1  0.4004680000000  0.4643510000000  0.5160530000000 1.0
C      1  0.5819950000000  0.4320180000000  0.5106920000000 1.0
C      1  0.5183890000000  0.6027030000000  0.5148730000000 1.0
C      1  0.3980190000000  0.5370250000000  0.4852270000000 1.0
C      1  0.5780020000000  0.5659590000000  0.4855810000000 1.0
C      1  0.5192390000000  0.3935190000000  0.4820750000000 1.0
C      1  0.4004220000000  0.5378640000000  0.5146240000000 1.0
C      1  0.5798590000000  0.5688440000000  0.5148410000000 1.0
C      1  0.5173710000000  0.3958270000000  0.5113290000000 1.0
C      1  0.5407250000000  0.5399550000000  0.4292070000000 1.0
C      1  0.4400850000000  0.5159710000000  0.4305050000000 1.0
C      1  0.5239430000000  0.4346080000000  0.4223840000000 1.0
C      1  0.5451880000000  0.5504630000000  0.5759330000000 1.0
C      1  0.4349480000000  0.5165970000000  0.5750950000000 1.0
C      1  0.5191180000000  0.4365460000000  0.5712190000000 1.0
C      1  0.5474890000000  0.4513520000000  0.4228310000000 1.0
C      1  0.4363250000000  0.4874570000000  0.4265940000000 1.0
C      1  0.5163310000000  0.5577680000000  0.4264660000000 1.0
C      1  0.5438310000000  0.4523600000000  0.5695000000000 1.0
C      1  0.4332120000000  0.4868270000000  0.5769170000000 1.0
C      1  0.5204280000000  0.5665780000000  0.5780880000000 1.0
C      1  0.4951400000000  0.6128420000000  0.4718990000000 1.0
C      1  0.4088000000000  0.4378980000000  0.4743140000000 1.0
C      1  0.6034030000000  0.4525800000000  0.4694320000000 1.0
C      1  0.4910360000000  0.6105510000000  0.5269980000000 1.0
C      1  0.4084670000000  0.4373150000000  0.5290690000000 1.0
C      1  0.6010360000000  0.4516740000000  0.5240440000000 1.0
C      1  0.4929790000000  0.3859970000000  0.4687650000000 1.0
C      1  0.4028210000000  0.5636890000000  0.4712700000000 1.0
C      1  0.5988950000000  0.5470600000000  0.4734780000000 1.0
C      1  0.4900900000000  0.3899170000000  0.5239540000000 1.0
C      1  0.4074660000000  0.5654060000000  0.5265940000000 1.0
C      1  0.6005430000000  0.5508590000000  0.5282810000000 1.0
C      1  0.4344620000000  0.4243300000000  0.5171670000000 1.0
C      1  0.5985410000000  0.4789810000000  0.5118640000000 1.0
C      1  0.4665630000000  0.5966150000000  0.5132870000000 1.0
C      1  0.4333830000000  0.4259710000000  0.4871880000000 1.0
C      1  0.6005490000000  0.4810450000000  0.4821340000000 1.0
C      1  0.4706780000000  0.5995010000000  0.4834930000000 1.0
C      1  0.4316250000000  0.5794220000000  0.5117410000000 1.0
C      1  0.5990500000000  0.5231480000000  0.5175750000000 1.0
C      1  0.4670570000000  0.4044320000000  0.5099660000000 1.0
C      1  0.4273430000000  0.5771280000000  0.4821930000000 1.0
C      1  0.5990010000000  0.5194780000000  0.4879390000000 1.0
C      1  0.4701500000000  0.4018200000000  0.4801310000000 1.0
C      1  0.5595620000000  0.5483410000000  0.4491340000000 1.0
C      1  0.4174590000000  0.5277210000000  0.4436340000000 1.0
C      1  0.5206060000000  0.4121970000000  0.4406060000000 1.0
C      1  0.5651730000000  0.5605300000000  0.5575840000000 1.0
C      1  0.4209280000000  0.5293140000000  0.5530960000000 1.0
C      1  0.5160690000000  0.4172000000000  0.5502610000000 1.0
C      1  0.5677050000000  0.4431320000000  0.4408380000000 1.0
C      1  0.4208030000000  0.4740940000000  0.4473600000000 1.0
C      1  0.5180470000000  0.5813830000000  0.4436790000000 1.0
C      1  0.5632390000000  0.4436210000000  0.5500100000000 1.0
C      1  0.4169450000000  0.4743690000000  0.5563290000000 1.0
C      1  0.5167040000000  0.5847780000000  0.5555570000000 1.0
C      1  0.5856190000000  0.5372520000000  0.4493150000000 1.0
C      1  0.4151580000000  0.5564220000000  0.4449390000000 1.0
C      1  0.4942590000000  0.4001930000000  0.4427560000000 1.0
C      1  0.5891480000000  0.5446390000000  0.5549890000000 1.0
C      1  0.4224790000000  0.5577620000000  0.5506780000000 1.0
C      1  0.4902250000000  0.4052910000000  0.5486720000000 1.0
C      1  0.5911650000000  0.4591470000000  0.4436630000000 1.0
C      1  0.4224900000000  0.4455330000000  0.4489620000000 1.0
C      1  0.4942590000000  0.5981030000000  0.4457460000000 1.0
C      1  0.5874270000000  0.4586610000000  0.5494900000000 1.0
C      1  0.4199660000000  0.4456940000000  0.5547260000000 1.0
C      1  0.4907940000000  0.5964930000000  0.5524710000000 1.0
C      1  0.5544470000000  0.5614540000000  0.5298220000000 1.0
C      1  0.4217820000000  0.5177000000000  0.5253710000000 1.0
C      1  0.5252130000000  0.4235200000000  0.5221810000000 1.0
C      1  0.5502480000000  0.5559870000000  0.4763070000000 1.0
C      1  0.4184610000000  0.5186710000000  0.4720290000000 1.0
C      1  0.5273000000000  0.4195490000000  0.4683480000000 1.0
C      1  0.5540920000000  0.4390840000000  0.5219400000000 1.0
C      1  0.4206880000000  0.4842630000000  0.5279730000000 1.0
C      1  0.5256720000000  0.5759890000000  0.5280470000000 1.0
C      1  0.5571710000000  0.4378570000000  0.4680270000000 1.0
C      1  0.4224170000000  0.4851680000000  0.4750460000000 1.0
C      1  0.5235750000000  0.5742490000000  0.4723190000000 1.0
C      1  0.4614210000000  0.4732660000000  0.4228060000000 1.0
C      1  0.5507470000000  0.4738600000000  0.4051920000000 1.0
C      1  0.4880000000000  0.5451270000000  0.4292730000000 1.0
C      1  0.4590720000000  0.4711050000000  0.5809880000000 1.0
C      1  0.5420480000000  0.4820900000000  0.5744630000000 1.0
C      1  0.4950130000000  0.5503020000000  0.5820290000000 1.0
C      1  0.4565550000000  0.5307130000000  0.4124140000000 1.0
C      1  0.5452760000000  0.5091920000000  0.4194680000000 1.0
C      1  0.5002760000000  0.4473520000000  0.4155180000000 1.0
C      1  0.4612590000000  0.5298960000000  0.5812840000000 1.0
C      1  0.5448850000000  0.5214220000000  0.5809400000000 1.0
C      1  0.4932100000000  0.4512510000000  0.5772940000000 1.0
C      1  0.4808380000000  0.4815790000000  0.4452510000000 1.0
C      1  0.5243320000000  0.4783170000000  0.4640710000000 1.0
C      1  0.4917660000000  0.5301500000000  0.4569780000000 1.0
C      1  0.4706100000000  0.4810890000000  0.5538720000000 1.0
C      1  0.5231580000000  0.4918950000000  0.5518300000000 1.0
C      1  0.4980560000000  0.5382270000000  0.5528610000000 1.0
C      1  0.4677740000000  0.5132270000000  0.4649680000000 1.0
C      1  0.5273750000000  0.5001780000000  0.4431710000000 1.0
C      1  0.5035650000000  0.4598400000000  0.4522010000000 1.0
C      1  0.4745290000000  0.5193180000000  0.5553680000000 1.0
C      1  0.5264700000000  0.5231420000000  0.5466720000000 1.0
C      1  0.4964450000000  0.4656720000000  0.5472780000000 1.0
C      1  0.5023530000000  0.4733110000000  0.4046110000000 1.0
C      1  0.5286800000000  0.5116330000000  0.3926440000000 1.0
C      1  0.4767740000000  0.5153490000000  0.3985520000000 1.0
C      1  0.4992730000000  0.4696650000000  0.6008310000000 1.0
C      1  0.5250600000000  0.5135100000000  0.6008640000000 1.0
C      1  0.4742990000000  0.5147620000000  0.6045990000000 1.0
C      1  0.5036670000000  0.5255770000000  0.3991100000000 1.0
C      1  0.5265990000000  0.4822070000000  0.3910940000000 1.0
C      1  0.4770080000000  0.4859520000000  0.4012740000000 1.0
C      1  0.5000140000000  0.5287630000000  0.6029920000000 1.0
C      1  0.5252080000000  0.4846540000000  0.5998680000000 1.0
C      1  0.4741780000000  0.4845360000000  0.6037550000000 1.0
C      1  0.5505510000000  0.4666140000000  0.4777860000000 1.0
C      1  0.4985890000000  0.5581050000000  0.4803950000000 1.0
C      1  0.4509870000000  0.4742030000000  0.4885280000000 1.0
C      1  0.5479020000000  0.4674950000000  0.5099150000000 1.0
C      1  0.5003190000000  0.5564510000000  0.5124040000000 1.0
C      1  0.4469590000000  0.4733380000000  0.5182430000000 1.0
C      1  0.5452160000000  0.5280060000000  0.4927980000000 1.0
C      1  0.5031580000000  0.4385830000000  0.4754160000000 1.0
C      1  0.4458660000000  0.5307510000000  0.4791500000000 1.0
C      1  0.5494360000000  0.5314930000000  0.5244010000000 1.0
C      1  0.5044810000000  0.4439810000000  0.5093840000000 1.0
C      1  0.4488960000000  0.5291100000000  0.5104730000000 1.0
C      1  0.5091190000000  0.4893450000000  0.4883620000000 1.0
C      1  0.5173620000000  0.4725560000000  0.5131230000000 1.0
C      1  0.5174860000000  0.5175420000000  0.4907550000000 1.0
C      1  0.5002650000000  0.5267740000000  0.5118640000000 1.0
C      1  0.4755080000000  0.4942290000000  0.4873430000000 1.0
C      1  0.4739730000000  0.5125140000000  0.5119050000000 1.0
C      1  0.4969790000000  0.5003000000000  0.5692070000000 1.0
C      1  0.4994850000000  0.5057440000000  0.4348660000000 1.0
END
