TITL C-3577081-279-537 0.00633969458820004 125000 -266.446041377114 0 0 45 (C1) n - 1
REM
REM in /home/bkarasulu/work/CARBON/AIRSS/Generating-Clusters/EDIP-Nigel-Params/with-SteepDescent/Higher-Symm/SD-CG/HFTN-CG
REM
REM
REM
REM
REM
REM ./C.cell (12c818d87b63d06a65506943cc24bca4)
REM
REM compiler GCC version 9.2.1 20190827 (Red Hat 9.2.1-1)
REM options -cpp -mtune=generic -march=x86-64 -g -O0 -fpre-include=/usr/include/finclude/math-vector-fortran.h
REM seed 1434219257 2103466645 -1047166015 1282322093 261288867 1333716357 -137757697 1787873519 -1196121782 -1873115726 -640884038 483671720 1887232036 880911859 690087131 -342290654 256301141 -1253522044 -518164060 -1556259106 704343669 -1189371522 2137115034 -409684844 -1970316798 1495817229 -1205556740 137777396 1928381875 -645618503 -573237 -415380574 -957502387
REM
CELL 1.54180   50.00000   50.00000   50.00000   90.00000   90.00000   90.00000
LATT -1
SFAC C  
C      1  0.5423020000000  0.5446630000000  0.5251670000000 1.0
C      1  0.4602970000000  0.4503100000000  0.5274860000000 1.0
C      1  0.5572850000000  0.5207410000000  0.5269560000000 1.0
C      1  0.4429520000000  0.4726800000000  0.5297890000000 1.0
C      1  0.4333820000000  0.5153230000000  0.5100840000000 1.0
C      1  0.5672990000000  0.4807910000000  0.5061910000000 1.0
C      1  0.5375250000000  0.4973650000000  0.5309220000000 1.0
C      1  0.4610670000000  0.4982690000000  0.5316680000000 1.0
C      1  0.5154890000000  0.5365070000000  0.5237810000000 1.0
C      1  0.4864900000000  0.4602910000000  0.5249500000000 1.0
C      1  0.4516950000000  0.5671160000000  0.4705900000000 1.0
C      1  0.5714090000000  0.4192740000000  0.4918840000000 1.0
C      1  0.4526520000000  0.5374140000000  0.5130590000000 1.0
C      1  0.5549170000000  0.4585440000000  0.5193270000000 1.0
C      1  0.4543180000000  0.4720190000000  0.4427660000000 1.0
C      1  0.5377600000000  0.5414420000000  0.4523880000000 1.0
C      1  0.5116530000000  0.5336690000000  0.4396700000000 1.0
C      1  0.4782620000000  0.4855270000000  0.4305440000000 1.0
C      1  0.5237740000000  0.5049010000000  0.4324550000000 1.0
C      1  0.4661520000000  0.5141190000000  0.4392220000000 1.0
C      1  0.5090890000000  0.4499270000000  0.5370860000000 1.0
C      1  0.4947090000000  0.5502820000000  0.5358040000000 1.0
C      1  0.4782060000000  0.4883180000000  0.4880670000000 1.0
C      1  0.5199120000000  0.5053820000000  0.4885250000000 1.0
C      1  0.4856390000000  0.4887490000000  0.5166850000000 1.0
C      1  0.5128220000000  0.5073620000000  0.5169090000000 1.0
C      1  0.5339270000000  0.4863590000000  0.5589150000000 1.0
C      1  0.4666020000000  0.5162470000000  0.5556340000000 1.0
C      1  0.5494670000000  0.5126940000000  0.4486680000000 1.0
C      1  0.4430900000000  0.4986550000000  0.4536980000000 1.0
C      1  0.4684830000000  0.5409480000000  0.5386440000000 1.0
C      1  0.5352070000000  0.4592770000000  0.5433050000000 1.0
C      1  0.5047130000000  0.4849160000000  0.4451190000000 1.0
C      1  0.4873160000000  0.5271280000000  0.4569960000000 1.0
C      1  0.5106460000000  0.4939380000000  0.5718210000000 1.0
C      1  0.4890000000000  0.5095430000000  0.5707060000000 1.0
C      1  0.4716270000000  0.5760000000000  0.4863440000000 1.0
C      1  0.5547070000000  0.4087230000000  0.5102460000000 1.0
C      1  0.4510190000000  0.4815560000000  0.4796260000000 1.0
C      1  0.5452860000000  0.5166680000000  0.4802880000000 1.0
C      1  0.5672530000000  0.5089220000000  0.5008240000000 1.0
C      1  0.4312850000000  0.4861980000000  0.5034410000000 1.0
C      1  0.4642180000000  0.5484960000000  0.4883190000000 1.0
C      1  0.5506690000000  0.4356420000000  0.5022340000000 1.0
C      1  0.4975380000000  0.5011760000000  0.4700540000000 1.0
END
