TITL C-3578203-1966-706 -5.60402363288561e-07 125000 -469.115000907523 0 0 79 (C1) n - 1
REM
REM in /home/bkarasulu/work/CARBON/AIRSS/Generating-Clusters/EDIP-Nigel-Params/with-SteepDescent/Higher-Symm/SD-CG/HFTN-CG
REM
REM
REM
REM
REM
REM ./C.cell (12c818d87b63d06a65506943cc24bca4)
REM
REM compiler GCC version 9.2.1 20190827 (Red Hat 9.2.1-1)
REM options -cpp -mtune=generic -march=x86-64 -g -O0 -fpre-include=/usr/include/finclude/math-vector-fortran.h
REM seed -1235759232 1800650979 1982641512 -169164050 231727808 1892636471 -1991361594 878703738 1119270617 -1633919588 -1943678251 799014214 -1669520189 -905288643 1737319386 724270402 -642142052 1088369503 97853327 -1308244428 -1950192128 -1857111039 1612917855 1640968812 1205100771 842378518 669426111 -1652370238 622123097 667539812 1181153335 1769581563 -1990134510
REM
CELL 1.54180   50.00000   50.00000   50.00000   90.00000   90.00000   90.00000
LATT -1
SFAC C  
C      1  0.5181060000000  0.4880890000000  0.4025700000000 1.0
C      1  0.4871690000000  0.4797170000000  0.4026890000000 1.0
C      1  0.4800170000000  0.5095410000000  0.4071530000000 1.0
C      1  0.5097820000000  0.5174750000000  0.4065690000000 1.0
C      1  0.5167170000000  0.4890280000000  0.5978320000000 1.0
C      1  0.4869840000000  0.4803400000000  0.5971600000000 1.0
C      1  0.4782710000000  0.5101500000000  0.5964320000000 1.0
C      1  0.5092070000000  0.5185510000000  0.5970630000000 1.0
C      1  0.5521750000000  0.5274060000000  0.5155190000000 1.0
C      1  0.5253860000000  0.4405470000000  0.5180360000000 1.0
C      1  0.4510330000000  0.4770900000000  0.5121530000000 1.0
C      1  0.4757890000000  0.5665340000000  0.5168210000000 1.0
C      1  0.5494680000000  0.5239050000000  0.4841270000000 1.0
C      1  0.5237820000000  0.4358080000000  0.4795470000000 1.0
C      1  0.4477450000000  0.4724540000000  0.4814000000000 1.0
C      1  0.4747140000000  0.5612000000000  0.4780950000000 1.0
C      1  0.4238870000000  0.4815940000000  0.4682480000000 1.0
C      1  0.4810130000000  0.5820780000000  0.4591760000000 1.0
C      1  0.5738620000000  0.5163300000000  0.4704780000000 1.0
C      1  0.5231010000000  0.4161780000000  0.4583900000000 1.0
C      1  0.4270350000000  0.4855640000000  0.5255080000000 1.0
C      1  0.4769950000000  0.5834650000000  0.5396920000000 1.0
C      1  0.5757170000000  0.5198570000000  0.5298950000000 1.0
C      1  0.5225050000000  0.4201580000000  0.5381740000000 1.0
C      1  0.5204660000000  0.5266550000000  0.4323090000000 1.0
C      1  0.5281980000000  0.4768280000000  0.4272310000000 1.0
C      1  0.4757240000000  0.4654430000000  0.4262700000000 1.0
C      1  0.4772800000000  0.5187520000000  0.4366180000000 1.0
C      1  0.5204220000000  0.5297610000000  0.5713100000000 1.0
C      1  0.5235630000000  0.4852700000000  0.5684570000000 1.0
C      1  0.4785370000000  0.4716110000000  0.5684850000000 1.0
C      1  0.4770870000000  0.5205710000000  0.5675590000000 1.0
C      1  0.5239990000000  0.5579280000000  0.4729490000000 1.0
C      1  0.5391540000000  0.4764020000000  0.4726100000000 1.0
C      1  0.4735450000000  0.4378640000000  0.4761410000000 1.0
C      1  0.4516010000000  0.5236530000000  0.4768210000000 1.0
C      1  0.5245250000000  0.5602920000000  0.5215800000000 1.0
C      1  0.5463680000000  0.4789710000000  0.5179180000000 1.0
C      1  0.4755120000000  0.4431690000000  0.5258950000000 1.0
C      1  0.4626610000000  0.5248640000000  0.5212640000000 1.0
C      1  0.5343470000000  0.4495270000000  0.4275510000000 1.0
C      1  0.4497420000000  0.4739110000000  0.4308870000000 1.0
C      1  0.4713530000000  0.5468060000000  0.4318550000000 1.0
C      1  0.5482770000000  0.5292770000000  0.4334600000000 1.0
C      1  0.5313950000000  0.4567490000000  0.5667720000000 1.0
C      1  0.4511120000000  0.4783400000000  0.5648770000000 1.0
C      1  0.4672320000000  0.5486620000000  0.5703190000000 1.0
C      1  0.5468270000000  0.5216300000000  0.5670710000000 1.0
C      1  0.4726490000000  0.4986570000000  0.5102570000000 1.0
C      1  0.4991470000000  0.5484650000000  0.5128110000000 1.0
C      1  0.5255410000000  0.4991450000000  0.5120800000000 1.0
C      1  0.4993330000000  0.4560630000000  0.5136170000000 1.0
C      1  0.4724750000000  0.5025350000000  0.4802350000000 1.0
C      1  0.4996120000000  0.5444940000000  0.4827160000000 1.0
C      1  0.5266980000000  0.5025740000000  0.4817490000000 1.0
C      1  0.4983240000000  0.4504970000000  0.4842680000000 1.0
C      1  0.5120360000000  0.5532750000000  0.5552350000000 1.0
C      1  0.5547480000000  0.4792280000000  0.5462310000000 1.0
C      1  0.4836420000000  0.4439820000000  0.5562450000000 1.0
C      1  0.4506130000000  0.5218840000000  0.5481760000000 1.0
C      1  0.5204780000000  0.5554300000000  0.4424570000000 1.0
C      1  0.5518040000000  0.4792910000000  0.4456680000000 1.0
C      1  0.4871940000000  0.4433780000000  0.4419000000000 1.0
C      1  0.4473770000000  0.5202780000000  0.4474430000000 1.0
C      1  0.5638090000000  0.5081760000000  0.4453910000000 1.0
C      1  0.5137830000000  0.4317940000000  0.4368360000000 1.0
C      1  0.4344700000000  0.4926030000000  0.4444470000000 1.0
C      1  0.4914800000000  0.5664460000000  0.4378740000000 1.0
C      1  0.5649980000000  0.5065490000000  0.5523550000000 1.0
C      1  0.5125410000000  0.4357940000000  0.5597410000000 1.0
C      1  0.4363700000000  0.4957520000000  0.5497400000000 1.0
C      1  0.4864920000000  0.5664450000000  0.5598740000000 1.0
C      1  0.4492300000000  0.5420080000000  0.5005190000000 1.0
C      1  0.5506520000000  0.4597370000000  0.4951580000000 1.0
C      1  0.4563720000000  0.4399610000000  0.5011210000000 1.0
C      1  0.5424830000000  0.5602700000000  0.4969400000000 1.0
C      1  0.4971900000000  0.4907090000000  0.5530040000000 1.0
C      1  0.4986680000000  0.5155710000000  0.4691600000000 1.0
C      1  0.4989940000000  0.4867560000000  0.5220970000000 1.0
END
