TITL C-3578200-9634-83 -1.14206630466547e-08 125000 -429.172171067149 0 0 70 (C1) n - 1
REM
REM in /home/bkarasulu/work/CARBON/AIRSS/Generating-Clusters/EDIP-Nigel-Params/with-SteepDescent/Higher-Symm/SD-CG/HFTN-CG
REM
REM
REM
REM
REM
REM ./C.cell (12c818d87b63d06a65506943cc24bca4)
REM
REM compiler GCC version 9.2.1 20190827 (Red Hat 9.2.1-1)
REM options -cpp -mtune=generic -march=x86-64 -g -O0 -fpre-include=/usr/include/finclude/math-vector-fortran.h
REM seed 1326818594 2105831215 -1985810645 -1489949347 715532083 1520151604 -1795772692 -1263193118 1244639195 -551489745 773859843 1134213617 1762885847 1622897327 -41387106 -1560687476 157267456 1644233612 -28648039 -1235055766 139433740 -334629370 30286596 -507391949 -1268525292 -322247253 1792240199 412755459 1318559920 -504878891 1001396353 200638826 -1676312616
REM
CELL 1.54180   50.00000   50.00000   50.00000   90.00000   90.00000   90.00000
LATT -1
SFAC C  
C      1  0.4501270000000  0.4734210000000  0.5347760000000 1.0
C      1  0.5292680000000  0.5197770000000  0.5646400000000 1.0
C      1  0.4468340000000  0.4668190000000  0.4525280000000 1.0
C      1  0.4785190000000  0.5621180000000  0.4608390000000 1.0
C      1  0.4535000000000  0.5233640000000  0.5258640000000 1.0
C      1  0.5336560000000  0.4857750000000  0.4336420000000 1.0
C      1  0.5092310000000  0.5429300000000  0.5023170000000 1.0
C      1  0.5072710000000  0.5011260000000  0.5750370000000 1.0
C      1  0.5108080000000  0.4317590000000  0.4952140000000 1.0
C      1  0.5496040000000  0.5611630000000  0.5037290000000 1.0
C      1  0.5143310000000  0.4236880000000  0.5406910000000 1.0
C      1  0.5635160000000  0.4966760000000  0.4716830000000 1.0
C      1  0.4409250000000  0.4570350000000  0.4817680000000 1.0
C      1  0.4519540000000  0.5523090000000  0.5219710000000 1.0
C      1  0.4771910000000  0.5661290000000  0.5273170000000 1.0
C      1  0.5236200000000  0.5176330000000  0.4935540000000 1.0
C      1  0.4988840000000  0.5436770000000  0.5306710000000 1.0
C      1  0.5181810000000  0.4941070000000  0.5106040000000 1.0
C      1  0.4575900000000  0.5081420000000  0.5001360000000 1.0
C      1  0.5433530000000  0.4782080000000  0.5147590000000 1.0
C      1  0.4700120000000  0.4605450000000  0.4920500000000 1.0
C      1  0.4847890000000  0.4379570000000  0.5061760000000 1.0
C      1  0.5833380000000  0.4757020000000  0.4973310000000 1.0
C      1  0.4928700000000  0.4681200000000  0.5476380000000 1.0
C      1  0.4816380000000  0.5852180000000  0.5071080000000 1.0
C      1  0.4165200000000  0.5279370000000  0.4846670000000 1.0
C      1  0.5665310000000  0.4359580000000  0.4741680000000 1.0
C      1  0.4652730000000  0.5137270000000  0.4525780000000 1.0
C      1  0.5627560000000  0.5146110000000  0.5305410000000 1.0
C      1  0.5160460000000  0.4735090000000  0.5659160000000 1.0
C      1  0.5515020000000  0.5027480000000  0.5545380000000 1.0
C      1  0.4578190000000  0.5415520000000  0.4612090000000 1.0
C      1  0.4821680000000  0.5173030000000  0.5384600000000 1.0
C      1  0.4240920000000  0.5139010000000  0.5331340000000 1.0
C      1  0.4307170000000  0.5467200000000  0.4685520000000 1.0
C      1  0.4329300000000  0.5029420000000  0.4835540000000 1.0
C      1  0.4787110000000  0.5067860000000  0.5662710000000 1.0
C      1  0.4679370000000  0.4825190000000  0.5116710000000 1.0
C      1  0.5633620000000  0.5482910000000  0.4808530000000 1.0
C      1  0.4621060000000  0.4810530000000  0.5622620000000 1.0
C      1  0.5228870000000  0.5675090000000  0.4966980000000 1.0
C      1  0.5400240000000  0.4786770000000  0.4763650000000 1.0
C      1  0.5256650000000  0.5441360000000  0.5467480000000 1.0
C      1  0.4118890000000  0.5356920000000  0.5134350000000 1.0
C      1  0.4210310000000  0.4778420000000  0.4954120000000 1.0
C      1  0.5034140000000  0.5534750000000  0.4519070000000 1.0
C      1  0.4873690000000  0.4711020000000  0.4696170000000 1.0
C      1  0.5263970000000  0.4415190000000  0.4473630000000 1.0
C      1  0.5541700000000  0.5206400000000  0.4880660000000 1.0
C      1  0.5799140000000  0.4978010000000  0.5147670000000 1.0
C      1  0.5138840000000  0.4647620000000  0.4352130000000 1.0
C      1  0.5557450000000  0.5025840000000  0.4427670000000 1.0
C      1  0.5193200000000  0.5310610000000  0.4477170000000 1.0
C      1  0.5140790000000  0.4267030000000  0.4677280000000 1.0
C      1  0.5531600000000  0.4416640000000  0.5197620000000 1.0
C      1  0.4782190000000  0.5823640000000  0.4802100000000 1.0
C      1  0.5155610000000  0.5072430000000  0.4661700000000 1.0
C      1  0.4408660000000  0.4966600000000  0.4547630000000 1.0
C      1  0.5489810000000  0.4538200000000  0.4609190000000 1.0
C      1  0.4251460000000  0.5610980000000  0.5185200000000 1.0
C      1  0.5718520000000  0.4487080000000  0.4986240000000 1.0
C      1  0.4761870000000  0.4634770000000  0.4438080000000 1.0
C      1  0.4919340000000  0.4401390000000  0.5350530000000 1.0
C      1  0.5496810000000  0.5421400000000  0.5278210000000 1.0
C      1  0.4227060000000  0.4832340000000  0.5264880000000 1.0
C      1  0.4929340000000  0.4905560000000  0.5260300000000 1.0
C      1  0.5420470000000  0.4754720000000  0.5522890000000 1.0
C      1  0.5295190000000  0.4252240000000  0.5168960000000 1.0
C      1  0.5486600000000  0.5313820000000  0.4499470000000 1.0
C      1  0.4872790000000  0.5003620000000  0.4684810000000 1.0
END
