TITL C-3578201-9217-584 -7.34034360076426e-06 125000 -1058.51403070021 0 0 174 (C1) n - 1
REM
REM in /home/bkarasulu/work/CARBON/AIRSS/Generating-Clusters/EDIP-Nigel-Params/with-SteepDescent/Higher-Symm/SD-CG/HFTN-CG
REM
REM
REM
REM
REM
REM ./C.cell (12c818d87b63d06a65506943cc24bca4)
REM
REM compiler GCC version 9.2.1 20190827 (Red Hat 9.2.1-1)
REM options -cpp -mtune=generic -march=x86-64 -g -O0 -fpre-include=/usr/include/finclude/math-vector-fortran.h
REM seed -350803433 -325265634 -505078132 -1951402879 -375453390 -1763670409 354003393 -461689330 1938014706 2081959248 -644061740 -320625480 -186055257 -1033795019 738862502 -830454678 1330881514 1488200562 -456072300 1619518043 -669633119 1579921168 1885143397 -747109644 -1524703079 295107347 -1917013758 -774957437 -1076411082 780042586 501603095 1508913613 -28989422
REM
CELL 1.54180   50.00000   50.00000   50.00000   90.00000   90.00000   90.00000
LATT -1
SFAC C  
C      1  0.4587830000000  0.3911550000000  0.5194020000000 1.0
C      1  0.5372670000000  0.4105970000000  0.4548120000000 1.0
C      1  0.4599840000000  0.4507220000000  0.4019760000000 1.0
C      1  0.5453610000000  0.5147680000000  0.3986430000000 1.0
C      1  0.4560800000000  0.5738260000000  0.4252880000000 1.0
C      1  0.5393880000000  0.5955510000000  0.4867760000000 1.0
C      1  0.4568780000000  0.5999330000000  0.5519130000000 1.0
C      1  0.5368740000000  0.5439450000000  0.5894330000000 1.0
C      1  0.4565280000000  0.4841690000000  0.6024640000000 1.0
C      1  0.5478830000000  0.4278360000000  0.5709050000000 1.0
C      1  0.4529470000000  0.4885760000000  0.4600610000000 1.0
C      1  0.5483000000000  0.5170440000000  0.4725330000000 1.0
C      1  0.4485080000000  0.5328730000000  0.4799280000000 1.0
C      1  0.5378600000000  0.5513680000000  0.5134340000000 1.0
C      1  0.4519540000000  0.5279280000000  0.5326200000000 1.0
C      1  0.5367180000000  0.5114540000000  0.5474540000000 1.0
C      1  0.4704730000000  0.4851830000000  0.5505380000000 1.0
C      1  0.5474960000000  0.4669440000000  0.5033080000000 1.0
C      1  0.4394770000000  0.4835760000000  0.4882170000000 1.0
C      1  0.5317050000000  0.4716350000000  0.4544730000000 1.0
C      1  0.4934380000000  0.4021810000000  0.4277840000000 1.0
C      1  0.5081370000000  0.4642160000000  0.3848970000000 1.0
C      1  0.4965240000000  0.5362760000000  0.3920920000000 1.0
C      1  0.5055850000000  0.5881250000000  0.4321090000000 1.0
C      1  0.4948270000000  0.6130180000000  0.5026890000000 1.0
C      1  0.5071910000000  0.5975230000000  0.5724330000000 1.0
C      1  0.4920170000000  0.5350920000000  0.6108450000000 1.0
C      1  0.5026120000000  0.4638040000000  0.6130020000000 1.0
C      1  0.4972370000000  0.4109930000000  0.5631630000000 1.0
C      1  0.5084700000000  0.3818720000000  0.5042360000000 1.0
C      1  0.4377150000000  0.4591190000000  0.5635880000000 1.0
C      1  0.5683690000000  0.4222590000000  0.5256810000000 1.0
C      1  0.4386740000000  0.4168610000000  0.4770860000000 1.0
C      1  0.5622630000000  0.4476620000000  0.4332420000000 1.0
C      1  0.4357040000000  0.4965300000000  0.4145650000000 1.0
C      1  0.5678910000000  0.5446920000000  0.4341470000000 1.0
C      1  0.4373170000000  0.5745800000000  0.4735620000000 1.0
C      1  0.5671350000000  0.5820390000000  0.5253550000000 1.0
C      1  0.4318500000000  0.5569270000000  0.5701010000000 1.0
C      1  0.5610250000000  0.5003870000000  0.5829990000000 1.0
C      1  0.4366770000000  0.4847610000000  0.5789000000000 1.0
C      1  0.5723490000000  0.4344020000000  0.5529200000000 1.0
C      1  0.4425820000000  0.4172140000000  0.5077660000000 1.0
C      1  0.5612530000000  0.4276080000000  0.4549020000000 1.0
C      1  0.4366470000000  0.4656540000000  0.4170310000000 1.0
C      1  0.5707730000000  0.5196880000000  0.4171200000000 1.0
C      1  0.4360220000000  0.5604250000000  0.4464650000000 1.0
C      1  0.5643370000000  0.5818780000000  0.4952400000000 1.0
C      1  0.4382110000000  0.5747720000000  0.5450990000000 1.0
C      1  0.5610470000000  0.5303590000000  0.5791740000000 1.0
C      1  0.4705240000000  0.5975920000000  0.5039550000000 1.0
C      1  0.5304520000000  0.5841800000000  0.5621340000000 1.0
C      1  0.4669620000000  0.5323930000000  0.5977790000000 1.0
C      1  0.5292840000000  0.4644130000000  0.6035870000000 1.0
C      1  0.4717930000000  0.4217210000000  0.5515860000000 1.0
C      1  0.5308450000000  0.3994350000000  0.5018440000000 1.0
C      1  0.4681210000000  0.4127280000000  0.4359990000000 1.0
C      1  0.5304140000000  0.4672540000000  0.4017400000000 1.0
C      1  0.4721900000000  0.5308770000000  0.4065010000000 1.0
C      1  0.5292130000000  0.5756350000000  0.4426220000000 1.0
C      1  0.5815680000000  0.4391070000000  0.5056520000000 1.0
C      1  0.4306270000000  0.4433550000000  0.4676140000000 1.0
C      1  0.5740680000000  0.4728980000000  0.4420820000000 1.0
C      1  0.4208730000000  0.5086820000000  0.4378320000000 1.0
C      1  0.5822650000000  0.5415490000000  0.4603100000000 1.0
C      1  0.4185410000000  0.5620960000000  0.4924920000000 1.0
C      1  0.5785540000000  0.5556450000000  0.5307610000000 1.0
C      1  0.4177250000000  0.5323450000000  0.5597610000000 1.0
C      1  0.5709550000000  0.4863310000000  0.5580890000000 1.0
C      1  0.4256180000000  0.4637530000000  0.5377450000000 1.0
C      1  0.4653000000000  0.6129850000000  0.5277460000000 1.0
C      1  0.5326980000000  0.5723530000000  0.5875780000000 1.0
C      1  0.4629210000000  0.5095220000000  0.6142340000000 1.0
C      1  0.5417200000000  0.4421970000000  0.5933680000000 1.0
C      1  0.4665630000000  0.3938010000000  0.5469570000000 1.0
C      1  0.5325560000000  0.3908620000000  0.4750250000000 1.0
C      1  0.4667420000000  0.4233510000000  0.4091130000000 1.0
C      1  0.5377340000000  0.4897600000000  0.3868820000000 1.0
C      1  0.4663010000000  0.5582170000000  0.4034310000000 1.0
C      1  0.5315350000000  0.5982860000000  0.4593380000000 1.0
C      1  0.5170990000000  0.5239510000000  0.6000490000000 1.0
C      1  0.4786120000000  0.4634850000000  0.5964190000000 1.0
C      1  0.5260730000000  0.4146740000000  0.5541870000000 1.0
C      1  0.4817860000000  0.3936970000000  0.4991040000000 1.0
C      1  0.5186750000000  0.4177130000000  0.4322710000000 1.0
C      1  0.4815370000000  0.4718000000000  0.3959170000000 1.0
C      1  0.5245680000000  0.5364460000000  0.4036640000000 1.0
C      1  0.4780470000000  0.5839480000000  0.4431740000000 1.0
C      1  0.5206740000000  0.6005370000000  0.5100010000000 1.0
C      1  0.4796360000000  0.5861380000000  0.5682580000000 1.0
C      1  0.4676380000000  0.5791280000000  0.5935060000000 1.0
C      1  0.5304430000000  0.5085390000000  0.6205210000000 1.0
C      1  0.4657190000000  0.4374580000000  0.5974990000000 1.0
C      1  0.5383540000000  0.3893770000000  0.5457380000000 1.0
C      1  0.4722020000000  0.3837460000000  0.4738860000000 1.0
C      1  0.5331310000000  0.4198690000000  0.4073950000000 1.0
C      1  0.4691750000000  0.4922740000000  0.3798690000000 1.0
C      1  0.5381970000000  0.5616660000000  0.3991240000000 1.0
C      1  0.4689830000000  0.6071220000000  0.4575390000000 1.0
C      1  0.5350260000000  0.6173880000000  0.5292370000000 1.0
C      1  0.4553620000000  0.4004100000000  0.4595070000000 1.0
C      1  0.5461510000000  0.4444650000000  0.4093100000000 1.0
C      1  0.4545680000000  0.5100420000000  0.3961100000000 1.0
C      1  0.5499870000000  0.5664350000000  0.4245310000000 1.0
C      1  0.4543340000000  0.5977900000000  0.4795980000000 1.0
C      1  0.5490870000000  0.5977340000000  0.5439230000000 1.0
C      1  0.4509700000000  0.5564660000000  0.5931810000000 1.0
C      1  0.5439420000000  0.4893660000000  0.6048820000000 1.0
C      1  0.4539350000000  0.4354860000000  0.5719370000000 1.0
C      1  0.5514940000000  0.3979420000000  0.5218760000000 1.0
C      1  0.4305910000000  0.4451590000000  0.5157880000000 1.0
C      1  0.5734490000000  0.4415680000000  0.4780230000000 1.0
C      1  0.4230370000000  0.4596370000000  0.4440490000000 1.0
C      1  0.5850100000000  0.4995100000000  0.4358020000000 1.0
C      1  0.4158930000000  0.5355440000000  0.4511150000000 1.0
C      1  0.5790360000000  0.5569640000000  0.4858750000000 1.0
C      1  0.4181330000000  0.5640560000000  0.5220590000000 1.0
C      1  0.5725460000000  0.5360190000000  0.5520090000000 1.0
C      1  0.4154540000000  0.5026560000000  0.5633490000000 1.0
C      1  0.5852230000000  0.4628650000000  0.5462850000000 1.0
C      1  0.5428460000000  0.5090420000000  0.4424520000000 1.0
C      1  0.4587420000000  0.5283820000000  0.4484900000000 1.0
C      1  0.5364510000000  0.5525360000000  0.4790280000000 1.0
C      1  0.4608860000000  0.5578110000000  0.5322050000000 1.0
C      1  0.5294850000000  0.5431600000000  0.5462680000000 1.0
C      1  0.4572940000000  0.5124360000000  0.5600820000000 1.0
C      1  0.5443350000000  0.4571580000000  0.5378920000000 1.0
C      1  0.4729290000000  0.4371950000000  0.5243810000000 1.0
C      1  0.5302110000000  0.4463450000000  0.4790380000000 1.0
C      1  0.4660660000000  0.4667830000000  0.4422040000000 1.0
C      1  0.4852880000000  0.4241970000000  0.5002500000000 1.0
C      1  0.5125040000000  0.4460910000000  0.4447720000000 1.0
C      1  0.4844820000000  0.4815770000000  0.4241690000000 1.0
C      1  0.5227290000000  0.5330190000000  0.4336510000000 1.0
C      1  0.4772880000000  0.5599670000000  0.4617520000000 1.0
C      1  0.5152960000000  0.5713820000000  0.5229830000000 1.0
C      1  0.4830710000000  0.5611790000000  0.5514830000000 1.0
C      1  0.5192780000000  0.4993410000000  0.5699750000000 1.0
C      1  0.4878900000000  0.4678350000000  0.5678250000000 1.0
C      1  0.5255040000000  0.4329350000000  0.5306680000000 1.0
C      1  0.5749420000000  0.5092840000000  0.5418490000000 1.0
C      1  0.4109270000000  0.4902920000000  0.5363390000000 1.0
C      1  0.5907800000000  0.4648910000000  0.5162450000000 1.0
C      1  0.4237580000000  0.4586310000000  0.4911250000000 1.0
C      1  0.5855010000000  0.4652800000000  0.4671850000000 1.0
C      1  0.4132460000000  0.4854080000000  0.4524300000000 1.0
C      1  0.5924980000000  0.5128400000000  0.4617660000000 1.0
C      1  0.4079610000000  0.5365660000000  0.4810460000000 1.0
C      1  0.5916670000000  0.5452940000000  0.5080650000000 1.0
C      1  0.4088040000000  0.5383770000000  0.5325260000000 1.0
C      1  0.5018230000000  0.5570360000000  0.4792890000000 1.0
C      1  0.4913300000000  0.5590080000000  0.5086010000000 1.0
C      1  0.4985560000000  0.5365510000000  0.5452800000000 1.0
C      1  0.4912220000000  0.5144090000000  0.5659150000000 1.0
C      1  0.5170410000000  0.4692060000000  0.5614240000000 1.0
C      1  0.5022070000000  0.4530450000000  0.5291390000000 1.0
C      1  0.4947020000000  0.4487550000000  0.4853090000000 1.0
C      1  0.4853080000000  0.4476950000000  0.4567950000000 1.0
C      1  0.5045310000000  0.4985660000000  0.4386060000000 1.0
C      1  0.4925430000000  0.5291150000000  0.4457500000000 1.0
C      1  0.5193810000000  0.4780630000000  0.5083860000000 1.0
C      1  0.4769590000000  0.4752750000000  0.4961880000000 1.0
C      1  0.5159340000000  0.4873170000000  0.4793410000000 1.0
C      1  0.4787640000000  0.4983140000000  0.4741320000000 1.0
C      1  0.5187750000000  0.5167740000000  0.4786320000000 1.0
C      1  0.4768580000000  0.5253000000000  0.4890080000000 1.0
C      1  0.5178080000000  0.5265770000000  0.5067120000000 1.0
C      1  0.4767980000000  0.5185170000000  0.5187190000000 1.0
C      1  0.5215850000000  0.5035430000000  0.5235540000000 1.0
C      1  0.4793050000000  0.4898170000000  0.5225930000000 1.0
C      1  0.5603160000000  0.4943440000000  0.4921300000000 1.0
C      1  0.4363190000000  0.5111820000000  0.5018120000000 1.0
C      1  0.4080670000000  0.5148270000000  0.5135610000000 1.0
C      1  0.5884250000000  0.4881410000000  0.4860270000000 1.0
END
