TITL C-3577087-600-626 7.55565836402256e-07 125000 -448.22457429915 0 0 73 (C1) n - 1
REM
REM in /home/bkarasulu/work/CARBON/AIRSS/Generating-Clusters/EDIP-Nigel-Params/with-SteepDescent/Higher-Symm/SD-CG/HFTN-CG
REM
REM
REM
REM
REM
REM ./C.cell (12c818d87b63d06a65506943cc24bca4)
REM
REM compiler GCC version 9.2.1 20190827 (Red Hat 9.2.1-1)
REM options -cpp -mtune=generic -march=x86-64 -g -O0 -fpre-include=/usr/include/finclude/math-vector-fortran.h
REM seed -1658191638 -1608110052 -584285871 -1618899752 -1250438103 1846625210 299216206 600225837 -775457825 1346547082 -752024292 1591053654 -1176631018 826208500 307736606 -2124697574 1109825218 933239561 -963972939 1052469086 349775102 1851245163 -196519723 561712346 -1505070557 -555362550 -1048587850 545463481 -2019396532 -2032087670 1321365605 357145826 -1671306375
REM
CELL 1.54180   50.00000   50.00000   50.00000   90.00000   90.00000   90.00000
LATT -1
SFAC C  
C      1  0.4978030000000  0.5460710000000  0.4978480000000 1.0
C      1  0.5347710000000  0.5708290000000  0.5252840000000 1.0
C      1  0.5169300000000  0.4867030000000  0.4073460000000 1.0
C      1  0.4597540000000  0.4915900000000  0.4557650000000 1.0
C      1  0.4950130000000  0.4344950000000  0.5183770000000 1.0
C      1  0.5440130000000  0.4668150000000  0.5504230000000 1.0
C      1  0.5657640000000  0.5353250000000  0.5021980000000 1.0
C      1  0.4889960000000  0.4533000000000  0.4273370000000 1.0
C      1  0.4953780000000  0.5761340000000  0.4998730000000 1.0
C      1  0.5086980000000  0.5050590000000  0.4729420000000 1.0
C      1  0.5093590000000  0.5041780000000  0.5697480000000 1.0
C      1  0.5644550000000  0.5187650000000  0.4778010000000 1.0
C      1  0.5083780000000  0.5826970000000  0.5251880000000 1.0
C      1  0.4631310000000  0.4383650000000  0.4786780000000 1.0
C      1  0.5710670000000  0.5158540000000  0.5252020000000 1.0
C      1  0.4791930000000  0.5008120000000  0.4790760000000 1.0
C      1  0.5332910000000  0.4641470000000  0.5039410000000 1.0
C      1  0.5308740000000  0.5107460000000  0.4926360000000 1.0
C      1  0.5055440000000  0.4173450000000  0.4532490000000 1.0
C      1  0.4311570000000  0.4824510000000  0.5017010000000 1.0
C      1  0.5018910000000  0.5342120000000  0.5256530000000 1.0
C      1  0.5675520000000  0.4900740000000  0.4823290000000 1.0
C      1  0.4445950000000  0.5286060000000  0.5023480000000 1.0
C      1  0.5180310000000  0.4869600000000  0.5209690000000 1.0
C      1  0.4293710000000  0.5081430000000  0.4882840000000 1.0
C      1  0.4703070000000  0.5313940000000  0.4868770000000 1.0
C      1  0.5567070000000  0.4652020000000  0.5229160000000 1.0
C      1  0.4746990000000  0.5003050000000  0.4286730000000 1.0
C      1  0.4494040000000  0.4615710000000  0.4609110000000 1.0
C      1  0.4978820000000  0.5201720000000  0.4330830000000 1.0
C      1  0.5189700000000  0.4843360000000  0.4560890000000 1.0
C      1  0.5286090000000  0.4242930000000  0.4747960000000 1.0
C      1  0.5432570000000  0.4712820000000  0.4747600000000 1.0
C      1  0.5247570000000  0.4470800000000  0.5552440000000 1.0
C      1  0.4526620000000  0.5252900000000  0.5308200000000 1.0
C      1  0.4523660000000  0.5700430000000  0.5162890000000 1.0
C      1  0.4895160000000  0.4788510000000  0.4117760000000 1.0
C      1  0.4824150000000  0.4876120000000  0.5716730000000 1.0
C      1  0.4356850000000  0.5075900000000  0.4605020000000 1.0
C      1  0.5262230000000  0.5164980000000  0.5232680000000 1.0
C      1  0.4528160000000  0.4577730000000  0.5375100000000 1.0
C      1  0.4310580000000  0.4600440000000  0.4835690000000 1.0
C      1  0.4871200000000  0.5537950000000  0.4488450000000 1.0
C      1  0.4985590000000  0.4442440000000  0.5463760000000 1.0
C      1  0.4338570000000  0.4796040000000  0.5317470000000 1.0
C      1  0.5018770000000  0.5538160000000  0.5494410000000 1.0
C      1  0.5366350000000  0.4936870000000  0.5601250000000 1.0
C      1  0.5471430000000  0.4442550000000  0.4612960000000 1.0
C      1  0.5380610000000  0.4439110000000  0.4346590000000 1.0
C      1  0.5138790000000  0.5349640000000  0.5717240000000 1.0
C      1  0.5479810000000  0.5172510000000  0.5455390000000 1.0
C      1  0.4785180000000  0.4786140000000  0.5006910000000 1.0
C      1  0.5737400000000  0.4881220000000  0.5121610000000 1.0
C      1  0.5289320000000  0.5579630000000  0.4776180000000 1.0
C      1  0.4933730000000  0.4405370000000  0.4701880000000 1.0
C      1  0.4698930000000  0.4496850000000  0.5073120000000 1.0
C      1  0.4888290000000  0.4873290000000  0.5255050000000 1.0
C      1  0.5209310000000  0.4367790000000  0.5028750000000 1.0
C      1  0.5450110000000  0.5651670000000  0.5503460000000 1.0
C      1  0.4745270000000  0.5591970000000  0.5565270000000 1.0
C      1  0.4566080000000  0.4996930000000  0.5711810000000 1.0
C      1  0.5420400000000  0.5408710000000  0.5632790000000 1.0
C      1  0.4532930000000  0.5538880000000  0.5394910000000 1.0
C      1  0.5131570000000  0.5458530000000  0.4571670000000 1.0
C      1  0.4952320000000  0.4649200000000  0.4537680000000 1.0
C      1  0.4652600000000  0.5551420000000  0.4683580000000 1.0
C      1  0.4665080000000  0.5767890000000  0.4923660000000 1.0
C      1  0.5222690000000  0.5014400000000  0.4308670000000 1.0
C      1  0.5124670000000  0.4327430000000  0.4280040000000 1.0
C      1  0.5415130000000  0.5527820000000  0.5029860000000 1.0
C      1  0.4805840000000  0.5155110000000  0.5299980000000 1.0
C      1  0.4802510000000  0.4680650000000  0.5480290000000 1.0
C      1  0.4396110000000  0.5043700000000  0.5485850000000 1.0
END
