TITL C-3577080-309-410 2.63377648541478e-07 125000 -569.985476411418 0 0 94 (C1) n - 1
REM
REM in /home/bkarasulu/work/CARBON/AIRSS/Generating-Clusters/EDIP-Nigel-Params/with-SteepDescent/Higher-Symm/SD-CG/HFTN-CG
REM
REM
REM
REM
REM
REM ./C.cell (12c818d87b63d06a65506943cc24bca4)
REM
REM compiler GCC version 9.2.1 20190827 (Red Hat 9.2.1-1)
REM options -cpp -mtune=generic -march=x86-64 -g -O0 -fpre-include=/usr/include/finclude/math-vector-fortran.h
REM seed -359104400 1382918459 392570711 -621529995 2019302443 308002689 403717459 -796684827 707281984 -661798680 -2011045878 263296861 554603788 -394578653 -2015602320 -775323357 -781931556 1016718072 -742053262 1644093079 -1747507531 -1264287130 1222612150 1639651763 -1138912345 112931115 -306665212 1905940633 2134801437 1383128332 964502199 1691182097 1877761536
REM
CELL 1.54180   50.00000   50.00000   50.00000   90.00000   90.00000   90.00000
LATT -1
SFAC C  
C      1  0.5254200000000  0.4740680000000  0.5803470000000 1.0
C      1  0.4803730000000  0.5246810000000  0.4171800000000 1.0
C      1  0.4793690000000  0.5665310000000  0.5530030000000 1.0
C      1  0.5205800000000  0.4332000000000  0.4441650000000 1.0
C      1  0.5096190000000  0.4153260000000  0.4636170000000 1.0
C      1  0.4886260000000  0.5864670000000  0.5344320000000 1.0
C      1  0.5430790000000  0.5758310000000  0.5019330000000 1.0
C      1  0.4571640000000  0.4249410000000  0.4984410000000 1.0
C      1  0.5186040000000  0.4473280000000  0.5265560000000 1.0
C      1  0.4816690000000  0.5519300000000  0.4723570000000 1.0
C      1  0.4442690000000  0.4643120000000  0.5261090000000 1.0
C      1  0.5566160000000  0.5358120000000  0.4756940000000 1.0
C      1  0.4943740000000  0.5177090000000  0.5513850000000 1.0
C      1  0.5036570000000  0.4805390000000  0.4450480000000 1.0
C      1  0.5201030000000  0.4158930000000  0.4904240000000 1.0
C      1  0.4792600000000  0.5849380000000  0.5072490000000 1.0
C      1  0.5044820000000  0.4040240000000  0.5109030000000 1.0
C      1  0.4953600000000  0.5961720000000  0.4868270000000 1.0
C      1  0.4520830000000  0.5598900000000  0.5549230000000 1.0
C      1  0.5478710000000  0.4394150000000  0.4441250000000 1.0
C      1  0.4310420000000  0.4678610000000  0.4530390000000 1.0
C      1  0.5658490000000  0.5327300000000  0.5488700000000 1.0
C      1  0.5784650000000  0.4872410000000  0.5274880000000 1.0
C      1  0.4198580000000  0.5121400000000  0.4749620000000 1.0
C      1  0.5269630000000  0.4676010000000  0.4280990000000 1.0
C      1  0.4741300000000  0.5320990000000  0.5696670000000 1.0
C      1  0.4231340000000  0.4955450000000  0.4522100000000 1.0
C      1  0.5674230000000  0.5023900000000  0.5516140000000 1.0
C      1  0.4174940000000  0.4533690000000  0.4759310000000 1.0
C      1  0.5811860000000  0.5464070000000  0.5263610000000 1.0
C      1  0.5370330000000  0.5427870000000  0.5599220000000 1.0
C      1  0.4604050000000  0.4597090000000  0.4405930000000 1.0
C      1  0.4385390000000  0.4679030000000  0.5529810000000 1.0
C      1  0.5648910000000  0.5319240000000  0.4492120000000 1.0
C      1  0.5133310000000  0.5103060000000  0.4546180000000 1.0
C      1  0.4867730000000  0.4877910000000  0.5496590000000 1.0
C      1  0.5102320000000  0.4910830000000  0.5042240000000 1.0
C      1  0.4889730000000  0.5099160000000  0.4981000000000 1.0
C      1  0.5183580000000  0.4782830000000  0.4775900000000 1.0
C      1  0.4810740000000  0.5232570000000  0.5237170000000 1.0
C      1  0.4464810000000  0.5441630000000  0.5058000000000 1.0
C      1  0.5533900000000  0.4564880000000  0.4926290000000 1.0
C      1  0.5289760000000  0.4419530000000  0.4993210000000 1.0
C      1  0.4708290000000  0.5585040000000  0.4991150000000 1.0
C      1  0.4630420000000  0.5086310000000  0.4326230000000 1.0
C      1  0.5390060000000  0.4927000000000  0.5601150000000 1.0
C      1  0.4597980000000  0.4639070000000  0.4793340000000 1.0
C      1  0.5387070000000  0.5371110000000  0.5213510000000 1.0
C      1  0.5250110000000  0.5804690000000  0.5249810000000 1.0
C      1  0.4739230000000  0.4218880000000  0.4742720000000 1.0
C      1  0.4439930000000  0.4903060000000  0.5113040000000 1.0
C      1  0.5559340000000  0.5100180000000  0.4907680000000 1.0
C      1  0.5331540000000  0.5539090000000  0.4816180000000 1.0
C      1  0.4673500000000  0.4465500000000  0.5188450000000 1.0
C      1  0.5961690000000  0.5283790000000  0.5111140000000 1.0
C      1  0.4036210000000  0.4714180000000  0.4923900000000 1.0
C      1  0.5023750000000  0.5297780000000  0.4776480000000 1.0
C      1  0.4977970000000  0.4704700000000  0.5246070000000 1.0
C      1  0.4800650000000  0.4319990000000  0.5431740000000 1.0
C      1  0.5214550000000  0.5675650000000  0.4566950000000 1.0
C      1  0.4585430000000  0.5396080000000  0.4550910000000 1.0
C      1  0.5420590000000  0.4573620000000  0.5430490000000 1.0
C      1  0.5191750000000  0.5548220000000  0.5373760000000 1.0
C      1  0.4793560000000  0.4477220000000  0.4623200000000 1.0
C      1  0.5534310000000  0.4858310000000  0.4280130000000 1.0
C      1  0.4478480000000  0.5140500000000  0.5704610000000 1.0
C      1  0.4952130000000  0.5784150000000  0.4646350000000 1.0
C      1  0.5056010000000  0.4206650000000  0.5338930000000 1.0
C      1  0.4893440000000  0.4471100000000  0.5669960000000 1.0
C      1  0.5123630000000  0.5499980000000  0.4348870000000 1.0
C      1  0.5448510000000  0.4928630000000  0.4689820000000 1.0
C      1  0.4544060000000  0.5093190000000  0.5320320000000 1.0
C      1  0.4316520000000  0.4329870000000  0.4889970000000 1.0
C      1  0.5680780000000  0.5671940000000  0.5125650000000 1.0
C      1  0.5725760000000  0.4768920000000  0.4491430000000 1.0
C      1  0.4280550000000  0.5230140000000  0.5476920000000 1.0
C      1  0.5617390000000  0.4638140000000  0.5209590000000 1.0
C      1  0.4390170000000  0.5338900000000  0.4782590000000 1.0
C      1  0.4996360000000  0.4867540000000  0.5857170000000 1.0
C      1  0.5057470000000  0.5119980000000  0.4136010000000 1.0
C      1  0.4760440000000  0.4696150000000  0.5826640000000 1.0
C      1  0.5276050000000  0.5295850000000  0.4186990000000 1.0
C      1  0.5500560000000  0.5159230000000  0.4315980000000 1.0
C      1  0.4504410000000  0.4831390000000  0.5728690000000 1.0
C      1  0.4163190000000  0.4957250000000  0.4993160000000 1.0
C      1  0.5833060000000  0.5044880000000  0.5035610000000 1.0
C      1  0.4840140000000  0.5508580000000  0.4279140000000 1.0
C      1  0.5183580000000  0.4474080000000  0.5714820000000 1.0
C      1  0.5340020000000  0.5088390000000  0.5118920000000 1.0
C      1  0.4654270000000  0.4917130000000  0.4897660000000 1.0
C      1  0.5637750000000  0.4533930000000  0.4640470000000 1.0
C      1  0.4348040000000  0.5486800000000  0.5340860000000 1.0
C      1  0.5224460000000  0.5178570000000  0.5643030000000 1.0
C      1  0.4759030000000  0.4829130000000  0.4318520000000 1.0
END
