TITL C-3578194-7807-623 -1.74682206488542e-07 125000 -96.9291177932279 0 0 17 (D2d) n - 1
REM
REM in /home/bkarasulu/work/CARBON/AIRSS/Generating-Clusters/EDIP-Nigel-Params/with-SteepDescent/Higher-Symm/SD-CG/HFTN-CG
REM
REM
REM
REM
REM
REM ./C.cell (12c818d87b63d06a65506943cc24bca4)
REM
REM compiler GCC version 9.2.1 20190827 (Red Hat 9.2.1-1)
REM options -cpp -mtune=generic -march=x86-64 -g -O0 -fpre-include=/usr/include/finclude/math-vector-fortran.h
REM seed -247104520 -1821591581 1176709547 -250925864 596070824 2021995532 -1173428286 1371776682 -1688198926 1142203755 1408263696 -1280706985 -490660982 -2068161567 87399990 829020033 -1288248615 144282914 217420150 -1502960112 -1235408713 -1813690125 -455025318 2002617011 1600275635 774485530 -413948913 2139327556 -1478096941 -1224328060 -937429345 -455759980 -244313219
REM
CELL 1.54180   50.00000   50.00000   50.00000   90.00000   90.00000   90.00000
LATT -1
SFAC C  
C      1  0.5306600000000  0.4646680000000  0.4876590000000 1.0
C      1  0.4653530000000  0.4674230000000  0.5117880000000 1.0
C      1  0.4718470000000  0.5384730000000  0.4875600000000 1.0
C      1  0.5302550000000  0.5359340000000  0.5121170000000 1.0
C      1  0.4855430000000  0.4619740000000  0.5289480000000 1.0
C      1  0.5100810000000  0.4610190000000  0.4704840000000 1.0
C      1  0.4888050000000  0.5332230000000  0.4671490000000 1.0
C      1  0.5129070000000  0.5320860000000  0.5325140000000 1.0
C      1  0.5122560000000  0.4653840000000  0.5315070000000 1.0
C      1  0.4837570000000  0.4667060000000  0.4679390000000 1.0
C      1  0.4908600000000  0.5180660000000  0.5220980000000 1.0
C      1  0.5095730000000  0.5173380000000  0.4775160000000 1.0
C      1  0.5209170000000  0.4800300000000  0.5091110000000 1.0
C      1  0.4763760000000  0.4819650000000  0.4903840000000 1.0
C      1  0.5326120000000  0.5313190000000  0.4855670000000 1.0
C      1  0.4691000000000  0.5339900000000  0.5140950000000 1.0
C      1  0.4994310000000  0.4993500000000  0.4997770000000 1.0
END
