TITL C-3578203-1966-742 -6.08650127580568e-07 125000 -1152.22169213092 0 0 187 (C1) n - 1
REM
REM in /home/bkarasulu/work/CARBON/AIRSS/Generating-Clusters/EDIP-Nigel-Params/with-SteepDescent/Higher-Symm/SD-CG/HFTN-CG
REM
REM
REM
REM
REM
REM ./C.cell (12c818d87b63d06a65506943cc24bca4)
REM
REM compiler GCC version 9.2.1 20190827 (Red Hat 9.2.1-1)
REM options -cpp -mtune=generic -march=x86-64 -g -O0 -fpre-include=/usr/include/finclude/math-vector-fortran.h
REM seed 903495087 1062389592 -1327473107 -450729333 981484884 -773201350 820010733 369075087 -646178390 1654819473 1611946095 -1071855226 -1750412014 1016266985 372327646 -1853030406 162270998 2011341505 1190140532 -1943030427 -157830002 -1187193763 -1867310270 1711772336 -1549773893 -709607730 1295013103 2018939824 3724161 209131478 -840955313 -240957482 -18973441
REM
CELL 1.54180   50.00000   50.00000   50.00000   90.00000   90.00000   90.00000
LATT -1
SFAC C  
C      1  0.4869790000000  0.5603880000000  0.4244280000000 1.0
C      1  0.5602600000000  0.4342400000000  0.4576570000000 1.0
C      1  0.5697570000000  0.5602250000000  0.5219730000000 1.0
C      1  0.5071150000000  0.4303600000000  0.5847100000000 1.0
C      1  0.4398920000000  0.5596600000000  0.5495450000000 1.0
C      1  0.4319460000000  0.4409550000000  0.4731640000000 1.0
C      1  0.4408630000000  0.4295130000000  0.5179060000000 1.0
C      1  0.4562020000000  0.5647500000000  0.4573720000000 1.0
C      1  0.5149810000000  0.4270650000000  0.4389550000000 1.0
C      1  0.5446020000000  0.5854650000000  0.4795630000000 1.0
C      1  0.5427630000000  0.4252310000000  0.5462100000000 1.0
C      1  0.4807800000000  0.5710500000000  0.5575400000000 1.0
C      1  0.5014130000000  0.5582140000000  0.6004350000000 1.0
C      1  0.4106970000000  0.4472780000000  0.5511270000000 1.0
C      1  0.4137350000000  0.5549000000000  0.4499740000000 1.0
C      1  0.5033640000000  0.4444370000000  0.3953260000000 1.0
C      1  0.5844960000000  0.5608050000000  0.4465030000000 1.0
C      1  0.5876050000000  0.4404010000000  0.5581150000000 1.0
C      1  0.5522610000000  0.4744260000000  0.5551080000000 1.0
C      1  0.4882650000000  0.5243550000000  0.5689940000000 1.0
C      1  0.4353530000000  0.4829240000000  0.5253360000000 1.0
C      1  0.4485430000000  0.5169620000000  0.4543960000000 1.0
C      1  0.5186170000000  0.4764880000000  0.4258010000000 1.0
C      1  0.5671990000000  0.5236650000000  0.4701930000000 1.0
C      1  0.5317330000000  0.4380290000000  0.5208880000000 1.0
C      1  0.4984020000000  0.5666600000000  0.5321170000000 1.0
C      1  0.4694820000000  0.4366780000000  0.5121880000000 1.0
C      1  0.4714510000000  0.5540600000000  0.4835200000000 1.0
C      1  0.5020740000000  0.4400060000000  0.4632250000000 1.0
C      1  0.5279890000000  0.5611600000000  0.4776410000000 1.0
C      1  0.4145560000000  0.5169800000000  0.4182850000000 1.0
C      1  0.5218460000000  0.4905870000000  0.3983940000000 1.0
C      1  0.6058500000000  0.5185540000000  0.4641430000000 1.0
C      1  0.5785260000000  0.4800530000000  0.5833600000000 1.0
C      1  0.4731820000000  0.5187640000000  0.6139740000000 1.0
C      1  0.3851940000000  0.4827140000000  0.5319590000000 1.0
C      1  0.4247580000000  0.4853750000000  0.5685640000000 1.0
C      1  0.4023270000000  0.5174650000000  0.4706700000000 1.0
C      1  0.4766120000000  0.4818190000000  0.3993870000000 1.0
C      1  0.5733630000000  0.5165880000000  0.4240540000000 1.0
C      1  0.6004510000000  0.4800100000000  0.5354510000000 1.0
C      1  0.5227060000000  0.5138740000000  0.6049790000000 1.0
C      1  0.4545440000000  0.4642280000000  0.4816500000000 1.0
C      1  0.4961490000000  0.5349530000000  0.4424600000000 1.0
C      1  0.5464640000000  0.4612390000000  0.4655550000000 1.0
C      1  0.5493950000000  0.5383180000000  0.5135980000000 1.0
C      1  0.5064530000000  0.4662100000000  0.5499570000000 1.0
C      1  0.4556430000000  0.5383710000000  0.5341680000000 1.0
C      1  0.5262200000000  0.4480410000000  0.5991670000000 1.0
C      1  0.4320930000000  0.5473450000000  0.5753720000000 1.0
C      1  0.4056300000000  0.4530370000000  0.4772630000000 1.0
C      1  0.4704400000000  0.5480050000000  0.4030570000000 1.0
C      1  0.5721730000000  0.4457730000000  0.4322630000000 1.0
C      1  0.5968420000000  0.5478290000000  0.5191800000000 1.0
C      1  0.4978500000000  0.4045520000000  0.5459850000000 1.0
C      1  0.4588710000000  0.6023950000000  0.5302040000000 1.0
C      1  0.4477910000000  0.3959350000000  0.4772370000000 1.0
C      1  0.4804050000000  0.6057420000000  0.4495410000000 1.0
C      1  0.5372270000000  0.3937730000000  0.4693220000000 1.0
C      1  0.5493930000000  0.6020080000000  0.5201350000000 1.0
C      1  0.5571040000000  0.4044900000000  0.5005250000000 1.0
C      1  0.5436480000000  0.5896700000000  0.5460760000000 1.0
C      1  0.4706800000000  0.4072190000000  0.5532550000000 1.0
C      1  0.4401720000000  0.5985280000000  0.5097090000000 1.0
C      1  0.4667600000000  0.4095730000000  0.4556290000000 1.0
C      1  0.5149960000000  0.5925470000000  0.4415730000000 1.0
C      1  0.4325480000000  0.5148160000000  0.4830890000000 1.0
C      1  0.4828090000000  0.4838520000000  0.4304880000000 1.0
C      1  0.5493380000000  0.5131820000000  0.4429810000000 1.0
C      1  0.5707130000000  0.4869190000000  0.5339750000000 1.0
C      1  0.5074650000000  0.5046530000000  0.5805330000000 1.0
C      1  0.4587550000000  0.4869180000000  0.5504500000000 1.0
C      1  0.5885890000000  0.4269420000000  0.5306440000000 1.0
C      1  0.5243290000000  0.5694690000000  0.5831340000000 1.0
C      1  0.4347210000000  0.4373460000000  0.5646110000000 1.0
C      1  0.4131990000000  0.5663130000000  0.4777970000000 1.0
C      1  0.4785110000000  0.4345210000000  0.4090880000000 1.0
C      1  0.5617030000000  0.5746230000000  0.4336290000000 1.0
C      1  0.5268630000000  0.4150990000000  0.5025700000000 1.0
C      1  0.4996310000000  0.5930230000000  0.5145880000000 1.0
C      1  0.4808980000000  0.4100960000000  0.5030920000000 1.0
C      1  0.4841060000000  0.5836810000000  0.4880070000000 1.0
C      1  0.4904560000000  0.4134820000000  0.4746750000000 1.0
C      1  0.5044040000000  0.5729690000000  0.4650350000000 1.0
C      1  0.5258230000000  0.6045290000000  0.5028280000000 1.0
C      1  0.5044830000000  0.4006880000000  0.5178570000000 1.0
C      1  0.4933420000000  0.6066850000000  0.5472510000000 1.0
C      1  0.4620520000000  0.3875040000000  0.5009250000000 1.0
C      1  0.4657840000000  0.6039860000000  0.4755420000000 1.0
C      1  0.5096680000000  0.3919140000000  0.4724780000000 1.0
C      1  0.5339480000000  0.5638100000000  0.4008940000000 1.0
C      1  0.6076900000000  0.4612140000000  0.4960650000000 1.0
C      1  0.5596840000000  0.5312950000000  0.5887230000000 1.0
C      1  0.4605620000000  0.4533730000000  0.6054960000000 1.0
C      1  0.3872710000000  0.5407790000000  0.5167940000000 1.0
C      1  0.4307810000000  0.4570930000000  0.4130260000000 1.0
C      1  0.5524280000000  0.4441560000000  0.4116880000000 1.0
C      1  0.6030600000000  0.5456820000000  0.4906690000000 1.0
C      1  0.5545930000000  0.4509100000000  0.5925170000000 1.0
C      1  0.4543810000000  0.5446070000000  0.5941060000000 1.0
C      1  0.3977410000000  0.4581030000000  0.5053940000000 1.0
C      1  0.4429540000000  0.5420930000000  0.4124570000000 1.0
C      1  0.5008240000000  0.4724000000000  0.3852710000000 1.0
C      1  0.5946790000000  0.5334860000000  0.4370930000000 1.0
C      1  0.5995010000000  0.4673810000000  0.5627880000000 1.0
C      1  0.5013540000000  0.5315160000000  0.6164550000000 1.0
C      1  0.3990510000000  0.4733780000000  0.5571640000000 1.0
C      1  0.3995810000000  0.5294240000000  0.4426120000000 1.0
C      1  0.5489170000000  0.5542610000000  0.5757540000000 1.0
C      1  0.4393710000000  0.4382090000000  0.5929500000000 1.0
C      1  0.3884740000000  0.5591530000000  0.4923570000000 1.0
C      1  0.4515310000000  0.4406200000000  0.3989940000000 1.0
C      1  0.5593030000000  0.5752310000000  0.4055440000000 1.0
C      1  0.5897310000000  0.4403880000000  0.5037760000000 1.0
C      1  0.4457080000000  0.4432850000000  0.4373340000000 1.0
C      1  0.5116720000000  0.5755330000000  0.4161710000000 1.0
C      1  0.5744300000000  0.4241420000000  0.4842430000000 1.0
C      1  0.5618200000000  0.5678480000000  0.5522480000000 1.0
C      1  0.4761740000000  0.4404590000000  0.5801160000000 1.0
C      1  0.4150680000000  0.5544480000000  0.5201200000000 1.0
C      1  0.4335340000000  0.5309010000000  0.5162130000000 1.0
C      1  0.4572080000000  0.4688950000000  0.4497660000000 1.0
C      1  0.5225390000000  0.5259470000000  0.4310030000000 1.0
C      1  0.5666780000000  0.4722850000000  0.4838920000000 1.0
C      1  0.5437750000000  0.5253960000000  0.5378830000000 1.0
C      1  0.4813940000000  0.4672220000000  0.5653700000000 1.0
C      1  0.4814650000000  0.4952580000000  0.5062040000000 1.0
C      1  0.4895290000000  0.5039430000000  0.4801110000000 1.0
C      1  0.5122080000000  0.4879240000000  0.4753470000000 1.0
C      1  0.5570250000000  0.4891750000000  0.5061980000000 1.0
C      1  0.5219430000000  0.5055960000000  0.5335370000000 1.0
C      1  0.4936820000000  0.5149580000000  0.5254750000000 1.0
C      1  0.4553840000000  0.5851410000000  0.5526230000000 1.0
C      1  0.4309260000000  0.4167850000000  0.4904970000000 1.0
C      1  0.4702010000000  0.5808810000000  0.4380830000000 1.0
C      1  0.5405470000000  0.4136300000000  0.4488940000000 1.0
C      1  0.5673320000000  0.5840780000000  0.5031790000000 1.0
C      1  0.5191280000000  0.4139910000000  0.5629410000000 1.0
C      1  0.5647560000000  0.4084640000000  0.5305920000000 1.0
C      1  0.5187690000000  0.5919460000000  0.5622660000000 1.0
C      1  0.4452740000000  0.4170600000000  0.5465520000000 1.0
C      1  0.4319350000000  0.5896720000000  0.4841630000000 1.0
C      1  0.4856850000000  0.4148210000000  0.4302590000000 1.0
C      1  0.5454550000000  0.5935910000000  0.4496670000000 1.0
C      1  0.4318830000000  0.4871100000000  0.4462710000000 1.0
C      1  0.5152100000000  0.5204480000000  0.4015490000000 1.0
C      1  0.5861470000000  0.4850040000000  0.4648830000000 1.0
C      1  0.5707580000000  0.5141820000000  0.5468310000000 1.0
C      1  0.4915680000000  0.4819620000000  0.5918490000000 1.0
C      1  0.4195390000000  0.5102190000000  0.5331360000000 1.0
C      1  0.5596960000000  0.5166170000000  0.4970550000000 1.0
C      1  0.5234070000000  0.4881670000000  0.5576420000000 1.0
C      1  0.4723690000000  0.5160210000000  0.5463640000000 1.0
C      1  0.4397110000000  0.4871820000000  0.4952980000000 1.0
C      1  0.4757090000000  0.5123420000000  0.4390240000000 1.0
C      1  0.5423230000000  0.4830460000000  0.4432870000000 1.0
C      1  0.4410940000000  0.5447290000000  0.4423880000000 1.0
C      1  0.5236710000000  0.4473000000000  0.4175000000000 1.0
C      1  0.5794270000000  0.5523670000000  0.4742550000000 1.0
C      1  0.5585970000000  0.4454360000000  0.5636050000000 1.0
C      1  0.4805130000000  0.5501730000000  0.5806730000000 1.0
C      1  0.4209600000000  0.4540610000000  0.5237020000000 1.0
C      1  0.5849380000000  0.4725670000000  0.4367110000000 1.0
C      1  0.5976790000000  0.5242610000000  0.5367500000000 1.0
C      1  0.5129050000000  0.4709410000000  0.6105310000000 1.0
C      1  0.4160640000000  0.5236970000000  0.5693540000000 1.0
C      1  0.4049330000000  0.4752230000000  0.4591360000000 1.0
C      1  0.4852210000000  0.5249730000000  0.3934500000000 1.0
C      1  0.5128140000000  0.4610340000000  0.5214580000000 1.0
C      1  0.4968540000000  0.5435000000000  0.5135710000000 1.0
C      1  0.4851580000000  0.4624450000000  0.5050130000000 1.0
C      1  0.4936440000000  0.5335160000000  0.4733180000000 1.0
C      1  0.5186990000000  0.4591480000000  0.4773370000000 1.0
C      1  0.5242320000000  0.5472110000000  0.5019220000000 1.0
C      1  0.4191070000000  0.5038820000000  0.5896080000000 1.0
C      1  0.3867400000000  0.4939660000000  0.4691400000000 1.0
C      1  0.4680340000000  0.5045370000000  0.3852700000000 1.0
C      1  0.5835790000000  0.4915720000000  0.4158360000000 1.0
C      1  0.6164430000000  0.5035430000000  0.5331500000000 1.0
C      1  0.5292420000000  0.4913760000000  0.6210290000000 1.0
C      1  0.6120430000000  0.4824020000000  0.4780130000000 1.0
C      1  0.5711230000000  0.5089040000000  0.5759310000000 1.0
C      1  0.4683940000000  0.4897360000000  0.6084220000000 1.0
C      1  0.3920390000000  0.5102060000000  0.5221620000000 1.0
C      1  0.4263010000000  0.4887100000000  0.4170860000000 1.0
C      1  0.5309670000000  0.5395850000000  0.3863610000000 1.0
C      1  0.5274690000000  0.4865250000000  0.5107360000000 1.0
END
