TITL C-3577089-586-229 -1.75139639862582e-07 125000 -72.2027884548056 0 0 13 (C1) n - 1
REM
REM in /home/bkarasulu/work/CARBON/AIRSS/Generating-Clusters/EDIP-Nigel-Params/with-SteepDescent/Higher-Symm/SD-CG/HFTN-CG
REM
REM
REM
REM
REM
REM ./C.cell (12c818d87b63d06a65506943cc24bca4)
REM
REM compiler GCC version 9.2.1 20190827 (Red Hat 9.2.1-1)
REM options -cpp -mtune=generic -march=x86-64 -g -O0 -fpre-include=/usr/include/finclude/math-vector-fortran.h
REM seed 452430166 -360556950 1129585087 -1920790466 722453959 390444634 -1194238098 -1409525435 1584243636 -1042242827 -1551331977 -805170563 1009245996 28733189 -1705388696 881979469 -152741538 -1716725138 -241878984 -1880611127 373504475 2145190268 -498138534 1708261907 -918290286 -770688969 2095361746 1656746994 -1181310074 1524728312 -730327114 -646891020 -335577454
REM
CELL 1.54180   50.00000   50.00000   50.00000   90.00000   90.00000   90.00000
LATT -1
SFAC C  
C      1  0.4740380000000  0.4874480000000  0.4778440000000 1.0
C      1  0.5331810000000  0.4867020000000  0.4851490000000 1.0
C      1  0.4986920000000  0.4868620000000  0.5346500000000 1.0
C      1  0.4720250000000  0.4891450000000  0.5218410000000 1.0
C      1  0.5342590000000  0.4880910000000  0.5150230000000 1.0
C      1  0.4993460000000  0.4889050000000  0.4627510000000 1.0
C      1  0.5139480000000  0.4636340000000  0.5176340000000 1.0
C      1  0.4792000000000  0.4662950000000  0.5010070000000 1.0
C      1  0.5113040000000  0.4638050000000  0.4792280000000 1.0
C      1  0.4736470000000  0.5098530000000  0.4990510000000 1.0
C      1  0.5157720000000  0.5113660000000  0.5244330000000 1.0
C      1  0.5168140000000  0.5116570000000  0.4754950000000 1.0
C      1  0.5017990000000  0.5226430000000  0.4997420000000 1.0
END
