TITL C-3577085-527-698 -7.41795684495322e-07 125000 -560.503402732678 0 0 89 (C1) n - 1
REM
REM in /home/bkarasulu/work/CARBON/AIRSS/Generating-Clusters/EDIP-Nigel-Params/with-SteepDescent/Higher-Symm/SD-CG/HFTN-CG
REM
REM
REM
REM
REM
REM ./C.cell (12c818d87b63d06a65506943cc24bca4)
REM
REM compiler GCC version 9.2.1 20190827 (Red Hat 9.2.1-1)
REM options -cpp -mtune=generic -march=x86-64 -g -O0 -fpre-include=/usr/include/finclude/math-vector-fortran.h
REM seed -1167754455 1320088666 1846155165 -978359555 1442982224 1995064097 305539584 1861921527 -693665446 1215637278 1549555794 -549767884 -177651456 -916743005 1449857068 1807418935 -447744598 1558926686 -27590296 1215715696 -602440440 1433346095 977406355 1342076368 -951905817 529509234 282533931 47466164 -353780245 -886330970 1613454891 2019681227 1459471662
REM
CELL 1.54180   50.00000   50.00000   50.00000   90.00000   90.00000   90.00000
LATT -1
SFAC C  
C      1  0.4235290000000  0.5044290000000  0.5225880000000 1.0
C      1  0.4225970000000  0.5220330000000  0.4995610000000 1.0
C      1  0.4206030000000  0.5062880000000  0.4748590000000 1.0
C      1  0.4198720000000  0.4780680000000  0.4833230000000 1.0
C      1  0.4216350000000  0.4775740000000  0.5126810000000 1.0
C      1  0.5799880000000  0.5030090000000  0.5209380000000 1.0
C      1  0.5740300000000  0.5211330000000  0.4992550000000 1.0
C      1  0.5778220000000  0.5057660000000  0.4745300000000 1.0
C      1  0.5794720000000  0.4767270000000  0.4818700000000 1.0
C      1  0.5746290000000  0.4765520000000  0.5106440000000 1.0
C      1  0.5436010000000  0.4692360000000  0.4492860000000 1.0
C      1  0.5504520000000  0.4352940000000  0.5113510000000 1.0
C      1  0.5491380000000  0.4900620000000  0.5558740000000 1.0
C      1  0.5587710000000  0.5551230000000  0.5307780000000 1.0
C      1  0.5486460000000  0.5404290000000  0.4546360000000 1.0
C      1  0.4531850000000  0.4705690000000  0.4483310000000 1.0
C      1  0.4505770000000  0.4400070000000  0.5107200000000 1.0
C      1  0.4420600000000  0.4870490000000  0.5662560000000 1.0
C      1  0.4485550000000  0.5565900000000  0.5249090000000 1.0
C      1  0.4508850000000  0.5391990000000  0.4554910000000 1.0
C      1  0.5532690000000  0.4605910000000  0.5523160000000 1.0
C      1  0.5640020000000  0.5363630000000  0.5552250000000 1.0
C      1  0.5556370000000  0.5634170000000  0.4802670000000 1.0
C      1  0.5516270000000  0.4951800000000  0.4326090000000 1.0
C      1  0.5538000000000  0.4330240000000  0.4795050000000 1.0
C      1  0.4413890000000  0.4579440000000  0.5551170000000 1.0
C      1  0.4446220000000  0.5370710000000  0.5535020000000 1.0
C      1  0.4407530000000  0.5614000000000  0.4752040000000 1.0
C      1  0.4466930000000  0.4967520000000  0.4321110000000 1.0
C      1  0.4440330000000  0.4343370000000  0.4804750000000 1.0
C      1  0.4319780000000  0.5103950000000  0.5496110000000 1.0
C      1  0.4315450000000  0.5493910000000  0.5009560000000 1.0
C      1  0.4316730000000  0.5166780000000  0.4492720000000 1.0
C      1  0.4316900000000  0.4578140000000  0.4657900000000 1.0
C      1  0.4300000000000  0.4537660000000  0.5273390000000 1.0
C      1  0.5705350000000  0.5079870000000  0.5479130000000 1.0
C      1  0.5709020000000  0.5499760000000  0.5032700000000 1.0
C      1  0.5660870000000  0.5158130000000  0.4495750000000 1.0
C      1  0.5662870000000  0.4563990000000  0.4646000000000 1.0
C      1  0.5679540000000  0.4535930000000  0.5269690000000 1.0
C      1  0.5334490000000  0.4671020000000  0.4971940000000 1.0
C      1  0.5256640000000  0.4867740000000  0.5197350000000 1.0
C      1  0.5302890000000  0.5482520000000  0.5243790000000 1.0
C      1  0.5261710000000  0.5304890000000  0.4749090000000 1.0
C      1  0.5275370000000  0.4815480000000  0.4704540000000 1.0
C      1  0.4700050000000  0.4632320000000  0.5079980000000 1.0
C      1  0.4720290000000  0.4930970000000  0.5426520000000 1.0
C      1  0.4762910000000  0.5408180000000  0.5224540000000 1.0
C      1  0.4694290000000  0.5261980000000  0.4757140000000 1.0
C      1  0.4727160000000  0.4824270000000  0.4683850000000 1.0
C      1  0.5274330000000  0.5751650000000  0.4860960000000 1.0
C      1  0.5260040000000  0.5104910000000  0.4305830000000 1.0
C      1  0.5263860000000  0.4292410000000  0.4665870000000 1.0
C      1  0.5264720000000  0.4468180000000  0.5508070000000 1.0
C      1  0.5368070000000  0.5326580000000  0.5703390000000 1.0
C      1  0.4649550000000  0.5751140000000  0.4853480000000 1.0
C      1  0.4733900000000  0.5109260000000  0.4286180000000 1.0
C      1  0.4705830000000  0.4330870000000  0.4669070000000 1.0
C      1  0.4689650000000  0.4443720000000  0.5529450000000 1.0
C      1  0.4707930000000  0.5336920000000  0.5683110000000 1.0
C      1  0.5258570000000  0.4265020000000  0.5288080000000 1.0
C      1  0.5325540000000  0.5034450000000  0.5766540000000 1.0
C      1  0.5180290000000  0.5742510000000  0.5141240000000 1.0
C      1  0.5270830000000  0.5406600000000  0.4297510000000 1.0
C      1  0.5246900000000  0.4456130000000  0.4410200000000 1.0
C      1  0.4710750000000  0.4240470000000  0.5295130000000 1.0
C      1  0.4772230000000  0.5041310000000  0.5709260000000 1.0
C      1  0.4640930000000  0.5826970000000  0.5141970000000 1.0
C      1  0.4725800000000  0.5410110000000  0.4309180000000 1.0
C      1  0.4711590000000  0.4464630000000  0.4398300000000 1.0
C      1  0.4857510000000  0.4551750000000  0.4819170000000 1.0
C      1  0.4826010000000  0.4664380000000  0.5365960000000 1.0
C      1  0.4894940000000  0.5460860000000  0.5493670000000 1.0
C      1  0.4830300000000  0.5505700000000  0.4895860000000 1.0
C      1  0.4852970000000  0.5070800000000  0.4568760000000 1.0
C      1  0.5124280000000  0.4435520000000  0.4905230000000 1.0
C      1  0.5112900000000  0.4713140000000  0.5423740000000 1.0
C      1  0.5174220000000  0.5392380000000  0.5490160000000 1.0
C      1  0.5089180000000  0.5546140000000  0.4752830000000 1.0
C      1  0.5154970000000  0.5068790000000  0.4590480000000 1.0
C      1  0.4917480000000  0.5837230000000  0.5200940000000 1.0
C      1  0.4986900000000  0.4214340000000  0.5178900000000 1.0
C      1  0.5048300000000  0.4976220000000  0.5775570000000 1.0
C      1  0.4980530000000  0.4503170000000  0.4327900000000 1.0
C      1  0.4999210000000  0.5498570000000  0.4324900000000 1.0
C      1  0.4772270000000  0.5100010000000  0.5177400000000 1.0
C      1  0.5050900000000  0.5049360000000  0.5079150000000 1.0
C      1  0.4576250000000  0.4965810000000  0.4960970000000 1.0
C      1  0.5306300000000  0.5224050000000  0.5048600000000 1.0
END
