TITL C-3577085-527-568 7.43102834920303e-08 125000 -528.540936386902 0 0 84 (C1) n - 1
REM
REM in /home/bkarasulu/work/CARBON/AIRSS/Generating-Clusters/EDIP-Nigel-Params/with-SteepDescent/Higher-Symm/SD-CG/HFTN-CG
REM
REM
REM
REM
REM
REM ./C.cell (12c818d87b63d06a65506943cc24bca4)
REM
REM compiler GCC version 9.2.1 20190827 (Red Hat 9.2.1-1)
REM options -cpp -mtune=generic -march=x86-64 -g -O0 -fpre-include=/usr/include/finclude/math-vector-fortran.h
REM seed -44266697 1790380190 154583508 -1571327871 -713435082 1594834290 -1951342072 2079973286 412228296 1733928970 850942855 -1683919532 1237245722 -5405712 -696728049 103227217 -122448490 1347712535 -1049065049 -1226803664 2075001135 292840114 -35469164 2001909231 -1233935455 1813852590 772243556 -1248595275 -114570726 1852501372 -1448032959 -1574371855 1164979650
REM
CELL 1.54180   50.00000   50.00000   50.00000   90.00000   90.00000   90.00000
LATT -1
SFAC C  
C      1  0.4311020000000  0.5022140000000  0.5143900000000 1.0
C      1  0.4925860000000  0.5002860000000  0.5694850000000 1.0
C      1  0.5648930000000  0.5016120000000  0.5291450000000 1.0
C      1  0.5475150000000  0.5028840000000  0.4472120000000 1.0
C      1  0.4641250000000  0.5014610000000  0.4376400000000 1.0
C      1  0.4307280000000  0.5013660000000  0.4852730000000 1.0
C      1  0.4921070000000  0.5016290000000  0.4295400000000 1.0
C      1  0.5643000000000  0.5030580000000  0.4709250000000 1.0
C      1  0.5482950000000  0.5000630000000  0.5532310000000 1.0
C      1  0.4655310000000  0.5019780000000  0.5588860000000 1.0
C      1  0.5681640000000  0.4775760000000  0.5135570000000 1.0
C      1  0.5349430000000  0.4777970000000  0.4390380000000 1.0
C      1  0.4531740000000  0.4763010000000  0.4479290000000 1.0
C      1  0.4334370000000  0.4773230000000  0.5296510000000 1.0
C      1  0.5068840000000  0.4744450000000  0.5704220000000 1.0
C      1  0.5666200000000  0.5276740000000  0.4862270000000 1.0
C      1  0.5363360000000  0.5247180000000  0.5629120000000 1.0
C      1  0.4533850000000  0.5281340000000  0.5519950000000 1.0
C      1  0.4355070000000  0.5257980000000  0.4705190000000 1.0
C      1  0.5064820000000  0.5267270000000  0.4314740000000 1.0
C      1  0.4976560000000  0.4839780000000  0.5287030000000 1.0
C      1  0.5247370000000  0.4812410000000  0.5070580000000 1.0
C      1  0.5161990000000  0.4922250000000  0.4761560000000 1.0
C      1  0.4843060000000  0.4795670000000  0.4789250000000 1.0
C      1  0.4714730000000  0.4853660000000  0.5090380000000 1.0
C      1  0.4979070000000  0.5200520000000  0.4743490000000 1.0
C      1  0.5241010000000  0.5234500000000  0.4969160000000 1.0
C      1  0.5167290000000  0.5127300000000  0.5253320000000 1.0
C      1  0.4839630000000  0.5187020000000  0.5224420000000 1.0
C      1  0.4723300000000  0.5143680000000  0.4916200000000 1.0
C      1  0.4959540000000  0.4506070000000  0.4366170000000 1.0
C      1  0.4419210000000  0.4522560000000  0.4864390000000 1.0
C      1  0.4644070000000  0.4506860000000  0.5546300000000 1.0
C      1  0.5401070000000  0.4500460000000  0.5456280000000 1.0
C      1  0.5592390000000  0.4517820000000  0.4748630000000 1.0
C      1  0.4967000000000  0.5510660000000  0.5634790000000 1.0
C      1  0.4423860000000  0.5522880000000  0.5125680000000 1.0
C      1  0.4646950000000  0.5531500000000  0.4445750000000 1.0
C      1  0.5402920000000  0.5542670000000  0.4521660000000 1.0
C      1  0.5596550000000  0.5523980000000  0.5258350000000 1.0
C      1  0.5706110000000  0.4777820000000  0.4843700000000 1.0
C      1  0.5077810000000  0.4768240000000  0.4283410000000 1.0
C      1  0.4351890000000  0.4761970000000  0.4711430000000 1.0
C      1  0.4503460000000  0.4772810000000  0.5538250000000 1.0
C      1  0.5353340000000  0.4746320000000  0.5614080000000 1.0
C      1  0.5703200000000  0.5269290000000  0.5152860000000 1.0
C      1  0.5083760000000  0.5248900000000  0.5721080000000 1.0
C      1  0.4357280000000  0.5279600000000  0.5281940000000 1.0
C      1  0.4502380000000  0.5266650000000  0.4450340000000 1.0
C      1  0.5349270000000  0.5279840000000  0.4382120000000 1.0
C      1  0.5088080000000  0.4295890000000  0.4802480000000 1.0
C      1  0.4803390000000  0.4173260000000  0.4856270000000 1.0
C      1  0.4800020000000  0.4294870000000  0.5160880000000 1.0
C      1  0.5182070000000  0.4100000000000  0.5250850000000 1.0
C      1  0.5303940000000  0.4157530000000  0.4974970000000 1.0
C      1  0.5102350000000  0.5766140000000  0.5250170000000 1.0
C      1  0.4728250000000  0.5916240000000  0.5076030000000 1.0
C      1  0.4626370000000  0.5938260000000  0.4800240000000 1.0
C      1  0.5136920000000  0.5732900000000  0.4822050000000 1.0
C      1  0.5325030000000  0.5916990000000  0.5111460000000 1.0
C      1  0.5153260000000  0.4350310000000  0.5423250000000 1.0
C      1  0.5538770000000  0.4342240000000  0.4987320000000 1.0
C      1  0.5168360000000  0.4348790000000  0.4514090000000 1.0
C      1  0.4597380000000  0.4341400000000  0.4710670000000 1.0
C      1  0.4550370000000  0.4345730000000  0.5312300000000 1.0
C      1  0.5142530000000  0.5691530000000  0.4522520000000 1.0
C      1  0.5525940000000  0.5707690000000  0.5029270000000 1.0
C      1  0.5180750000000  0.5673040000000  0.5512480000000 1.0
C      1  0.4677060000000  0.5651650000000  0.5209780000000 1.0
C      1  0.4535410000000  0.5693410000000  0.4675200000000 1.0
C      1  0.5424670000000  0.5506280000000  0.5502550000000 1.0
C      1  0.5524500000000  0.5519840000000  0.4792190000000 1.0
C      1  0.4939910000000  0.5501040000000  0.4424750000000 1.0
C      1  0.4367050000000  0.5517200000000  0.4837690000000 1.0
C      1  0.4712530000000  0.5518260000000  0.5481310000000 1.0
C      1  0.5414670000000  0.4518050000000  0.4509890000000 1.0
C      1  0.5554130000000  0.4530630000000  0.5212700000000 1.0
C      1  0.4942860000000  0.4509590000000  0.5575590000000 1.0
C      1  0.4364080000000  0.4513860000000  0.5154710000000 1.0
C      1  0.4689570000000  0.4515820000000  0.4489100000000 1.0
C      1  0.5027910000000  0.5492830000000  0.4993150000000 1.0
C      1  0.5013030000000  0.4564230000000  0.4955120000000 1.0
C      1  0.4992600000000  0.5996940000000  0.4915510000000 1.0
C      1  0.4907860000000  0.4019320000000  0.5197430000000 1.0
END
