TITL C-3578207-9274-466 -1.13829632363791e-06 125000 -233.084935709551 0 0 39 (C1) n - 1
REM
REM in /home/bkarasulu/work/CARBON/AIRSS/Generating-Clusters/EDIP-Nigel-Params/with-SteepDescent/Higher-Symm/SD-CG/HFTN-CG
REM
REM
REM
REM
REM
REM ./C.cell (12c818d87b63d06a65506943cc24bca4)
REM
REM compiler GCC version 9.2.1 20190827 (Red Hat 9.2.1-1)
REM options -cpp -mtune=generic -march=x86-64 -g -O0 -fpre-include=/usr/include/finclude/math-vector-fortran.h
REM seed -419205368 1949998802 -1372760527 1239971764 -481761597 -1884860792 -920600435 -278824173 1473090939 1529339842 1813384474 2007583024 102357052 -1302014919 1703844309 1561461514 332133553 -1577764262 930007460 -1938169339 -1040634672 815326229 -1770584191 711983124 113036146 -551733604 -617469041 53826953 1414865336 467083135 -1207752676 1009517668 189672139
REM
CELL 1.54180   50.00000   50.00000   50.00000   90.00000   90.00000   90.00000
LATT -1
SFAC C  
C      1  0.5058600000000  0.4524120000000  0.4735260000000 1.0
C      1  0.5037720000000  0.5435070000000  0.5272520000000 1.0
C      1  0.5030570000000  0.5442480000000  0.4745060000000 1.0
C      1  0.5034210000000  0.4546520000000  0.5281710000000 1.0
C      1  0.4994100000000  0.5194130000000  0.5685660000000 1.0
C      1  0.5011380000000  0.4792760000000  0.4329930000000 1.0
C      1  0.4986960000000  0.4811780000000  0.5681570000000 1.0
C      1  0.4980370000000  0.5175760000000  0.4342980000000 1.0
C      1  0.5504340000000  0.5283960000000  0.5151480000000 1.0
C      1  0.5519450000000  0.4685610000000  0.4875140000000 1.0
C      1  0.5512570000000  0.4684660000000  0.5158870000000 1.0
C      1  0.5497720000000  0.5289610000000  0.4870700000000 1.0
C      1  0.4812890000000  0.4980200000000  0.4804430000000 1.0
C      1  0.4731310000000  0.5051540000000  0.5226230000000 1.0
C      1  0.4667270000000  0.5224480000000  0.4881870000000 1.0
C      1  0.4981580000000  0.4901950000000  0.5035750000000 1.0
C      1  0.4600660000000  0.5275970000000  0.5399830000000 1.0
C      1  0.4662230000000  0.4779040000000  0.4650810000000 1.0
C      1  0.4611600000000  0.4805200000000  0.5363300000000 1.0
C      1  0.4569850000000  0.5340580000000  0.4614260000000 1.0
C      1  0.4866370000000  0.4610530000000  0.4516810000000 1.0
C      1  0.4857620000000  0.5376450000000  0.5498390000000 1.0
C      1  0.4850820000000  0.5386150000000  0.4513020000000 1.0
C      1  0.4836290000000  0.4647030000000  0.5486080000000 1.0
C      1  0.4424370000000  0.4898520000000  0.5552460000000 1.0
C      1  0.4427490000000  0.5155550000000  0.4456570000000 1.0
C      1  0.4426700000000  0.5167280000000  0.5595100000000 1.0
C      1  0.4472330000000  0.4889910000000  0.4475550000000 1.0
C      1  0.5267600000000  0.5143630000000  0.5589060000000 1.0
C      1  0.5284740000000  0.4839450000000  0.4430460000000 1.0
C      1  0.5268100000000  0.4838970000000  0.5595470000000 1.0
C      1  0.5258460000000  0.5143320000000  0.4437720000000 1.0
C      1  0.5279120000000  0.5282060000000  0.5326260000000 1.0
C      1  0.5299240000000  0.4686470000000  0.4687580000000 1.0
C      1  0.5285610000000  0.4687650000000  0.5338810000000 1.0
C      1  0.5270020000000  0.5282320000000  0.4699200000000 1.0
C      1  0.4912550000000  0.5484070000000  0.5011830000000 1.0
C      1  0.4935960000000  0.4523660000000  0.5005260000000 1.0
C      1  0.5302230000000  0.4978950000000  0.5012340000000 1.0
END
