TITL C-3577091-527-141 -4.82875526745381e-06 125000 -1030.87399227417 0 0 167 (C1) n - 1
REM
REM in /home/bkarasulu/work/CARBON/AIRSS/Generating-Clusters/EDIP-Nigel-Params/with-SteepDescent/Higher-Symm/SD-CG/HFTN-CG
REM
REM
REM
REM
REM
REM ./C.cell (12c818d87b63d06a65506943cc24bca4)
REM
REM compiler GCC version 9.2.1 20190827 (Red Hat 9.2.1-1)
REM options -cpp -mtune=generic -march=x86-64 -g -O0 -fpre-include=/usr/include/finclude/math-vector-fortran.h
REM seed -487661850 1894784060 -833560678 1812211321 -1313753549 1178300638 -912950795 451193390 -1692851077 -1577874879 -1140337829 -1735864162 1518380878 -661891551 1439608640 -1736784759 -548622399 -1889429485 -208225144 2103127865 860186437 -95714013 -1386714092 -1682494512 449342070 2069860419 -405450075 931597321 -1400212426 -2088846281 58036083 -132664131 -808210636
REM
CELL 1.54180   50.00000   50.00000   50.00000   90.00000   90.00000   90.00000
LATT -1
SFAC C  
C      1  0.5015150000000  0.4333800000000  0.4308570000000 1.0
C      1  0.5657630000000  0.4812010000000  0.4250290000000 1.0
C      1  0.5451270000000  0.5570200000000  0.4295190000000 1.0
C      1  0.4581180000000  0.5553270000000  0.4254610000000 1.0
C      1  0.4380720000000  0.4786220000000  0.4278500000000 1.0
C      1  0.5035370000000  0.4326210000000  0.5742130000000 1.0
C      1  0.5652740000000  0.4804410000000  0.5687890000000 1.0
C      1  0.5391510000000  0.5555830000000  0.5728360000000 1.0
C      1  0.4586550000000  0.5575290000000  0.5732860000000 1.0
C      1  0.4345010000000  0.4741600000000  0.5732620000000 1.0
C      1  0.5686570000000  0.5123280000000  0.4266390000000 1.0
C      1  0.5069190000000  0.5674200000000  0.4277050000000 1.0
C      1  0.4384820000000  0.5291120000000  0.4267400000000 1.0
C      1  0.4552700000000  0.4528510000000  0.4287800000000 1.0
C      1  0.5338660000000  0.4418710000000  0.4232270000000 1.0
C      1  0.5677950000000  0.5141610000000  0.5772330000000 1.0
C      1  0.5071090000000  0.5655090000000  0.5709260000000 1.0
C      1  0.4391440000000  0.5239840000000  0.5701970000000 1.0
C      1  0.4561560000000  0.4482690000000  0.5762350000000 1.0
C      1  0.5330580000000  0.4417490000000  0.5727370000000 1.0
C      1  0.5452740000000  0.5286940000000  0.4186530000000 1.0
C      1  0.4853430000000  0.5523570000000  0.4126670000000 1.0
C      1  0.4487880000000  0.5036230000000  0.4154560000000 1.0
C      1  0.4827820000000  0.4545510000000  0.4192860000000 1.0
C      1  0.5395840000000  0.4701570000000  0.4173200000000 1.0
C      1  0.5429220000000  0.5283000000000  0.5851550000000 1.0
C      1  0.4858050000000  0.5506520000000  0.5848660000000 1.0
C      1  0.4473080000000  0.4994350000000  0.5856310000000 1.0
C      1  0.4836700000000  0.4510240000000  0.5861830000000 1.0
C      1  0.5407180000000  0.4684130000000  0.5830600000000 1.0
C      1  0.4748780000000  0.5000630000000  0.5958580000000 1.0
C      1  0.4919440000000  0.4766220000000  0.5967230000000 1.0
C      1  0.5199740000000  0.4850150000000  0.5957740000000 1.0
C      1  0.5207070000000  0.5144150000000  0.5982870000000 1.0
C      1  0.4925100000000  0.5238770000000  0.5958590000000 1.0
C      1  0.4755890000000  0.5030110000000  0.4042580000000 1.0
C      1  0.4919160000000  0.4788390000000  0.4060840000000 1.0
C      1  0.5198750000000  0.4870230000000  0.4050230000000 1.0
C      1  0.5214390000000  0.5161880000000  0.4070570000000 1.0
C      1  0.4937870000000  0.5259430000000  0.4035820000000 1.0
C      1  0.5212630000000  0.5038420000000  0.5558560000000 1.0
C      1  0.5002160000000  0.5264440000000  0.5525360000000 1.0
C      1  0.4729310000000  0.5113140000000  0.5532430000000 1.0
C      1  0.4769810000000  0.4804160000000  0.5547770000000 1.0
C      1  0.5069200000000  0.4726210000000  0.5556360000000 1.0
C      1  0.5241290000000  0.5072790000000  0.4501890000000 1.0
C      1  0.5059280000000  0.5328480000000  0.4454530000000 1.0
C      1  0.4765000000000  0.5225360000000  0.4440070000000 1.0
C      1  0.4767710000000  0.4892590000000  0.4461860000000 1.0
C      1  0.5087340000000  0.4816920000000  0.4464720000000 1.0
C      1  0.6044480000000  0.5336000000000  0.5414970000000 1.0
C      1  0.4996170000000  0.6006630000000  0.5264150000000 1.0
C      1  0.3958890000000  0.5302230000000  0.5382990000000 1.0
C      1  0.4400770000000  0.4117430000000  0.5401230000000 1.0
C      1  0.5579150000000  0.4172210000000  0.5318490000000 1.0
C      1  0.6002490000000  0.5270070000000  0.4690720000000 1.0
C      1  0.4936840000000  0.6081110000000  0.4649350000000 1.0
C      1  0.4037080000000  0.5302140000000  0.4657050000000 1.0
C      1  0.4390380000000  0.4180290000000  0.4663720000000 1.0
C      1  0.5637990000000  0.4153390000000  0.4596070000000 1.0
C      1  0.5821900000000  0.4278940000000  0.4815620000000 1.0
C      1  0.5995430000000  0.5510960000000  0.4887140000000 1.0
C      1  0.4689200000000  0.6101330000000  0.4815630000000 1.0
C      1  0.3934570000000  0.5091710000000  0.4854650000000 1.0
C      1  0.4556710000000  0.4005130000000  0.4867150000000 1.0
C      1  0.5792300000000  0.4277870000000  0.5125970000000 1.0
C      1  0.5971440000000  0.5549000000000  0.5197320000000 1.0
C      1  0.4729600000000  0.6084610000000  0.5118090000000 1.0
C      1  0.3876970000000  0.5091940000000  0.5162880000000 1.0
C      1  0.4577220000000  0.3977850000000  0.5183890000000 1.0
C      1  0.5585290000000  0.4964960000000  0.4652760000000 1.0
C      1  0.5365140000000  0.5616890000000  0.4603410000000 1.0
C      1  0.4581080000000  0.5372590000000  0.4655590000000 1.0
C      1  0.4535230000000  0.4709760000000  0.4683230000000 1.0
C      1  0.5049680000000  0.4390970000000  0.4608100000000 1.0
C      1  0.5584670000000  0.4861900000000  0.5395070000000 1.0
C      1  0.5280880000000  0.5523340000000  0.5358250000000 1.0
C      1  0.4526520000000  0.5467280000000  0.5371660000000 1.0
C      1  0.4397190000000  0.4691560000000  0.5407140000000 1.0
C      1  0.5135680000000  0.4471410000000  0.5337700000000 1.0
C      1  0.5589850000000  0.4362160000000  0.4388220000000 1.0
C      1  0.5868130000000  0.5314450000000  0.4422700000000 1.0
C      1  0.4885850000000  0.5905250000000  0.4399570000000 1.0
C      1  0.4143380000000  0.5180940000000  0.4411550000000 1.0
C      1  0.4539250000000  0.4247360000000  0.4413510000000 1.0
C      1  0.5577830000000  0.4322790000000  0.5578240000000 1.0
C      1  0.5830440000000  0.5358570000000  0.5627090000000 1.0
C      1  0.4933870000000  0.5862160000000  0.5534350000000 1.0
C      1  0.4108260000000  0.5166990000000  0.5605640000000 1.0
C      1  0.4576220000000  0.4217580000000  0.5624760000000 1.0
C      1  0.5144650000000  0.4694050000000  0.5123640000000 1.0
C      1  0.5398730000000  0.5054100000000  0.5309290000000 1.0
C      1  0.5048310000000  0.5389200000000  0.5253510000000 1.0
C      1  0.4576000000000  0.5203830000000  0.5300850000000 1.0
C      1  0.4662290000000  0.4690590000000  0.5297410000000 1.0
C      1  0.5172140000000  0.4628870000000  0.4687830000000 1.0
C      1  0.5317470000000  0.5088330000000  0.4797440000000 1.0
C      1  0.5127130000000  0.5477630000000  0.4705400000000 1.0
C      1  0.4686510000000  0.5189810000000  0.4871900000000 1.0
C      1  0.4782340000000  0.4733010000000  0.4874390000000 1.0
C      1  0.5665800000000  0.4701500000000  0.5174240000000 1.0
C      1  0.5507530000000  0.5533170000000  0.5182980000000 1.0
C      1  0.4617840000000  0.5641010000000  0.5164700000000 1.0
C      1  0.4246350000000  0.4842470000000  0.5207440000000 1.0
C      1  0.4924820000000  0.4283310000000  0.5215250000000 1.0
C      1  0.5665120000000  0.4709040000000  0.4790110000000 1.0
C      1  0.5564150000000  0.5518450000000  0.4790460000000 1.0
C      1  0.4667690000000  0.5639200000000  0.4782810000000 1.0
C      1  0.4311750000000  0.4853400000000  0.4826430000000 1.0
C      1  0.4919160000000  0.4259650000000  0.4829610000000 1.0
C      1  0.6099340000000  0.4745020000000  0.4861080000000 1.0
C      1  0.5636310000000  0.5952220000000  0.4821840000000 1.0
C      1  0.4251830000000  0.5812150000000  0.4833360000000 1.0
C      1  0.3990380000000  0.4549630000000  0.4850750000000 1.0
C      1  0.5081430000000  0.3851730000000  0.4842970000000 1.0
C      1  0.6111530000000  0.4707520000000  0.5165580000000 1.0
C      1  0.5543010000000  0.5962590000000  0.5105130000000 1.0
C      1  0.4239380000000  0.5868710000000  0.5133790000000 1.0
C      1  0.3931470000000  0.4540640000000  0.5151630000000 1.0
C      1  0.5115740000000  0.3892450000000  0.5146400000000 1.0
C      1  0.4096680000000  0.4330470000000  0.5279650000000 1.0
C      1  0.5327470000000  0.4099920000000  0.5184090000000 1.0
C      1  0.6112520000000  0.4971940000000  0.5299840000000 1.0
C      1  0.5248450000000  0.6034850000000  0.5093250000000 1.0
C      1  0.4087580000000  0.5652210000000  0.5266170000000 1.0
C      1  0.4241850000000  0.4398800000000  0.4805330000000 1.0
C      1  0.5333490000000  0.3937780000000  0.4711410000000 1.0
C      1  0.5984210000000  0.5016600000000  0.4834600000000 1.0
C      1  0.5384650000000  0.5907480000000  0.4661470000000 1.0
C      1  0.4187390000000  0.5525900000000  0.4788840000000 1.0
C      1  0.3962240000000  0.4825490000000  0.5297200000000 1.0
C      1  0.4866850000000  0.3995860000000  0.5310860000000 1.0
C      1  0.5884800000000  0.4529570000000  0.5275560000000 1.0
C      1  0.5721480000000  0.5703420000000  0.5302330000000 1.0
C      1  0.4526760000000  0.5909030000000  0.5261740000000 1.0
C      1  0.4030410000000  0.4828100000000  0.4715390000000 1.0
C      1  0.4828070000000  0.3997580000000  0.4717670000000 1.0
C      1  0.5911570000000  0.4552360000000  0.4693110000000 1.0
C      1  0.5809100000000  0.5693850000000  0.4714330000000 1.0
C      1  0.4515250000000  0.5882010000000  0.4691630000000 1.0
C      1  0.4920340000000  0.5641390000000  0.5148810000000 1.0
C      1  0.4315120000000  0.5137040000000  0.5186360000000 1.0
C      1  0.4652100000000  0.4412100000000  0.5192980000000 1.0
C      1  0.5421900000000  0.4524690000000  0.5104090000000 1.0
C      1  0.5600110000000  0.5246470000000  0.5174850000000 1.0
C      1  0.4972530000000  0.5681980000000  0.4847980000000 1.0
C      1  0.4375860000000  0.5142060000000  0.4887560000000 1.0
C      1  0.4673800000000  0.4432520000000  0.4887190000000 1.0
C      1  0.5439280000000  0.4498370000000  0.4780630000000 1.0
C      1  0.5596790000000  0.5228880000000  0.4870650000000 1.0
C      1  0.5802910000000  0.4525570000000  0.5580780000000 1.0
C      1  0.5674450000000  0.5611150000000  0.5595750000000 1.0
C      1  0.4637330000000  0.5841640000000  0.5564600000000 1.0
C      1  0.4054420000000  0.4873540000000  0.5604850000000 1.0
C      1  0.4856380000000  0.4111120000000  0.5614810000000 1.0
C      1  0.5795730000000  0.4579130000000  0.4387470000000 1.0
C      1  0.5764470000000  0.5594130000000  0.4406250000000 1.0
C      1  0.4592930000000  0.5829120000000  0.4391940000000 1.0
C      1  0.4129070000000  0.4881520000000  0.4421330000000 1.0
C      1  0.4797770000000  0.4089880000000  0.4408210000000 1.0
C      1  0.5416710000000  0.4133250000000  0.4909210000000 1.0
C      1  0.5142470000000  0.5953120000000  0.4819850000000 1.0
C      1  0.5957930000000  0.5122100000000  0.5104510000000 1.0
C      1  0.4117920000000  0.5447630000000  0.5063730000000 1.0
C      1  0.4298650000000  0.4300700000000  0.5076060000000 1.0
C      1  0.5019430000000  0.4946810000000  0.5244840000000 1.0
C      1  0.4891730000000  0.4990380000000  0.4767140000000 1.0
END
