TITL C-3578203-1966-337 -3.25881874434662e-06 125000 -854.038010627672 0 0 135 (C1) n - 1
REM
REM in /home/bkarasulu/work/CARBON/AIRSS/Generating-Clusters/EDIP-Nigel-Params/with-SteepDescent/Higher-Symm/SD-CG/HFTN-CG
REM
REM
REM
REM
REM
REM ./C.cell (12c818d87b63d06a65506943cc24bca4)
REM
REM compiler GCC version 9.2.1 20190827 (Red Hat 9.2.1-1)
REM options -cpp -mtune=generic -march=x86-64 -g -O0 -fpre-include=/usr/include/finclude/math-vector-fortran.h
REM seed 619465040 -427854007 -1689477514 985710694 947952516 2051304161 -35774419 1195116138 -415575278 -1310383248 2042202016 -1147496661 688284582 -2060399108 2127818596 1288473516 852328311 1413717528 -1659227581 547345945 -1640626451 -258878515 1657795660 1129279840 -1248658676 955679981 166289927 370093387 -512728433 479980786 729342699 1919672985 -1190798164
REM
CELL 1.54180   50.00000   50.00000   50.00000   90.00000   90.00000   90.00000
LATT -1
SFAC C  
C      1  0.5171940000000  0.3909550000000  0.5467120000000 1.0
C      1  0.5181890000000  0.6113740000000  0.4549140000000 1.0
C      1  0.4803690000000  0.6102990000000  0.5451520000000 1.0
C      1  0.4828330000000  0.3935160000000  0.4559250000000 1.0
C      1  0.4979330000000  0.4860900000000  0.5924450000000 1.0
C      1  0.5006430000000  0.5109570000000  0.4168820000000 1.0
C      1  0.5051870000000  0.5143480000000  0.5886440000000 1.0
C      1  0.5063530000000  0.4843670000000  0.4027250000000 1.0
C      1  0.5234420000000  0.5296640000000  0.4174050000000 1.0
C      1  0.5203050000000  0.4671720000000  0.5879140000000 1.0
C      1  0.4824220000000  0.4657150000000  0.4094990000000 1.0
C      1  0.4833530000000  0.5332460000000  0.5847830000000 1.0
C      1  0.5154470000000  0.5200710000000  0.5370710000000 1.0
C      1  0.5271040000000  0.4870590000000  0.4541510000000 1.0
C      1  0.4664090000000  0.4707160000000  0.5503220000000 1.0
C      1  0.4615410000000  0.5436830000000  0.4523260000000 1.0
C      1  0.4695830000000  0.4769980000000  0.5934550000000 1.0
C      1  0.4737690000000  0.5233400000000  0.4093900000000 1.0
C      1  0.5323070000000  0.5246560000000  0.5848150000000 1.0
C      1  0.5346050000000  0.4737040000000  0.4080580000000 1.0
C      1  0.4255720000000  0.5182730000000  0.4563200000000 1.0
C      1  0.4201850000000  0.4810780000000  0.5457360000000 1.0
C      1  0.5702360000000  0.4792080000000  0.4521770000000 1.0
C      1  0.5749140000000  0.5200470000000  0.5390050000000 1.0
C      1  0.4422940000000  0.4574520000000  0.4411920000000 1.0
C      1  0.4481920000000  0.5392090000000  0.5533480000000 1.0
C      1  0.5529960000000  0.5386260000000  0.4553330000000 1.0
C      1  0.5521590000000  0.4598370000000  0.5507040000000 1.0
C      1  0.4828900000000  0.5156010000000  0.4851760000000 1.0
C      1  0.4860780000000  0.4809130000000  0.5127110000000 1.0
C      1  0.5211300000000  0.4762990000000  0.4824410000000 1.0
C      1  0.5281380000000  0.5150000000000  0.5088460000000 1.0
C      1  0.5644490000000  0.4504210000000  0.4939970000000 1.0
C      1  0.5562130000000  0.5552920000000  0.5074050000000 1.0
C      1  0.4386580000000  0.5474510000000  0.4946450000000 1.0
C      1  0.4395780000000  0.4523130000000  0.5071090000000 1.0
C      1  0.4866590000000  0.6094910000000  0.4928890000000 1.0
C      1  0.4862450000000  0.3929590000000  0.5078430000000 1.0
C      1  0.5126580000000  0.3938690000000  0.4948940000000 1.0
C      1  0.5122540000000  0.6157410000000  0.5070230000000 1.0
C      1  0.5558170000000  0.4948140000000  0.4135230000000 1.0
C      1  0.5526400000000  0.5033170000000  0.5804700000000 1.0
C      1  0.4512250000000  0.5045680000000  0.4148870000000 1.0
C      1  0.4483160000000  0.4972010000000  0.5858020000000 1.0
C      1  0.4735620000000  0.5840480000000  0.5070070000000 1.0
C      1  0.4699050000000  0.4146850000000  0.4953550000000 1.0
C      1  0.5257900000000  0.4180850000000  0.5085110000000 1.0
C      1  0.5354830000000  0.5988010000000  0.4957280000000 1.0
C      1  0.5833680000000  0.5060100000000  0.5158370000000 1.0
C      1  0.5662000000000  0.5039300000000  0.4692100000000 1.0
C      1  0.4212740000000  0.5031320000000  0.5252310000000 1.0
C      1  0.4227010000000  0.4960790000000  0.4759190000000 1.0
C      1  0.5425030000000  0.5800050000000  0.5171290000000 1.0
C      1  0.5494000000000  0.4253600000000  0.4905530000000 1.0
C      1  0.4482250000000  0.4246670000000  0.5109910000000 1.0
C      1  0.4517830000000  0.5734760000000  0.4905730000000 1.0
C      1  0.4812630000000  0.4246540000000  0.5411280000000 1.0
C      1  0.4885470000000  0.5783270000000  0.4582470000000 1.0
C      1  0.5146840000000  0.5771550000000  0.5317380000000 1.0
C      1  0.5160910000000  0.4292080000000  0.4627620000000 1.0
C      1  0.5135530000000  0.4385790000000  0.4352390000000 1.0
C      1  0.5130700000000  0.5647860000000  0.5597380000000 1.0
C      1  0.4922370000000  0.5679690000000  0.4294930000000 1.0
C      1  0.4870940000000  0.4363550000000  0.5681460000000 1.0
C      1  0.5193170000000  0.5566620000000  0.4283000000000 1.0
C      1  0.5149500000000  0.4408900000000  0.5752350000000 1.0
C      1  0.4861660000000  0.4411840000000  0.4266820000000 1.0
C      1  0.4866650000000  0.5597940000000  0.5708060000000 1.0
C      1  0.5798520000000  0.4602620000000  0.5404150000000 1.0
C      1  0.5814280000000  0.5443880000000  0.4623260000000 1.0
C      1  0.4261600000000  0.5306170000000  0.5367370000000 1.0
C      1  0.4255150000000  0.4684560000000  0.4635150000000 1.0
C      1  0.5876290000000  0.4465180000000  0.5134840000000 1.0
C      1  0.5830200000000  0.5545900000000  0.4913750000000 1.0
C      1  0.4167350000000  0.5481030000000  0.5154890000000 1.0
C      1  0.4161180000000  0.4525390000000  0.4869210000000 1.0
C      1  0.5996400000000  0.4825810000000  0.5267130000000 1.0
C      1  0.5935450000000  0.5177790000000  0.4698530000000 1.0
C      1  0.3949960000000  0.5094320000000  0.5120080000000 1.0
C      1  0.3955910000000  0.4920740000000  0.4888570000000 1.0
C      1  0.4660360000000  0.4399300000000  0.4510040000000 1.0
C      1  0.4649720000000  0.5635260000000  0.5511370000000 1.0
C      1  0.5370580000000  0.5640250000000  0.4505990000000 1.0
C      1  0.5361640000000  0.4353450000000  0.5549530000000 1.0
C      1  0.4266800000000  0.5434670000000  0.4679910000000 1.0
C      1  0.4393120000000  0.4600820000000  0.5378760000000 1.0
C      1  0.5727420000000  0.4532700000000  0.4650600000000 1.0
C      1  0.5659060000000  0.5456170000000  0.5336880000000 1.0
C      1  0.5009510000000  0.5039200000000  0.4465630000000 1.0
C      1  0.5126010000000  0.4913740000000  0.5512580000000 1.0
C      1  0.4776310000000  0.4864360000000  0.4521240000000 1.0
C      1  0.4761960000000  0.5046610000000  0.5481450000000 1.0
C      1  0.4947440000000  0.5616640000000  0.5114890000000 1.0
C      1  0.5036270000000  0.4512380000000  0.4817450000000 1.0
C      1  0.5016050000000  0.4397750000000  0.5117190000000 1.0
C      1  0.5081960000000  0.5553640000000  0.4827190000000 1.0
C      1  0.4914070000000  0.6072890000000  0.4631990000000 1.0
C      1  0.4913350000000  0.3969590000000  0.5370870000000 1.0
C      1  0.5083010000000  0.4003030000000  0.4662190000000 1.0
C      1  0.5061460000000  0.6058460000000  0.5346050000000 1.0
C      1  0.5439700000000  0.5152730000000  0.4336520000000 1.0
C      1  0.5377170000000  0.4807340000000  0.5678720000000 1.0
C      1  0.4618000000000  0.4794950000000  0.4275730000000 1.0
C      1  0.4619820000000  0.5190960000000  0.5703820000000 1.0
C      1  0.5986610000000  0.5260820000000  0.4984040000000 1.0
C      1  0.6094520000000  0.4645110000000  0.5058080000000 1.0
C      1  0.3924720000000  0.4648450000000  0.4958600000000 1.0
C      1  0.3923900000000  0.5370740000000  0.5063530000000 1.0
C      1  0.4954990000000  0.4662320000000  0.5363250000000 1.0
C      1  0.4903160000000  0.5334600000000  0.4644560000000 1.0
C      1  0.4820580000000  0.5316040000000  0.5264040000000 1.0
C      1  0.4764670000000  0.4622870000000  0.4707780000000 1.0
C      1  0.4523880000000  0.4233030000000  0.5388170000000 1.0
C      1  0.4603900000000  0.5718100000000  0.4632340000000 1.0
C      1  0.5564080000000  0.5562820000000  0.5570650000000 1.0
C      1  0.5522720000000  0.4329390000000  0.4552270000000 1.0
C      1  0.4684660000000  0.5492080000000  0.4231830000000 1.0
C      1  0.4661310000000  0.4502620000000  0.5829010000000 1.0
C      1  0.5340450000000  0.4612710000000  0.4357850000000 1.0
C      1  0.5308220000000  0.5416660000000  0.5601230000000 1.0
C      1  0.4300280000000  0.5153940000000  0.4291380000000 1.0
C      1  0.4256370000000  0.4877610000000  0.5722980000000 1.0
C      1  0.5783740000000  0.4826610000000  0.4252240000000 1.0
C      1  0.5746250000000  0.5110250000000  0.5651950000000 1.0
C      1  0.4600320000000  0.5237000000000  0.5017280000000 1.0
C      1  0.4612470000000  0.4724410000000  0.4976060000000 1.0
C      1  0.5457750000000  0.4723190000000  0.4999480000000 1.0
C      1  0.5329850000000  0.5401420000000  0.4941130000000 1.0
C      1  0.4658930000000  0.4132720000000  0.4663580000000 1.0
C      1  0.4648000000000  0.5891750000000  0.5351840000000 1.0
C      1  0.5312000000000  0.5889330000000  0.4673100000000 1.0
C      1  0.5333820000000  0.4116490000000  0.5369440000000 1.0
C      1  0.4421880000000  0.4984120000000  0.5005390000000 1.0
C      1  0.5576100000000  0.4990200000000  0.4992010000000 1.0
C      1  0.5044650000000  0.4979390000000  0.4967740000000 1.0
END
