TITL C-3578205-846-408 -4.05579456879984e-06 125000 -198.517661713169 0 0 33 (C1) n - 1
REM
REM in /home/bkarasulu/work/CARBON/AIRSS/Generating-Clusters/EDIP-Nigel-Params/with-SteepDescent/Higher-Symm/SD-CG/HFTN-CG
REM
REM
REM
REM
REM
REM ./C.cell (12c818d87b63d06a65506943cc24bca4)
REM
REM compiler GCC version 9.2.1 20190827 (Red Hat 9.2.1-1)
REM options -cpp -mtune=generic -march=x86-64 -g -O0 -fpre-include=/usr/include/finclude/math-vector-fortran.h
REM seed 1978421432 443232023 2068581675 452968471 1927858161 -1758965089 -798820576 638794103 938838694 -399755814 -1145743325 -247110367 -1164310872 -2066340284 65664465 -612508990 1003353362 264533184 -489208510 -606512359 -285046299 1188373750 -922389794 590294637 -1017500087 1566582362 1449704250 2102602042 882880979 1514678137 -1458822923 -1539702921 325195960
REM
CELL 1.54180   50.00000   50.00000   50.00000   90.00000   90.00000   90.00000
LATT -1
SFAC C  
C      1  0.5253080000000  0.5012150000000  0.4791880000000 1.0
C      1  0.5007880000000  0.5374210000000  0.4679320000000 1.0
C      1  0.4737930000000  0.5275980000000  0.4783890000000 1.0
C      1  0.4728590000000  0.4893290000000  0.4799640000000 1.0
C      1  0.4875240000000  0.4754970000000  0.4578480000000 1.0
C      1  0.5079830000000  0.4574460000000  0.4716850000000 1.0
C      1  0.5337050000000  0.4725290000000  0.4749840000000 1.0
C      1  0.5255930000000  0.4530860000000  0.5186050000000 1.0
C      1  0.5538380000000  0.4928540000000  0.5152800000000 1.0
C      1  0.5361140000000  0.5374120000000  0.5093250000000 1.0
C      1  0.4914950000000  0.5540230000000  0.5145200000000 1.0
C      1  0.4497100000000  0.5308900000000  0.5229570000000 1.0
C      1  0.4431470000000  0.4871020000000  0.5209300000000 1.0
C      1  0.4768580000000  0.4546430000000  0.5151280000000 1.0
C      1  0.5021410000000  0.4478690000000  0.5005960000000 1.0
C      1  0.5465480000000  0.4664280000000  0.5020050000000 1.0
C      1  0.5472080000000  0.5141140000000  0.4953450000000 1.0
C      1  0.5130030000000  0.5497370000000  0.4941580000000 1.0
C      1  0.4664690000000  0.5439680000000  0.5025910000000 1.0
C      1  0.4321920000000  0.5116280000000  0.5119690000000 1.0
C      1  0.4578100000000  0.4714570000000  0.4999510000000 1.0
C      1  0.5174730000000  0.4704350000000  0.5421000000000 1.0
C      1  0.5366000000000  0.4978090000000  0.5400860000000 1.0
C      1  0.5279200000000  0.5298140000000  0.5376820000000 1.0
C      1  0.4985110000000  0.5414120000000  0.5411690000000 1.0
C      1  0.4658980000000  0.5206270000000  0.5463590000000 1.0
C      1  0.4609990000000  0.4904180000000  0.5448510000000 1.0
C      1  0.4835890000000  0.4692840000000  0.5407230000000 1.0
C      1  0.5163550000000  0.5150550000000  0.4540800000000 1.0
C      1  0.4978460000000  0.5021070000000  0.4940810000000 1.0
C      1  0.4980430000000  0.5012890000000  0.5242150000000 1.0
C      1  0.5000770000000  0.5064160000000  0.5570550000000 1.0
C      1  0.4997850000000  0.4955090000000  0.4413760000000 1.0
END
