TITL C-3578206-1180-202 -1.95314026844707e-06 125000 -532.75584159575 0 0 83 (T23) n - 1
REM
REM in /home/bkarasulu/work/CARBON/AIRSS/Generating-Clusters/EDIP-Nigel-Params/with-SteepDescent/Higher-Symm/SD-CG/HFTN-CG
REM
REM
REM
REM
REM
REM ./C.cell (12c818d87b63d06a65506943cc24bca4)
REM
REM compiler GCC version 9.2.1 20190827 (Red Hat 9.2.1-1)
REM options -cpp -mtune=generic -march=x86-64 -g -O0 -fpre-include=/usr/include/finclude/math-vector-fortran.h
REM seed 1086971419 655732255 1571082967 -1111519272 865889568 1235999979 1915030849 685561478 1872670632 860943003 1242114344 -297550909 1949414468 -18691964 473296198 1099781046 -267258510 1160815602 356724820 -712413472 1273162287 -2220293 470407487 -178856401 485063554 -759556549 -363931576 -1021647848 348464455 734354393 1493817359 -772189028 -2069359606
REM
CELL 1.54180   50.00000   50.00000   50.00000   90.00000   90.00000   90.00000
LATT -1
SFAC C  
C      1  0.5123430000000  0.4468730000000  0.4404270000000 1.0
C      1  0.4404730000000  0.5125160000000  0.4460720000000 1.0
C      1  0.4464070000000  0.4409360000000  0.5120050000000 1.0
C      1  0.4864830000000  0.4468520000000  0.5579330000000 1.0
C      1  0.5118650000000  0.5529660000000  0.5578970000000 1.0
C      1  0.4862340000000  0.5528100000000  0.4403400000000 1.0
C      1  0.5579010000000  0.5129800000000  0.5522120000000 1.0
C      1  0.4404590000000  0.4868320000000  0.5521130000000 1.0
C      1  0.5580920000000  0.4871740000000  0.4462000000000 1.0
C      1  0.5524580000000  0.4412840000000  0.4863620000000 1.0
C      1  0.4460290000000  0.5584520000000  0.4861910000000 1.0
C      1  0.5520300000000  0.5588300000000  0.5120390000000 1.0
C      1  0.5206660000000  0.4840600000000  0.5513170000000 1.0
C      1  0.5513110000000  0.5214760000000  0.4832680000000 1.0
C      1  0.4831130000000  0.5519710000000  0.5205340000000 1.0
C      1  0.4779060000000  0.4838530000000  0.4470000000000 1.0
C      1  0.5206580000000  0.5158380000000  0.4470230000000 1.0
C      1  0.4776950000000  0.5157510000000  0.5512570000000 1.0
C      1  0.4470050000000  0.5211370000000  0.5150060000000 1.0
C      1  0.5514270000000  0.4786330000000  0.5151310000000 1.0
C      1  0.4471830000000  0.4782570000000  0.4831920000000 1.0
C      1  0.5149930000000  0.5520550000000  0.4777040000000 1.0
C      1  0.4835110000000  0.4476710000000  0.4777330000000 1.0
C      1  0.5153080000000  0.4478050000000  0.5206260000000 1.0
C      1  0.4219190000000  0.5424440000000  0.4805740000000 1.0
C      1  0.4809790000000  0.4226540000000  0.5420200000000 1.0
C      1  0.5422130000000  0.4815020000000  0.4220180000000 1.0
C      1  0.5762490000000  0.5429940000000  0.5176750000000 1.0
C      1  0.4221770000000  0.4567780000000  0.5175750000000 1.0
C      1  0.5765790000000  0.4572860000000  0.4807730000000 1.0
C      1  0.5180130000000  0.4227310000000  0.4563680000000 1.0
C      1  0.4805330000000  0.5769700000000  0.4562430000000 1.0
C      1  0.5174010000000  0.5771470000000  0.5419660000000 1.0
C      1  0.4563760000000  0.4812980000000  0.5763020000000 1.0
C      1  0.5419370000000  0.5185420000000  0.5763630000000 1.0
C      1  0.4563990000000  0.5181590000000  0.4219140000000 1.0
C      1  0.5386160000000  0.4989000000000  0.5333440000000 1.0
C      1  0.5332530000000  0.5394060000000  0.4980290000000 1.0
C      1  0.4979460000000  0.5340500000000  0.5385420000000 1.0
C      1  0.4598540000000  0.4985910000000  0.4649560000000 1.0
C      1  0.5386740000000  0.5011210000000  0.4650310000000 1.0
C      1  0.4597800000000  0.5008900000000  0.5332670000000 1.0
C      1  0.4649390000000  0.5391730000000  0.5002230000000 1.0
C      1  0.5335210000000  0.4605790000000  0.5003350000000 1.0
C      1  0.4652110000000  0.4603440000000  0.4980090000000 1.0
C      1  0.5002820000000  0.5340130000000  0.4597160000000 1.0
C      1  0.4982560000000  0.4656930000000  0.4597540000000 1.0
C      1  0.5004400000000  0.4657460000000  0.5385840000000 1.0
C      1  0.4211330000000  0.4775590000000  0.4965090000000 1.0
C      1  0.4969430000000  0.4216770000000  0.4771450000000 1.0
C      1  0.4772690000000  0.4971770000000  0.4209520000000 1.0
C      1  0.5774810000000  0.4780980000000  0.5018160000000 1.0
C      1  0.4209770000000  0.5216560000000  0.5016390000000 1.0
C      1  0.5773350000000  0.5221890000000  0.4966340000000 1.0
C      1  0.5020560000000  0.4217200000000  0.5212440000000 1.0
C      1  0.4963640000000  0.5780560000000  0.5211480000000 1.0
C      1  0.5015630000000  0.5780480000000  0.4770590000000 1.0
C      1  0.5212110000000  0.4974180000000  0.5773490000000 1.0
C      1  0.4771000000000  0.5024230000000  0.5773030000000 1.0
C      1  0.5213450000000  0.5024840000000  0.4209920000000 1.0
C      1  0.4220430000000  0.5319500000000  0.4545540000000 1.0
C      1  0.4549630000000  0.4226210000000  0.5315160000000 1.0
C      1  0.5318230000000  0.4554400000000  0.4220850000000 1.0
C      1  0.5761980000000  0.5325300000000  0.5437070000000 1.0
C      1  0.4221780000000  0.4672720000000  0.5435950000000 1.0
C      1  0.5765060000000  0.4677500000000  0.4547410000000 1.0
C      1  0.5440280000000  0.4228890000000  0.4668730000000 1.0
C      1  0.4544970000000  0.5768250000000  0.4666970000000 1.0
C      1  0.5434370000000  0.5771670000000  0.5315120000000 1.0
C      1  0.4669440000000  0.4553080000000  0.5762650000000 1.0
C      1  0.5313680000000  0.5445320000000  0.5762760000000 1.0
C      1  0.4667890000000  0.5442210000000  0.4219710000000 1.0
C      1  0.4036160000000  0.4995480000000  0.4990570000000 1.0
C      1  0.4995590000000  0.4042610000000  0.4992050000000 1.0
C      1  0.4989040000000  0.5954900000000  0.4990940000000 1.0
C      1  0.4991380000000  0.4999310000000  0.5947650000000 1.0
C      1  0.4993240000000  0.4998200000000  0.4035340000000 1.0
C      1  0.5948460000000  0.5002030000000  0.4992420000000 1.0
C      1  0.5180100000000  0.4812320000000  0.4804820000000 1.0
C      1  0.4804890000000  0.5184970000000  0.4804240000000 1.0
C      1  0.4805810000000  0.4811260000000  0.5178390000000 1.0
C      1  0.5178450000000  0.5186470000000  0.5178530000000 1.0
C      1  0.4992310000000  0.4998750000000  0.4991490000000 1.0
END
