TITL C-3577079-311-65 -3.89607809512706e-06 125000 -1164.44165261566 0 0 188 (C2) n - 1
REM
REM in /home/bkarasulu/work/CARBON/AIRSS/Generating-Clusters/EDIP-Nigel-Params/with-SteepDescent/Higher-Symm/SD-CG/HFTN-CG
REM
REM
REM
REM
REM
REM ./C.cell (12c818d87b63d06a65506943cc24bca4)
REM
REM compiler GCC version 9.2.1 20190827 (Red Hat 9.2.1-1)
REM options -cpp -mtune=generic -march=x86-64 -g -O0 -fpre-include=/usr/include/finclude/math-vector-fortran.h
REM seed 1778634790 -2042076789 285633106 1031676830 1283979949 -293924370 -352303781 -182372735 -649042836 -2064795577 1818258195 -1782566788 1395172439 1687962567 348272511 955231573 1473173033 -1768607586 596149101 1345541307 -2060985689 30530372 -418266452 -711046883 -1853269765 -229660829 1842016027 1929369821 -135202483 -1681703651 -244675838 -986446306 -448799992
REM
CELL 1.54180   50.00000   50.00000   50.00000   90.00000   90.00000   90.00000
LATT -1
SFAC C  
C      1  0.4722720000000  0.4176700000000  0.5216020000000 1.0
C      1  0.4181510000000  0.5276720000000  0.5199230000000 1.0
C      1  0.5277290000000  0.5823290000000  0.5216010000000 1.0
C      1  0.5818500000000  0.4723280000000  0.5199170000000 1.0
C      1  0.5318670000000  0.4371570000000  0.5322970000000 1.0
C      1  0.5615480000000  0.5311600000000  0.5301030000000 1.0
C      1  0.4681360000000  0.5628430000000  0.5323000000000 1.0
C      1  0.4384540000000  0.4688390000000  0.5301070000000 1.0
C      1  0.4373350000000  0.5547370000000  0.3897650000000 1.0
C      1  0.5523900000000  0.5638680000000  0.3912770000000 1.0
C      1  0.5626570000000  0.4452650000000  0.3897600000000 1.0
C      1  0.4476030000000  0.4361330000000  0.3912790000000 1.0
C      1  0.5525880000000  0.5518780000000  0.4167390000000 1.0
C      1  0.4497910000000  0.5535710000000  0.4149530000000 1.0
C      1  0.4474060000000  0.4481230000000  0.4167420000000 1.0
C      1  0.5502030000000  0.4464300000000  0.4149490000000 1.0
C      1  0.5893070000000  0.5358280000000  0.5704510000000 1.0
C      1  0.5361600000000  0.4097010000000  0.5727920000000 1.0
C      1  0.4106980000000  0.4641710000000  0.5704570000000 1.0
C      1  0.4638450000000  0.5902970000000  0.5727960000000 1.0
C      1  0.4115650000000  0.5298890000000  0.5713790000000 1.0
C      1  0.4700000000000  0.4110280000000  0.5728820000000 1.0
C      1  0.5884400000000  0.4701100000000  0.5713730000000 1.0
C      1  0.5300050000000  0.5889710000000  0.5728810000000 1.0
C      1  0.5778020000000  0.5188270000000  0.5911410000000 1.0
C      1  0.5187810000000  0.4212460000000  0.5931370000000 1.0
C      1  0.4222040000000  0.4811720000000  0.5911470000000 1.0
C      1  0.4812250000000  0.5787520000000  0.5931400000000 1.0
C      1  0.4249850000000  0.5110750000000  0.5887400000000 1.0
C      1  0.4890700000000  0.4250450000000  0.5894900000000 1.0
C      1  0.5750210000000  0.4889240000000  0.5887350000000 1.0
C      1  0.5109360000000  0.5749540000000  0.5894900000000 1.0
C      1  0.4769690000000  0.4451170000000  0.6059460000000 1.0
C      1  0.4447820000000  0.5233960000000  0.6054370000000 1.0
C      1  0.5230380000000  0.5548810000000  0.6059450000000 1.0
C      1  0.5552250000000  0.4766020000000  0.6054330000000 1.0
C      1  0.5327640000000  0.4454870000000  0.5992630000000 1.0
C      1  0.5543170000000  0.5325250000000  0.6001140000000 1.0
C      1  0.4672430000000  0.5545120000000  0.5992660000000 1.0
C      1  0.4456900000000  0.4674740000000  0.6001170000000 1.0
C      1  0.4057380000000  0.5235500000000  0.4713880000000 1.0
C      1  0.5229090000000  0.5942190000000  0.4737320000000 1.0
C      1  0.5942600000000  0.4764500000000  0.4713810000000 1.0
C      1  0.4770900000000  0.4057810000000  0.4737320000000 1.0
C      1  0.6171040000000  0.5220930000000  0.4770350000000 1.0
C      1  0.4769290000000  0.6175300000000  0.4791750000000 1.0
C      1  0.3828940000000  0.4779070000000  0.4770420000000 1.0
C      1  0.5230690000000  0.3824700000000  0.4791720000000 1.0
C      1  0.5626680000000  0.4741590000000  0.3944250000000 1.0
C      1  0.4760730000000  0.4377620000000  0.3980240000000 1.0
C      1  0.4373240000000  0.5258420000000  0.3944300000000 1.0
C      1  0.5239200000000  0.5622400000000  0.3980240000000 1.0
C      1  0.4482980000000  0.4774480000000  0.4198430000000 1.0
C      1  0.5206940000000  0.4487690000000  0.4180150000000 1.0
C      1  0.5516970000000  0.5225530000000  0.4198400000000 1.0
C      1  0.4793000000000  0.5512320000000  0.4180170000000 1.0
C      1  0.4627850000000  0.5153930000000  0.4525910000000 1.0
C      1  0.5155020000000  0.5347330000000  0.4523370000000 1.0
C      1  0.5372110000000  0.4846070000000  0.4525880000000 1.0
C      1  0.4844940000000  0.4652680000000  0.4523370000000 1.0
C      1  0.5363480000000  0.5143270000000  0.4439910000000 1.0
C      1  0.4862710000000  0.5319660000000  0.4405460000000 1.0
C      1  0.4636480000000  0.4856740000000  0.4439930000000 1.0
C      1  0.5137250000000  0.4680350000000  0.4405440000000 1.0
C      1  0.4866660000000  0.5380520000000  0.4887560000000 1.0
C      1  0.5284760000000  0.5123700000000  0.4934440000000 1.0
C      1  0.5133330000000  0.4619490000000  0.4887540000000 1.0
C      1  0.4715240000000  0.4876300000000  0.4934460000000 1.0
C      1  0.5160480000000  0.5373760000000  0.4822880000000 1.0
C      1  0.4660900000000  0.5171990000000  0.4833600000000 1.0
C      1  0.4839500000000  0.4626240000000  0.4822890000000 1.0
C      1  0.5339090000000  0.4828010000000  0.4833580000000 1.0
C      1  0.4488490000000  0.4053110000000  0.4712610000000 1.0
C      1  0.4050330000000  0.5518630000000  0.4692970000000 1.0
C      1  0.5511490000000  0.5946900000000  0.4712590000000 1.0
C      1  0.5949650000000  0.4481370000000  0.4692890000000 1.0
C      1  0.5512440000000  0.3887000000000  0.4771540000000 1.0
C      1  0.6110420000000  0.5501930000000  0.4758850000000 1.0
C      1  0.4487540000000  0.6113010000000  0.4771590000000 1.0
C      1  0.3889570000000  0.4498070000000  0.4758920000000 1.0
C      1  0.4022610000000  0.4775500000000  0.4437400000000 1.0
C      1  0.4776290000000  0.5967200000000  0.4468160000000 1.0
C      1  0.5977350000000  0.5224510000000  0.4437340000000 1.0
C      1  0.5223670000000  0.4032810000000  0.4468130000000 1.0
C      1  0.5664560000000  0.4723710000000  0.4453060000000 1.0
C      1  0.5263500000000  0.5642430000000  0.4499940000000 1.0
C      1  0.4335400000000  0.5276300000000  0.4453110000000 1.0
C      1  0.4736460000000  0.4357580000000  0.4499950000000 1.0
C      1  0.5162320000000  0.5761410000000  0.4238800000000 1.0
C      1  0.5777290000000  0.4833370000000  0.4194250000000 1.0
C      1  0.4837630000000  0.4238600000000  0.4238800000000 1.0
C      1  0.4222660000000  0.5166640000000  0.4194310000000 1.0
C      1  0.4879120000000  0.5801250000000  0.4248450000000 1.0
C      1  0.4194730000000  0.4878060000000  0.4218620000000 1.0
C      1  0.5120830000000  0.4198770000000  0.4248430000000 1.0
C      1  0.5805220000000  0.5121950000000  0.4218560000000 1.0
C      1  0.5610150000000  0.4231270000000  0.5730740000000 1.0
C      1  0.4231690000000  0.4388580000000  0.5709760000000 1.0
C      1  0.4389900000000  0.5768710000000  0.5730790000000 1.0
C      1  0.5768360000000  0.5611410000000  0.5709720000000 1.0
C      1  0.4441300000000  0.4218000000000  0.5721310000000 1.0
C      1  0.5780810000000  0.4440730000000  0.5715410000000 1.0
C      1  0.5558750000000  0.5781990000000  0.5721280000000 1.0
C      1  0.4219240000000  0.5559260000000  0.5715470000000 1.0
C      1  0.4435520000000  0.4288400000000  0.4562630000000 1.0
C      1  0.4273040000000  0.5573500000000  0.4526840000000 1.0
C      1  0.5564450000000  0.5711600000000  0.4562600000000 1.0
C      1  0.5726920000000  0.4426510000000  0.4526780000000 1.0
C      1  0.5509380000000  0.3979700000000  0.4487610000000 1.0
C      1  0.6020580000000  0.5512140000000  0.4476620000000 1.0
C      1  0.4490580000000  0.6020310000000  0.4487660000000 1.0
C      1  0.3979380000000  0.4487870000000  0.4476690000000 1.0
C      1  0.5167870000000  0.5952770000000  0.5474150000000 1.0
C      1  0.5949120000000  0.4829790000000  0.5456270000000 1.0
C      1  0.4832170000000  0.4047220000000  0.5474140000000 1.0
C      1  0.4050920000000  0.5170200000000  0.5456330000000 1.0
C      1  0.4784720000000  0.5880370000000  0.5473010000000 1.0
C      1  0.4129950000000  0.4788950000000  0.5449730000000 1.0
C      1  0.5215310000000  0.4119620000000  0.5472990000000 1.0
C      1  0.5870080000000  0.5211040000000  0.5449670000000 1.0
C      1  0.5571230000000  0.4286360000000  0.5160340000000 1.0
C      1  0.4294530000000  0.4433430000000  0.5146880000000 1.0
C      1  0.4428780000000  0.5713640000000  0.5160390000000 1.0
C      1  0.5705480000000  0.5566570000000  0.5146840000000 1.0
C      1  0.4426530000000  0.4178870000000  0.5173770000000 1.0
C      1  0.5820110000000  0.4428100000000  0.5163610000000 1.0
C      1  0.5573480000000  0.5821130000000  0.5173750000000 1.0
C      1  0.4179900000000  0.5571890000000  0.5163680000000 1.0
C      1  0.4650370000000  0.5114930000000  0.5413580000000 1.0
C      1  0.5112220000000  0.5349020000000  0.5415390000000 1.0
C      1  0.5349660000000  0.4885060000000  0.5413560000000 1.0
C      1  0.4887810000000  0.4650970000000  0.5415400000000 1.0
C      1  0.5346710000000  0.5180740000000  0.5513050000000 1.0
C      1  0.4816750000000  0.5348940000000  0.5514350000000 1.0
C      1  0.4653320000000  0.4819250000000  0.5513070000000 1.0
C      1  0.5183290000000  0.4651050000000  0.5514340000000 1.0
C      1  0.5988570000000  0.4837440000000  0.4982240000000 1.0
C      1  0.4840070000000  0.4002250000000  0.5003540000000 1.0
C      1  0.4011430000000  0.5162560000000  0.4982310000000 1.0
C      1  0.5159930000000  0.5997750000000  0.5003540000000 1.0
C      1  0.3945030000000  0.4889420000000  0.5006000000000 1.0
C      1  0.5114340000000  0.3934150000000  0.5028680000000 1.0
C      1  0.6054970000000  0.5110580000000  0.5005930000000 1.0
C      1  0.4885660000000  0.6065850000000  0.5028700000000 1.0
C      1  0.5122980000000  0.5348390000000  0.3931260000000 1.0
C      1  0.5358030000000  0.4867260000000  0.3883610000000 1.0
C      1  0.4876950000000  0.4651620000000  0.3931260000000 1.0
C      1  0.4641900000000  0.5132750000000  0.3883630000000 1.0
C      1  0.4851440000000  0.5328110000000  0.3845800000000 1.0
C      1  0.4686800000000  0.4869480000000  0.3998390000000 1.0
C      1  0.5148480000000  0.4671900000000  0.3845780000000 1.0
C      1  0.5313130000000  0.5130530000000  0.3998370000000 1.0
C      1  0.5976260000000  0.4355250000000  0.4942420000000 1.0
C      1  0.4357210000000  0.4012270000000  0.4958530000000 1.0
C      1  0.4023740000000  0.5644750000000  0.4942500000000 1.0
C      1  0.5642780000000  0.5987730000000  0.4958500000000 1.0
C      1  0.4076560000000  0.4428420000000  0.4963890000000 1.0
C      1  0.5580260000000  0.4069930000000  0.4978390000000 1.0
C      1  0.5923440000000  0.5571580000000  0.4963840000000 1.0
C      1  0.4419730000000  0.5930070000000  0.4978450000000 1.0
C      1  0.6217050000000  0.4947940000000  0.5416270000000 1.0
C      1  0.4946280000000  0.3777210000000  0.5436900000000 1.0
C      1  0.3782980000000  0.5052050000000  0.5416350000000 1.0
C      1  0.5053750000000  0.6222780000000  0.5436920000000 1.0
C      1  0.3868980000000  0.4811370000000  0.5279530000000 1.0
C      1  0.5189970000000  0.3858200000000  0.5302980000000 1.0
C      1  0.6131040000000  0.5188630000000  0.5279450000000 1.0
C      1  0.4810050000000  0.6141790000000  0.5303010000000 1.0
C      1  0.5122580000000  0.4434420000000  0.5105870000000 1.0
C      1  0.4455660000000  0.4875790000000  0.5077000000000 1.0
C      1  0.4877430000000  0.5565580000000  0.5105890000000 1.0
C      1  0.5544340000000  0.5124210000000  0.5076970000000 1.0
C      1  0.4838940000000  0.4465440000000  0.5179270000000 1.0
C      1  0.5528490000000  0.4839820000000  0.5170440000000 1.0
C      1  0.5161070000000  0.5534560000000  0.5179260000000 1.0
C      1  0.4471520000000  0.5160170000000  0.5170480000000 1.0
C      1  0.4896310000000  0.4688250000000  0.5960440000000 1.0
C      1  0.4686440000000  0.5105080000000  0.5960960000000 1.0
C      1  0.5103760000000  0.5311740000000  0.5960440000000 1.0
C      1  0.5313630000000  0.4894900000000  0.5960940000000 1.0
C      1  0.5169860000000  0.4665140000000  0.5845380000000 1.0
C      1  0.5335840000000  0.5168030000000  0.5846910000000 1.0
C      1  0.4830200000000  0.5334850000000  0.5845390000000 1.0
C      1  0.4664220000000  0.4831960000000  0.5846930000000 1.0
C      1  0.5694630000000  0.4174720000000  0.4418200000000 1.0
C      1  0.4185520000000  0.4306260000000  0.4443380000000 1.0
C      1  0.4305330000000  0.5825290000000  0.4418260000000 1.0
C      1  0.5814440000000  0.5693740000000  0.4443330000000 1.0
END
