TITL C-3578206-1180-207 3.07110361581172e-05 125000 -1281.13044935175 0 0 200 (C1) n - 1
REM
REM in /home/bkarasulu/work/CARBON/AIRSS/Generating-Clusters/EDIP-Nigel-Params/with-SteepDescent/Higher-Symm/SD-CG/HFTN-CG
REM
REM
REM
REM
REM
REM ./C.cell (12c818d87b63d06a65506943cc24bca4)
REM
REM compiler GCC version 9.2.1 20190827 (Red Hat 9.2.1-1)
REM options -cpp -mtune=generic -march=x86-64 -g -O0 -fpre-include=/usr/include/finclude/math-vector-fortran.h
REM seed -100870019 435697602 -1723750513 -1252766893 1369228165 1135016619 25933095 -386727917 -1443252591 -1911688849 -407749705 1465160017 -1261599121 -569915321 -1610349553 -172800403 1713294403 -1895862992 -547982627 63379558 -578543392 -1033418721 -74972509 -269917450 624777922 1888711406 -644836999 -987323130 -449250780 -108996909 -121463920 1986035508 828939490
REM
CELL 1.54180   50.00000   50.00000   50.00000   90.00000   90.00000   90.00000
LATT -1
SFAC C  
C      1  0.4330080000000  0.4342900000000  0.4824360000000 1.0
C      1  0.4314760000000  0.5495310000000  0.4490060000000 1.0
C      1  0.4305610000000  0.5203310000000  0.5662870000000 1.0
C      1  0.5706630000000  0.4307160000000  0.4833010000000 1.0
C      1  0.5700820000000  0.5468660000000  0.4503510000000 1.0
C      1  0.5682060000000  0.5172510000000  0.5668190000000 1.0
C      1  0.6047150000000  0.5539390000000  0.5145160000000 1.0
C      1  0.6060340000000  0.4607960000000  0.5411080000000 1.0
C      1  0.6051070000000  0.4842040000000  0.4460120000000 1.0
C      1  0.3944140000000  0.5550330000000  0.5130620000000 1.0
C      1  0.3963450000000  0.4609480000000  0.5399930000000 1.0
C      1  0.3950050000000  0.4843130000000  0.4461670000000 1.0
C      1  0.4738530000000  0.4279690000000  0.5852740000000 1.0
C      1  0.4723070000000  0.4587430000000  0.3936930000000 1.0
C      1  0.4722970000000  0.6101750000000  0.5181820000000 1.0
C      1  0.5287160000000  0.4283330000000  0.5881960000000 1.0
C      1  0.5273940000000  0.4615030000000  0.3952340000000 1.0
C      1  0.5267190000000  0.6105510000000  0.5194520000000 1.0
C      1  0.4703970000000  0.4217960000000  0.4276890000000 1.0
C      1  0.4718980000000  0.6013100000000  0.4716430000000 1.0
C      1  0.4731000000000  0.4725360000000  0.6025490000000 1.0
C      1  0.5279590000000  0.4244530000000  0.4249730000000 1.0
C      1  0.5290260000000  0.6012480000000  0.4711740000000 1.0
C      1  0.5303640000000  0.4761360000000  0.6042840000000 1.0
C      1  0.5182330000000  0.3912140000000  0.5246000000000 1.0
C      1  0.5112890000000  0.5364960000000  0.3979880000000 1.0
C      1  0.5106110000000  0.5687940000000  0.5829220000000 1.0
C      1  0.4896360000000  0.3931780000000  0.5185680000000 1.0
C      1  0.4827630000000  0.5319260000000  0.3939380000000 1.0
C      1  0.4819080000000  0.5744450000000  0.5814710000000 1.0
C      1  0.5668290000000  0.4897470000000  0.4249660000000 1.0
C      1  0.5661360000000  0.5681110000000  0.5299460000000 1.0
C      1  0.5675060000000  0.4400280000000  0.5455210000000 1.0
C      1  0.4337510000000  0.4904380000000  0.4264200000000 1.0
C      1  0.4323400000000  0.5713030000000  0.5278600000000 1.0
C      1  0.4346860000000  0.4400850000000  0.5449930000000 1.0
C      1  0.6075690000000  0.5433120000000  0.5603290000000 1.0
C      1  0.6098210000000  0.4251160000000  0.5094670000000 1.0
C      1  0.6099970000000  0.5289760000000  0.4321980000000 1.0
C      1  0.3900190000000  0.5442190000000  0.5590940000000 1.0
C      1  0.3933260000000  0.4266490000000  0.5078440000000 1.0
C      1  0.3922750000000  0.5296210000000  0.4309070000000 1.0
C      1  0.6000430000000  0.5190220000000  0.4779830000000 1.0
C      1  0.6005170000000  0.5085760000000  0.5287590000000 1.0
C      1  0.6002140000000  0.4695820000000  0.4941130000000 1.0
C      1  0.4013560000000  0.5206290000000  0.4770100000000 1.0
C      1  0.4011700000000  0.5099610000000  0.5278850000000 1.0
C      1  0.4007620000000  0.4713120000000  0.4938740000000 1.0
C      1  0.4714660000000  0.5792790000000  0.4282310000000 1.0
C      1  0.4718950000000  0.5207150000000  0.6013260000000 1.0
C      1  0.4693150000000  0.4017350000000  0.4681550000000 1.0
C      1  0.5294840000000  0.5744890000000  0.4292410000000 1.0
C      1  0.5314350000000  0.5212260000000  0.6015680000000 1.0
C      1  0.5289490000000  0.4001190000000  0.4669070000000 1.0
C      1  0.5149190000000  0.5474490000000  0.6048570000000 1.0
C      1  0.5117390000000  0.3818150000000  0.4793270000000 1.0
C      1  0.5137330000000  0.5662450000000  0.4051060000000 1.0
C      1  0.4885950000000  0.5406030000000  0.6118580000000 1.0
C      1  0.4856330000000  0.3854020000000  0.4889910000000 1.0
C      1  0.4880160000000  0.5775390000000  0.4057040000000 1.0
C      1  0.5183480000000  0.5271810000000  0.4360560000000 1.0
C      1  0.5172560000000  0.5399630000000  0.5561410000000 1.0
C      1  0.5167450000000  0.4263470000000  0.5086970000000 1.0
C      1  0.4848290000000  0.5296160000000  0.4324200000000 1.0
C      1  0.4841480000000  0.5439100000000  0.5579210000000 1.0
C      1  0.4834720000000  0.4311110000000  0.5072010000000 1.0
C      1  0.3867470000000  0.5354120000000  0.5328160000000 1.0
C      1  0.3880080000000  0.4535450000000  0.5137270000000 1.0
C      1  0.3879450000000  0.5118040000000  0.4518430000000 1.0
C      1  0.6129790000000  0.5348490000000  0.5341520000000 1.0
C      1  0.6136690000000  0.4522070000000  0.5144690000000 1.0
C      1  0.6138470000000  0.5107330000000  0.4530120000000 1.0
C      1  0.4475970000000  0.5364820000000  0.4906460000000 1.0
C      1  0.4471410000000  0.4911080000000  0.5345990000000 1.0
C      1  0.4465450000000  0.4782820000000  0.4756080000000 1.0
C      1  0.5545360000000  0.5320480000000  0.4915630000000 1.0
C      1  0.5547920000000  0.4886410000000  0.5327930000000 1.0
C      1  0.5539630000000  0.4728870000000  0.4737020000000 1.0
C      1  0.5152540000000  0.4675710000000  0.5447800000000 1.0
C      1  0.5138120000000  0.4717350000000  0.4460770000000 1.0
C      1  0.5161180000000  0.5550690000000  0.5041250000000 1.0
C      1  0.4868660000000  0.4669360000000  0.5511430000000 1.0
C      1  0.4855910000000  0.4773900000000  0.4506050000000 1.0
C      1  0.4876940000000  0.5612860000000  0.5028050000000 1.0
C      1  0.5765660000000  0.5895810000000  0.4821140000000 1.0
C      1  0.5773450000000  0.4781840000000  0.5852460000000 1.0
C      1  0.5773650000000  0.4384140000000  0.4313420000000 1.0
C      1  0.4223980000000  0.5912440000000  0.4804670000000 1.0
C      1  0.4243870000000  0.4714440000000  0.5863290000000 1.0
C      1  0.4236700000000  0.4376230000000  0.4394310000000 1.0
C      1  0.4157690000000  0.5430720000000  0.4246740000000 1.0
C      1  0.4138910000000  0.5437960000000  0.5734680000000 1.0
C      1  0.4173020000000  0.4151210000000  0.4990020000000 1.0
C      1  0.5862020000000  0.5421250000000  0.4260370000000 1.0
C      1  0.5836610000000  0.5413830000000  0.5748250000000 1.0
C      1  0.5865220000000  0.4128010000000  0.5007780000000 1.0
C      1  0.5685610000000  0.5641810000000  0.5779820000000 1.0
C      1  0.5717210000000  0.3998570000000  0.5200560000000 1.0
C      1  0.5712040000000  0.5331220000000  0.4047440000000 1.0
C      1  0.4278280000000  0.5674510000000  0.5751630000000 1.0
C      1  0.4320680000000  0.4007210000000  0.5172130000000 1.0
C      1  0.4304800000000  0.5323670000000  0.4040350000000 1.0
C      1  0.5802060000000  0.4501450000000  0.5799150000000 1.0
C      1  0.5843660000000  0.4581250000000  0.4120990000000 1.0
C      1  0.5827020000000  0.5957080000000  0.5091610000000 1.0
C      1  0.4177240000000  0.4448180000000  0.5790590000000 1.0
C      1  0.4206560000000  0.4558480000000  0.4175770000000 1.0
C      1  0.4144610000000  0.5980190000000  0.5069020000000 1.0
C      1  0.5139570000000  0.4127740000000  0.4464540000000 1.0
C      1  0.5151890000000  0.5928580000000  0.4475290000000 1.0
C      1  0.5137480000000  0.4986540000000  0.6107900000000 1.0
C      1  0.4868240000000  0.4046100000000  0.4437500000000 1.0
C      1  0.4861080000000  0.5931590000000  0.4484210000000 1.0
C      1  0.4871320000000  0.4969020000000  0.6007500000000 1.0
C      1  0.4446840000000  0.4627010000000  0.5237660000000 1.0
C      1  0.4447540000000  0.5002620000000  0.4549950000000 1.0
C      1  0.4443410000000  0.5418110000000  0.5204730000000 1.0
C      1  0.5566490000000  0.4601320000000  0.5231590000000 1.0
C      1  0.5565560000000  0.4965720000000  0.4548000000000 1.0
C      1  0.5568400000000  0.5378240000000  0.5215240000000 1.0
C      1  0.4731980000000  0.4667960000000  0.4753280000000 1.0
C      1  0.4738450000000  0.5444190000000  0.4795640000000 1.0
C      1  0.4733320000000  0.4964820000000  0.5476710000000 1.0
C      1  0.5276410000000  0.4592540000000  0.4722890000000 1.0
C      1  0.5281830000000  0.5396950000000  0.4814330000000 1.0
C      1  0.5279200000000  0.4940880000000  0.5425660000000 1.0
C      1  0.4457410000000  0.4747990000000  0.6029750000000 1.0
C      1  0.4453760000000  0.4196920000000  0.4427690000000 1.0
C      1  0.4445390000000  0.6035000000000  0.4700150000000 1.0
C      1  0.5554260000000  0.4902190000000  0.5988840000000 1.0
C      1  0.5553760000000  0.4229890000000  0.4262350000000 1.0
C      1  0.5563940000000  0.6039640000000  0.4702110000000 1.0
C      1  0.4848850000000  0.6008140000000  0.5410650000000 1.0
C      1  0.4873510000000  0.4137350000000  0.5656130000000 1.0
C      1  0.4853070000000  0.4833770000000  0.3933200000000 1.0
C      1  0.5135350000000  0.5989280000000  0.5411450000000 1.0
C      1  0.5160100000000  0.4150460000000  0.5672140000000 1.0
C      1  0.5139970000000  0.4856160000000  0.3924810000000 1.0
C      1  0.5864680000000  0.5650960000000  0.4697520000000 1.0
C      1  0.5978560000000  0.4946400000000  0.5745950000000 1.0
C      1  0.5880860000000  0.4390280000000  0.4583940000000 1.0
C      1  0.4132270000000  0.5666400000000  0.4681760000000 1.0
C      1  0.4139110000000  0.4944400000000  0.5719250000000 1.0
C      1  0.4032620000000  0.4385290000000  0.4590310000000 1.0
C      1  0.3987250000000  0.4401530000000  0.5589580000000 1.0
C      1  0.3991880000000  0.4747650000000  0.4195570000000 1.0
C      1  0.3959530000000  0.5821330000000  0.5210130000000 1.0
C      1  0.6019150000000  0.4425120000000  0.5627170000000 1.0
C      1  0.6030330000000  0.4781450000000  0.4184820000000 1.0
C      1  0.6019360000000  0.5807180000000  0.5231070000000 1.0
C      1  0.5145150000000  0.5122430000000  0.4808560000000 1.0
C      1  0.5149900000000  0.5097740000000  0.5193930000000 1.0
C      1  0.5163210000000  0.4716460000000  0.4972000000000 1.0
C      1  0.4853460000000  0.5167280000000  0.4777780000000 1.0
C      1  0.4845680000000  0.5109540000000  0.5218450000000 1.0
C      1  0.4875150000000  0.4786140000000  0.5001860000000 1.0
C      1  0.4305400000000  0.4625340000000  0.4947850000000 1.0
C      1  0.4310420000000  0.5248830000000  0.4683170000000 1.0
C      1  0.4306470000000  0.5165560000000  0.5350730000000 1.0
C      1  0.5706400000000  0.4597210000000  0.4951160000000 1.0
C      1  0.5706230000000  0.5215140000000  0.4687980000000 1.0
C      1  0.5707800000000  0.5133180000000  0.5362810000000 1.0
C      1  0.4410040000000  0.5806630000000  0.5546990000000 1.0
C      1  0.4449350000000  0.4123890000000  0.5387690000000 1.0
C      1  0.4422640000000  0.5072980000000  0.4036780000000 1.0
C      1  0.5556730000000  0.5766300000000  0.5568720000000 1.0
C      1  0.5592420000000  0.4117890000000  0.5417440000000 1.0
C      1  0.5569140000000  0.5093420000000  0.4043310000000 1.0
C      1  0.5356760000000  0.5188250000000  0.5712670000000 1.0
C      1  0.5363020000000  0.4251590000000  0.4825170000000 1.0
C      1  0.5374530000000  0.5507020000000  0.4456070000000 1.0
C      1  0.4649380000000  0.5219330000000  0.5717280000000 1.0
C      1  0.4653910000000  0.4294110000000  0.4812460000000 1.0
C      1  0.4660500000000  0.5538130000000  0.4448240000000 1.0
C      1  0.3954870000000  0.5491270000000  0.4846110000000 1.0
C      1  0.3962010000000  0.4886180000000  0.5487980000000 1.0
C      1  0.3918450000000  0.4639870000000  0.4664620000000 1.0
C      1  0.6044980000000  0.5479490000000  0.4860990000000 1.0
C      1  0.6094390000000  0.4884500000000  0.5488030000000 1.0
C      1  0.6056200000000  0.4622640000000  0.4651990000000 1.0
C      1  0.5159600000000  0.4526200000000  0.5928030000000 1.0
C      1  0.5142120000000  0.4496390000000  0.4184040000000 1.0
C      1  0.5138220000000  0.6068380000000  0.4949610000000 1.0
C      1  0.4867490000000  0.4540720000000  0.5841320000000 1.0
C      1  0.4850180000000  0.4430830000000  0.4127320000000 1.0
C      1  0.4859800000000  0.5959060000000  0.4969700000000 1.0
C      1  0.4703580000000  0.5070710000000  0.3977870000000 1.0
C      1  0.4693570000000  0.5849700000000  0.5585690000000 1.0
C      1  0.4734810000000  0.4062860000000  0.5413010000000 1.0
C      1  0.5281830000000  0.5104580000000  0.3974460000000 1.0
C      1  0.5271880000000  0.5821870000000  0.5605260000000 1.0
C      1  0.5310860000000  0.4062660000000  0.5447660000000 1.0
C      1  0.5259510000000  0.4547400000000  0.5196120000000 1.0
C      1  0.5257760000000  0.5018740000000  0.4526420000000 1.0
C      1  0.5257390000000  0.5373580000000  0.5266320000000 1.0
C      1  0.4757250000000  0.4579610000000  0.5210350000000 1.0
C      1  0.4754580000000  0.5059210000000  0.4518930000000 1.0
C      1  0.4751980000000  0.5416730000000  0.5269080000000 1.0
C      1  0.6031570000000  0.4990800000000  0.5002580000000 1.0
C      1  0.3981540000000  0.5006850000000  0.4995830000000 1.0
END
