TITL C-3578198-8939-204 -1.90450039476035e-07 125000 -1015.49047435965 0 0 167 (C1) n - 1
REM
REM in /home/bkarasulu/work/CARBON/AIRSS/Generating-Clusters/EDIP-Nigel-Params/with-SteepDescent/Higher-Symm/SD-CG/HFTN-CG
REM
REM
REM
REM
REM
REM ./C.cell (12c818d87b63d06a65506943cc24bca4)
REM
REM compiler GCC version 9.2.1 20190827 (Red Hat 9.2.1-1)
REM options -cpp -mtune=generic -march=x86-64 -g -O0 -fpre-include=/usr/include/finclude/math-vector-fortran.h
REM seed 356624810 -1965252676 -191901693 565797190 -1710130125 441939013 -630258448 -325676394 411352857 -1277863006 -551591342 -1510668856 601358586 1736871871 1991366994 -812856316 347205861 -588546943 -490634517 -1600114228 -51296273 -137956058 -1658953165 1201771962 1475408515 1237377804 699458506 -1899653468 1258143347 -1893716041 350303734 65269570 -798391093
REM
CELL 1.54180   50.00000   50.00000   50.00000   90.00000   90.00000   90.00000
LATT -1
SFAC C  
C      1  0.5829650000000  0.5274320000000  0.5468130000000 1.0
C      1  0.5755890000000  0.4988570000000  0.5528560000000 1.0
C      1  0.5730370000000  0.4689540000000  0.5456480000000 1.0
C      1  0.5717090000000  0.4496300000000  0.5225090000000 1.0
C      1  0.5748350000000  0.4438600000000  0.4930670000000 1.0
C      1  0.5787320000000  0.4588080000000  0.4657400000000 1.0
C      1  0.5736040000000  0.4930060000000  0.4480750000000 1.0
C      1  0.5830530000000  0.5204120000000  0.4421350000000 1.0
C      1  0.5749840000000  0.5434540000000  0.4602780000000 1.0
C      1  0.5799930000000  0.5575750000000  0.4873040000000 1.0
C      1  0.5860400000000  0.5493880000000  0.5157050000000 1.0
C      1  0.4884590000000  0.5845880000000  0.5362110000000 1.0
C      1  0.4945760000000  0.5615770000000  0.5768310000000 1.0
C      1  0.4938350000000  0.5043860000000  0.5868610000000 1.0
C      1  0.4955370000000  0.4470740000000  0.5770060000000 1.0
C      1  0.4954110000000  0.4112150000000  0.5387450000000 1.0
C      1  0.4881940000000  0.4088990000000  0.4874760000000 1.0
C      1  0.4939450000000  0.4311780000000  0.4365290000000 1.0
C      1  0.4946140000000  0.4798610000000  0.4192340000000 1.0
C      1  0.4928260000000  0.5270670000000  0.4117960000000 1.0
C      1  0.5001230000000  0.5779430000000  0.4386870000000 1.0
C      1  0.4906110000000  0.5870310000000  0.4904180000000 1.0
C      1  0.5372670000000  0.5072510000000  0.3956430000000 1.0
C      1  0.5264030000000  0.5655890000000  0.4047700000000 1.0
C      1  0.5265360000000  0.6024400000000  0.4641960000000 1.0
C      1  0.5369200000000  0.6016210000000  0.5242940000000 1.0
C      1  0.5428540000000  0.5812000000000  0.5775880000000 1.0
C      1  0.5326610000000  0.5303480000000  0.6021840000000 1.0
C      1  0.5296070000000  0.4677850000000  0.6039290000000 1.0
C      1  0.5272430000000  0.4169170000000  0.5714180000000 1.0
C      1  0.5271970000000  0.3933710000000  0.5137670000000 1.0
C      1  0.5273430000000  0.4015270000000  0.4538840000000 1.0
C      1  0.5268670000000  0.4465740000000  0.4136740000000 1.0
C      1  0.5435010000000  0.5456770000000  0.5198410000000 1.0
C      1  0.5353290000000  0.5332050000000  0.5459540000000 1.0
C      1  0.5327350000000  0.5032880000000  0.5429190000000 1.0
C      1  0.5290790000000  0.4735510000000  0.5475420000000 1.0
C      1  0.5276260000000  0.4507840000000  0.5218220000000 1.0
C      1  0.5304030000000  0.4433150000000  0.4921010000000 1.0
C      1  0.5409720000000  0.4634510000000  0.4723720000000 1.0
C      1  0.5273280000000  0.4860620000000  0.4572920000000 1.0
C      1  0.5296320000000  0.5122840000000  0.4752920000000 1.0
C      1  0.5320740000000  0.5439900000000  0.4685980000000 1.0
C      1  0.5362780000000  0.5579590000000  0.4945430000000 1.0
C      1  0.5655160000000  0.5393760000000  0.5680900000000 1.0
C      1  0.5547660000000  0.4974940000000  0.5740730000000 1.0
C      1  0.5573370000000  0.4549140000000  0.5664530000000 1.0
C      1  0.5561290000000  0.4267780000000  0.5324760000000 1.0
C      1  0.5599950000000  0.4189700000000  0.4869550000000 1.0
C      1  0.5609760000000  0.4408050000000  0.4484190000000 1.0
C      1  0.5476130000000  0.4887990000000  0.4346720000000 1.0
C      1  0.5761290000000  0.5273010000000  0.4152010000000 1.0
C      1  0.5573300000000  0.5604460000000  0.4441350000000 1.0
C      1  0.5647690000000  0.5831470000000  0.4883300000000 1.0
C      1  0.5715110000000  0.5671490000000  0.5348070000000 1.0
C      1  0.4768630000000  0.3937310000000  0.5216400000000 1.0
C      1  0.4758090000000  0.3994370000000  0.4616170000000 1.0
C      1  0.4735780000000  0.4372000000000  0.4153420000000 1.0
C      1  0.4789010000000  0.4996620000000  0.4043950000000 1.0
C      1  0.4753200000000  0.5502810000000  0.4041080000000 1.0
C      1  0.4775080000000  0.5939010000000  0.4542320000000 1.0
C      1  0.4721770000000  0.5940190000000  0.5123710000000 1.0
C      1  0.4736820000000  0.5797380000000  0.5626930000000 1.0
C      1  0.4812000000000  0.5404840000000  0.5961490000000 1.0
C      1  0.4797630000000  0.4775910000000  0.5960670000000 1.0
C      1  0.4770590000000  0.4238560000000  0.5711200000000 1.0
C      1  0.4366010000000  0.5655240000000  0.4373850000000 1.0
C      1  0.4311690000000  0.5885070000000  0.4839790000000 1.0
C      1  0.4310640000000  0.5836880000000  0.5350320000000 1.0
C      1  0.4354420000000  0.5482870000000  0.5731610000000 1.0
C      1  0.4397640000000  0.5019200000000  0.5863600000000 1.0
C      1  0.4352380000000  0.4509700000000  0.5750810000000 1.0
C      1  0.4360270000000  0.4157390000000  0.5394300000000 1.0
C      1  0.4362810000000  0.4090050000000  0.4879110000000 1.0
C      1  0.4321440000000  0.4257900000000  0.4377620000000 1.0
C      1  0.4343490000000  0.4697770000000  0.4099650000000 1.0
C      1  0.4346570000000  0.5224500000000  0.4133590000000 1.0
C      1  0.4910670000000  0.4491450000000  0.4607610000000 1.0
C      1  0.4971220000000  0.4787920000000  0.4497280000000 1.0
C      1  0.4944430000000  0.5282510000000  0.4426480000000 1.0
C      1  0.5051990000000  0.5522350000000  0.4563260000000 1.0
C      1  0.4889810000000  0.5586460000000  0.4799390000000 1.0
C      1  0.4928340000000  0.5550340000000  0.5310150000000 1.0
C      1  0.5062830000000  0.5419970000000  0.5539920000000 1.0
C      1  0.4932940000000  0.5152370000000  0.5582690000000 1.0
C      1  0.4975170000000  0.4637480000000  0.5518750000000 1.0
C      1  0.4970820000000  0.4404330000000  0.5277170000000 1.0
C      1  0.5036270000000  0.4352950000000  0.4839570000000 1.0
C      1  0.5469100000000  0.5529940000000  0.6118510000000 1.0
C      1  0.5395990000000  0.4882070000000  0.6205120000000 1.0
C      1  0.5379360000000  0.4220620000000  0.5970480000000 1.0
C      1  0.5354720000000  0.3836130000000  0.5389530000000 1.0
C      1  0.5366240000000  0.3799900000000  0.4696030000000 1.0
C      1  0.5369720000000  0.4201050000000  0.4118330000000 1.0
C      1  0.5445810000000  0.4812100000000  0.3874560000000 1.0
C      1  0.5425750000000  0.5505830000000  0.3874530000000 1.0
C      1  0.5300760000000  0.6012000000000  0.4361290000000 1.0
C      1  0.5404220000000  0.6217780000000  0.5049270000000 1.0
C      1  0.5555640000000  0.6031110000000  0.5656570000000 1.0
C      1  0.5045820000000  0.5234810000000  0.6078410000000 1.0
C      1  0.5020710000000  0.4578150000000  0.6046550000000 1.0
C      1  0.5010590000000  0.4043760000000  0.5677930000000 1.0
C      1  0.5010170000000  0.3860340000000  0.5031730000000 1.0
C      1  0.4992020000000  0.4025780000000  0.4428730000000 1.0
C      1  0.4980770000000  0.4544960000000  0.4054850000000 1.0
C      1  0.5109650000000  0.5169970000000  0.3898960000000 1.0
C      1  0.4961920000000  0.5714500000000  0.4091600000000 1.0
C      1  0.4992630000000  0.6095720000000  0.4722090000000 1.0
C      1  0.5129810000000  0.5996760000000  0.5389940000000 1.0
C      1  0.5162670000000  0.5781140000000  0.5870970000000 1.0
C      1  0.4484880000000  0.4495100000000  0.4278320000000 1.0
C      1  0.4497870000000  0.4962990000000  0.4163720000000 1.0
C      1  0.4525910000000  0.5429970000000  0.4255120000000 1.0
C      1  0.4501940000000  0.5753510000000  0.4626070000000 1.0
C      1  0.4460380000000  0.5799250000000  0.5089300000000 1.0
C      1  0.4490620000000  0.5651310000000  0.5521360000000 1.0
C      1  0.4551140000000  0.5263000000000  0.5781580000000 1.0
C      1  0.4539710000000  0.4767350000000  0.5774390000000 1.0
C      1  0.4515450000000  0.4363420000000  0.5545320000000 1.0
C      1  0.4528000000000  0.4142430000000  0.5132220000000 1.0
C      1  0.4508480000000  0.4192270000000  0.4637660000000 1.0
C      1  0.4043100000000  0.4398050000000  0.4908010000000 1.0
C      1  0.4020020000000  0.4560870000000  0.4665480000000 1.0
C      1  0.4092120000000  0.4824610000000  0.4512690000000 1.0
C      1  0.4012020000000  0.5106250000000  0.4517100000000 1.0
C      1  0.4096730000000  0.5356410000000  0.4676840000000 1.0
C      1  0.3984900000000  0.5491500000000  0.4906770000000 1.0
C      1  0.4079230000000  0.5456900000000  0.5185110000000 1.0
C      1  0.4002500000000  0.5262210000000  0.5386900000000 1.0
C      1  0.4101660000000  0.4981670000000  0.5461510000000 1.0
C      1  0.4008840000000  0.4714550000000  0.5399850000000 1.0
C      1  0.4059280000000  0.4500170000000  0.5179490000000 1.0
C      1  0.4620170000000  0.4943280000000  0.4455250000000 1.0
C      1  0.4657790000000  0.5273090000000  0.4502780000000 1.0
C      1  0.4619210000000  0.5495820000000  0.4763760000000 1.0
C      1  0.4501310000000  0.5488960000000  0.5052190000000 1.0
C      1  0.4643000000000  0.5446770000000  0.5324740000000 1.0
C      1  0.4654730000000  0.5181370000000  0.5496170000000 1.0
C      1  0.4694090000000  0.4792970000000  0.5493980000000 1.0
C      1  0.4566010000000  0.4579500000000  0.5329120000000 1.0
C      1  0.4684420000000  0.4422370000000  0.5097660000000 1.0
C      1  0.4628040000000  0.4472650000000  0.4720800000000 1.0
C      1  0.4507330000000  0.4669300000000  0.4535500000000 1.0
C      1  0.4072490000000  0.5262020000000  0.4248380000000 1.0
C      1  0.4103920000000  0.5527610000000  0.4424300000000 1.0
C      1  0.4034580000000  0.5786030000000  0.4893190000000 1.0
C      1  0.4054290000000  0.5734630000000  0.5269050000000 1.0
C      1  0.4081860000000  0.5359080000000  0.5686790000000 1.0
C      1  0.4127280000000  0.5053170000000  0.5754380000000 1.0
C      1  0.4073870000000  0.4501990000000  0.5621460000000 1.0
C      1  0.4089280000000  0.4280970000000  0.5388440000000 1.0
C      1  0.4085760000000  0.4124070000000  0.4880050000000 1.0
C      1  0.4053460000000  0.4399560000000  0.4402750000000 1.0
C      1  0.4080600000000  0.4681720000000  0.4244170000000 1.0
C      1  0.5461860000000  0.4068180000000  0.5513950000000 1.0
C      1  0.5473850000000  0.3930600000000  0.4924570000000 1.0
C      1  0.5477060000000  0.4161340000000  0.4378020000000 1.0
C      1  0.5478590000000  0.4678650000000  0.4123780000000 1.0
C      1  0.5573650000000  0.5276420000000  0.3940470000000 1.0
C      1  0.5428850000000  0.5780240000000  0.4253770000000 1.0
C      1  0.5490870000000  0.6075960000000  0.4821390000000 1.0
C      1  0.5611080000000  0.5946780000000  0.5393010000000 1.0
C      1  0.5608760000000  0.5611520000000  0.5879530000000 1.0
C      1  0.5499900000000  0.5069450000000  0.6016420000000 1.0
C      1  0.5488470000000  0.4482430000000  0.5938700000000 1.0
C      1  0.5169950000000  0.5074940000000  0.5017190000000 1.0
C      1  0.5444290000000  0.5057590000000  0.5003300000000 1.0
END
