TITL C-3578199-7832-1 6.40445188187586e-07 125000 -553.183356558398 0 0 91 (C1) n - 1
REM
REM in /home/bkarasulu/work/CARBON/AIRSS/Generating-Clusters/EDIP-Nigel-Params/with-SteepDescent/Higher-Symm/SD-CG/HFTN-CG
REM
REM
REM
REM
REM
REM ./C.cell (12c818d87b63d06a65506943cc24bca4)
REM
REM compiler GCC version 9.2.1 20190827 (Red Hat 9.2.1-1)
REM options -cpp -mtune=generic -march=x86-64 -g -O0 -fpre-include=/usr/include/finclude/math-vector-fortran.h
REM seed 270259180 -895469542 1507117722 497620135 -1446188369 -1938927382 1065819476 -808324479 -1723356284 -118294724 -930850012 1489648821 -288705948 1851013176 -1144355819 -1858886679 1710024806 2048757900 -1845793856 -601235427 -314628838 357774110 867300818 -166847022 2069954046 988561229 -714327637 1852846855 749761626 -1457625387 899235861 1702856719 1721279973
REM
CELL 1.54180   50.00000   50.00000   50.00000   90.00000   90.00000   90.00000
LATT -1
SFAC C  
C      1  0.5566710000000  0.4848180000000  0.4614180000000 1.0
C      1  0.5545270000000  0.5234670000000  0.4673650000000 1.0
C      1  0.5529570000000  0.5338490000000  0.5228560000000 1.0
C      1  0.5526590000000  0.5000030000000  0.5424620000000 1.0
C      1  0.5551790000000  0.4550430000000  0.5093920000000 1.0
C      1  0.4993620000000  0.4653500000000  0.4286740000000 1.0
C      1  0.5023990000000  0.5484510000000  0.4485430000000 1.0
C      1  0.5040940000000  0.5667270000000  0.5298200000000 1.0
C      1  0.4994380000000  0.4940720000000  0.5727180000000 1.0
C      1  0.5019310000000  0.4292060000000  0.5152240000000 1.0
C      1  0.4890140000000  0.5420650000000  0.4213380000000 1.0
C      1  0.4924610000000  0.5908170000000  0.5135350000000 1.0
C      1  0.4852170000000  0.5147670000000  0.5901410000000 1.0
C      1  0.4893700000000  0.4173540000000  0.5404160000000 1.0
C      1  0.4881970000000  0.4371130000000  0.4329630000000 1.0
C      1  0.4861490000000  0.4861410000000  0.5032880000000 1.0
C      1  0.4623440000000  0.4694640000000  0.4605430000000 1.0
C      1  0.4599330000000  0.5296460000000  0.4582410000000 1.0
C      1  0.4615920000000  0.5554780000000  0.5163400000000 1.0
C      1  0.4568790000000  0.5001930000000  0.5514690000000 1.0
C      1  0.5285100000000  0.5134290000000  0.4796170000000 1.0
C      1  0.5272460000000  0.5238480000000  0.5079880000000 1.0
C      1  0.5256850000000  0.4996590000000  0.5268160000000 1.0
C      1  0.5316340000000  0.4728990000000  0.5087410000000 1.0
C      1  0.5313820000000  0.4832460000000  0.4797480000000 1.0
C      1  0.4610100000000  0.5302330000000  0.4276800000000 1.0
C      1  0.4628020000000  0.5837170000000  0.5055230000000 1.0
C      1  0.4567890000000  0.5177010000000  0.5779290000000 1.0
C      1  0.4662300000000  0.4296410000000  0.5500290000000 1.0
C      1  0.4616180000000  0.4402080000000  0.4489850000000 1.0
C      1  0.4738610000000  0.5538970000000  0.4695140000000 1.0
C      1  0.4721160000000  0.5485500000000  0.5433790000000 1.0
C      1  0.4758230000000  0.4762040000000  0.5551040000000 1.0
C      1  0.4842700000000  0.4373390000000  0.4907300000000 1.0
C      1  0.4775340000000  0.4882050000000  0.4412230000000 1.0
C      1  0.5123540000000  0.4559630000000  0.5261870000000 1.0
C      1  0.5113090000000  0.4664960000000  0.4658260000000 1.0
C      1  0.5073390000000  0.5190650000000  0.4583350000000 1.0
C      1  0.5086010000000  0.5478650000000  0.5053360000000 1.0
C      1  0.5050160000000  0.5117530000000  0.5471130000000 1.0
C      1  0.5439080000000  0.4770750000000  0.5630440000000 1.0
C      1  0.5453200000000  0.4315270000000  0.4921950000000 1.0
C      1  0.5436680000000  0.4872100000000  0.4333050000000 1.0
C      1  0.5469830000000  0.5536220000000  0.4657020000000 1.0
C      1  0.5426390000000  0.5510650000000  0.5460230000000 1.0
C      1  0.4378350000000  0.4471140000000  0.4870120000000 1.0
C      1  0.4338740000000  0.4958470000000  0.4454460000000 1.0
C      1  0.4318410000000  0.5514350000000  0.4834280000000 1.0
C      1  0.4299220000000  0.5312110000000  0.5422480000000 1.0
C      1  0.4342870000000  0.4665860000000  0.5413490000000 1.0
C      1  0.5789840000000  0.5203170000000  0.5129340000000 1.0
C      1  0.5792800000000  0.4940200000000  0.5265310000000 1.0
C      1  0.5804630000000  0.4717220000000  0.5055650000000 1.0
C      1  0.5827830000000  0.4860530000000  0.4785220000000 1.0
C      1  0.5796610000000  0.5154790000000  0.4833680000000 1.0
C      1  0.5319830000000  0.5764970000000  0.5359250000000 1.0
C      1  0.5277620000000  0.4912470000000  0.5835540000000 1.0
C      1  0.5292630000000  0.4151720000000  0.5114530000000 1.0
C      1  0.5292630000000  0.4628030000000  0.4254060000000 1.0
C      1  0.5309140000000  0.5563490000000  0.4412320000000 1.0
C      1  0.5359310000000  0.5367950000000  0.4197290000000 1.0
C      1  0.5400700000000  0.5875500000000  0.5098420000000 1.0
C      1  0.5330990000000  0.5198280000000  0.5894740000000 1.0
C      1  0.5372780000000  0.4166110000000  0.5402190000000 1.0
C      1  0.5371600000000  0.4361110000000  0.4348200000000 1.0
C      1  0.4898020000000  0.4732270000000  0.5287940000000 1.0
C      1  0.4857830000000  0.4659690000000  0.4811680000000 1.0
C      1  0.4805910000000  0.5081300000000  0.4655660000000 1.0
C      1  0.4803090000000  0.5415740000000  0.4967870000000 1.0
C      1  0.4768520000000  0.5182490000000  0.5357680000000 1.0
C      1  0.4548130000000  0.5005640000000  0.4252690000000 1.0
C      1  0.4509750000000  0.5732330000000  0.4774160000000 1.0
C      1  0.4486380000000  0.5421900000000  0.5616080000000 1.0
C      1  0.4552560000000  0.4544070000000  0.5566930000000 1.0
C      1  0.4585030000000  0.4289490000000  0.4778280000000 1.0
C      1  0.4309860000000  0.5233940000000  0.4910130000000 1.0
C      1  0.4303800000000  0.5140620000000  0.5191740000000 1.0
C      1  0.4309000000000  0.4845420000000  0.5195310000000 1.0
C      1  0.4321050000000  0.4747120000000  0.4921200000000 1.0
C      1  0.4327230000000  0.4984840000000  0.4741820000000 1.0
C      1  0.5075860000000  0.5358980000000  0.5901000000000 1.0
C      1  0.5135900000000  0.4160480000000  0.5569680000000 1.0
C      1  0.5122240000000  0.4215240000000  0.4439180000000 1.0
C      1  0.5108100000000  0.5250420000000  0.4090800000000 1.0
C      1  0.5156440000000  0.5948860000000  0.4939000000000 1.0
C      1  0.5277170000000  0.4516840000000  0.5526270000000 1.0
C      1  0.5225550000000  0.4383630000000  0.4697660000000 1.0
C      1  0.5175690000000  0.5051200000000  0.4323520000000 1.0
C      1  0.5227890000000  0.5651970000000  0.4839570000000 1.0
C      1  0.5173580000000  0.5374900000000  0.5593110000000 1.0
C      1  0.4714830000000  0.5118880000000  0.5039600000000 1.0
END
