TITL C-3577084-3642-564 -3.3861779700745e-07 125000 -956.09676106616 0 0 153 (C1) n - 1
REM
REM in /home/bkarasulu/work/CARBON/AIRSS/Generating-Clusters/EDIP-Nigel-Params/with-SteepDescent/Higher-Symm/SD-CG/HFTN-CG
REM
REM
REM
REM
REM
REM ./C.cell (12c818d87b63d06a65506943cc24bca4)
REM
REM compiler GCC version 9.2.1 20190827 (Red Hat 9.2.1-1)
REM options -cpp -mtune=generic -march=x86-64 -g -O0 -fpre-include=/usr/include/finclude/math-vector-fortran.h
REM seed -1950605822 -736097075 -1291140522 1311856312 338273140 -1930134324 1280093959 1629513196 -371016118 1220096011 767975569 1857136200 -1995912093 -686982995 1091418510 693588364 -2137783654 692132141 1054754306 -236220776 555177328 -1517997289 -117856022 -89939808 1222857 1953750477 356348433 1463082221 776184960 -1072817769 -398869751 1647036201 1824583615
REM
CELL 1.54180   50.00000   50.00000   50.00000   90.00000   90.00000   90.00000
LATT -1
SFAC C  
C      1  0.4751070000000  0.4093940000000  0.5081490000000 1.0
C      1  0.4773980000000  0.5817710000000  0.4907750000000 1.0
C      1  0.4859560000000  0.4206360000000  0.4828940000000 1.0
C      1  0.5014460000000  0.5778670000000  0.4737710000000 1.0
C      1  0.5139150000000  0.4105630000000  0.4815340000000 1.0
C      1  0.5237030000000  0.5895190000000  0.4899920000000 1.0
C      1  0.5221210000000  0.4195380000000  0.5090080000000 1.0
C      1  0.5136460000000  0.5849590000000  0.5208930000000 1.0
C      1  0.5011670000000  0.4084460000000  0.5269800000000 1.0
C      1  0.4885470000000  0.5672920000000  0.5166150000000 1.0
C      1  0.4700270000000  0.4815340000000  0.5820630000000 1.0
C      1  0.4273820000000  0.5194740000000  0.5487910000000 1.0
C      1  0.4122760000000  0.4834510000000  0.4971380000000 1.0
C      1  0.4302290000000  0.5188120000000  0.4446830000000 1.0
C      1  0.4752750000000  0.4828630000000  0.4150490000000 1.0
C      1  0.5306500000000  0.5190690000000  0.4141890000000 1.0
C      1  0.5731010000000  0.4830970000000  0.4497300000000 1.0
C      1  0.5874280000000  0.5178940000000  0.5021810000000 1.0
C      1  0.5701740000000  0.4800520000000  0.5553950000000 1.0
C      1  0.5246510000000  0.5167280000000  0.5863950000000 1.0
C      1  0.5141160000000  0.5685760000000  0.5663830000000 1.0
C      1  0.4743490000000  0.4329990000000  0.5604980000000 1.0
C      1  0.4423350000000  0.5697880000000  0.5311050000000 1.0
C      1  0.4349510000000  0.4343260000000  0.4957250000000 1.0
C      1  0.4516310000000  0.5689820000000  0.4520200000000 1.0
C      1  0.4850090000000  0.4352160000000  0.4377490000000 1.0
C      1  0.5294740000000  0.5702710000000  0.4368260000000 1.0
C      1  0.5548420000000  0.4347460000000  0.4681220000000 1.0
C      1  0.5638640000000  0.5661430000000  0.5060900000000 1.0
C      1  0.5493720000000  0.4300280000000  0.5465850000000 1.0
C      1  0.5756820000000  0.5545310000000  0.5534890000000 1.0
C      1  0.5310390000000  0.4412070000000  0.5923960000000 1.0
C      1  0.4719190000000  0.5561920000000  0.5918840000000 1.0
C      1  0.4248350000000  0.4445290000000  0.5569200000000 1.0
C      1  0.4039410000000  0.5579580000000  0.5003530000000 1.0
C      1  0.4214050000000  0.4437960000000  0.4471270000000 1.0
C      1  0.4691250000000  0.5571090000000  0.4064260000000 1.0
C      1  0.5267870000000  0.4430570000000  0.4099470000000 1.0
C      1  0.5779880000000  0.5583380000000  0.4412000000000 1.0
C      1  0.5943900000000  0.4436810000000  0.4983860000000 1.0
C      1  0.5257030000000  0.4312070000000  0.5642020000000 1.0
C      1  0.4844650000000  0.5644590000000  0.5654660000000 1.0
C      1  0.4507240000000  0.4365150000000  0.5434660000000 1.0
C      1  0.4327200000000  0.5670660000000  0.5031030000000 1.0
C      1  0.4426090000000  0.4352100000000  0.4672010000000 1.0
C      1  0.4752990000000  0.5661060000000  0.4345860000000 1.0
C      1  0.5145290000000  0.4351890000000  0.4367770000000 1.0
C      1  0.5528170000000  0.5684080000000  0.4550090000000 1.0
C      1  0.5652240000000  0.4368050000000  0.4957500000000 1.0
C      1  0.5545960000000  0.5612830000000  0.5336600000000 1.0
C      1  0.4033010000000  0.4786960000000  0.4682500000000 1.0
C      1  0.4395090000000  0.5225420000000  0.4153860000000 1.0
C      1  0.4998360000000  0.4776970000000  0.3972740000000 1.0
C      1  0.5614800000000  0.5233050000000  0.4146100000000 1.0
C      1  0.5973130000000  0.4783200000000  0.4679600000000 1.0
C      1  0.5950710000000  0.5211490000000  0.5314880000000 1.0
C      1  0.5603830000000  0.4761120000000  0.5845070000000 1.0
C      1  0.4994850000000  0.5208460000000  0.6040520000000 1.0
C      1  0.4398480000000  0.4784560000000  0.5812580000000 1.0
C      1  0.4025650000000  0.5236830000000  0.5309850000000 1.0
C      1  0.5922680000000  0.5338380000000  0.4535270000000 1.0
C      1  0.6002730000000  0.4674100000000  0.5169120000000 1.0
C      1  0.5687820000000  0.5308880000000  0.5712600000000 1.0
C      1  0.5145100000000  0.4655740000000  0.6020780000000 1.0
C      1  0.4523680000000  0.5324520000000  0.5907430000000 1.0
C      1  0.4095390000000  0.4685600000000  0.5446000000000 1.0
C      1  0.3992620000000  0.5335290000000  0.4820780000000 1.0
C      1  0.4286260000000  0.4673400000000  0.4279130000000 1.0
C      1  0.4851450000000  0.5327150000000  0.3965790000000 1.0
C      1  0.5469780000000  0.4667410000000  0.4091340000000 1.0
C      1  0.4274350000000  0.4876100000000  0.4514710000000 1.0
C      1  0.4692150000000  0.5137010000000  0.4160640000000 1.0
C      1  0.5239290000000  0.4873150000000  0.4140020000000 1.0
C      1  0.5698360000000  0.5145160000000  0.4432740000000 1.0
C      1  0.5874010000000  0.4874460000000  0.4958300000000 1.0
C      1  0.5708270000000  0.5107840000000  0.5477210000000 1.0
C      1  0.5306830000000  0.4848680000000  0.5835360000000 1.0
C      1  0.4760020000000  0.5123290000000  0.5853580000000 1.0
C      1  0.4322190000000  0.4881690000000  0.5528390000000 1.0
C      1  0.4124670000000  0.5144320000000  0.5032000000000 1.0
C      1  0.5134120000000  0.5331080000000  0.3959190000000 1.0
C      1  0.5696280000000  0.4671500000000  0.4259940000000 1.0
C      1  0.5994100000000  0.5334300000000  0.4809020000000 1.0
C      1  0.5928820000000  0.4664610000000  0.5441890000000 1.0
C      1  0.5486790000000  0.5316240000000  0.5910670000000 1.0
C      1  0.4862630000000  0.4657270000000  0.6001250000000 1.0
C      1  0.4299260000000  0.5334770000000  0.5737370000000 1.0
C      1  0.3998120000000  0.4683020000000  0.5181430000000 1.0
C      1  0.4078800000000  0.5335860000000  0.4551870000000 1.0
C      1  0.4514680000000  0.4670330000000  0.4113460000000 1.0
C      1  0.4856000000000  0.3702010000000  0.4805700000000 1.0
C      1  0.4936040000000  0.6268610000000  0.4797690000000 1.0
C      1  0.5126520000000  0.3796560000000  0.4819360000000 1.0
C      1  0.5176120000000  0.6201680000000  0.4939860000000 1.0
C      1  0.5222590000000  0.3691170000000  0.5068170000000 1.0
C      1  0.5077750000000  0.6150330000000  0.5229520000000 1.0
C      1  0.5012260000000  0.3772780000000  0.5245210000000 1.0
C      1  0.4795590000000  0.6194990000000  0.5218710000000 1.0
C      1  0.4759070000000  0.3781390000000  0.5063750000000 1.0
C      1  0.4741790000000  0.6120310000000  0.4948210000000 1.0
C      1  0.4863680000000  0.5205530000000  0.5591550000000 1.0
C      1  0.4558440000000  0.4798620000000  0.5365100000000 1.0
C      1  0.4406080000000  0.5234750000000  0.5043830000000 1.0
C      1  0.4494720000000  0.4788440000000  0.4694550000000 1.0
C      1  0.4767580000000  0.5226780000000  0.4432320000000 1.0
C      1  0.5141940000000  0.4792620000000  0.4406920000000 1.0
C      1  0.5460510000000  0.5248060000000  0.4573890000000 1.0
C      1  0.5588890000000  0.4808390000000  0.4948120000000 1.0
C      1  0.5471660000000  0.5143710000000  0.5277280000000 1.0
C      1  0.5235710000000  0.4746860000000  0.5566590000000 1.0
C      1  0.5056070000000  0.4504520000000  0.3920280000000 1.0
C      1  0.5709160000000  0.5502390000000  0.4144280000000 1.0
C      1  0.6045620000000  0.4512100000000  0.4725950000000 1.0
C      1  0.5996920000000  0.5476750000000  0.5397360000000 1.0
C      1  0.5585670000000  0.4493930000000  0.5940020000000 1.0
C      1  0.4926830000000  0.5478850000000  0.6099580000000 1.0
C      1  0.4303980000000  0.4519850000000  0.5839310000000 1.0
C      1  0.3941530000000  0.5504730000000  0.5263450000000 1.0
C      1  0.3978350000000  0.4518590000000  0.4612030000000 1.0
C      1  0.4414550000000  0.5491930000000  0.4054400000000 1.0
C      1  0.4501840000000  0.4229910000000  0.5174420000000 1.0
C      1  0.4526650000000  0.5696400000000  0.4807860000000 1.0
C      1  0.4698340000000  0.4264780000000  0.4603250000000 1.0
C      1  0.5023670000000  0.5709660000000  0.4462760000000 1.0
C      1  0.5296860000000  0.4235220000000  0.4595780000000 1.0
C      1  0.5506630000000  0.5784210000000  0.4833040000000 1.0
C      1  0.5472400000000  0.4293770000000  0.5179900000000 1.0
C      1  0.5308500000000  0.5761170000000  0.5431270000000 1.0
C      1  0.4996530000000  0.4209300000000  0.5540700000000 1.0
C      1  0.4701330000000  0.5696760000000  0.5394080000000 1.0
C      1  0.4616690000000  0.5182360000000  0.4848530000000 1.0
C      1  0.4771330000000  0.4865800000000  0.4682910000000 1.0
C      1  0.5022140000000  0.5180940000000  0.4573680000000 1.0
C      1  0.5256430000000  0.4863530000000  0.4657390000000 1.0
C      1  0.5381900000000  0.5183900000000  0.4839330000000 1.0
C      1  0.5401130000000  0.4864500000000  0.5169810000000 1.0
C      1  0.5228030000000  0.5305270000000  0.5340410000000 1.0
C      1  0.5010930000000  0.4829360000000  0.5411430000000 1.0
C      1  0.4760730000000  0.5183750000000  0.5314130000000 1.0
C      1  0.4663090000000  0.4880840000000  0.5094620000000 1.0
C      1  0.4489820000000  0.5320640000000  0.5306240000000 1.0
C      1  0.4408040000000  0.4719360000000  0.4960360000000 1.0
C      1  0.4542630000000  0.5313230000000  0.4589800000000 1.0
C      1  0.4862550000000  0.4732030000000  0.4421380000000 1.0
C      1  0.5237600000000  0.5325260000000  0.4410220000000 1.0
C      1  0.5512600000000  0.4726340000000  0.4685820000000 1.0
C      1  0.5585510000000  0.5283070000000  0.5043010000000 1.0
C      1  0.5468080000000  0.4678150000000  0.5401050000000 1.0
C      1  0.5130530000000  0.5312710000000  0.5614580000000 1.0
C      1  0.4768300000000  0.4707500000000  0.5536210000000 1.0
C      1  0.4982600000000  0.5327300000000  0.5155950000000 1.0
C      1  0.5097540000000  0.4847990000000  0.5121460000000 1.0
C      1  0.5024080000000  0.5092120000000  0.4949400000000 1.0
END
