TITL C-3578196-9646-167 7.08835050352353e-07 125000 -431.650076552889 0 0 72 (C1) n - 1
REM
REM in /home/bkarasulu/work/CARBON/AIRSS/Generating-Clusters/EDIP-Nigel-Params/with-SteepDescent/Higher-Symm/SD-CG/HFTN-CG
REM
REM
REM
REM
REM
REM ./C.cell (12c818d87b63d06a65506943cc24bca4)
REM
REM compiler GCC version 9.2.1 20190827 (Red Hat 9.2.1-1)
REM options -cpp -mtune=generic -march=x86-64 -g -O0 -fpre-include=/usr/include/finclude/math-vector-fortran.h
REM seed 1653597614 -1459405252 -1059965233 -1541828800 1706404317 -1295014621 2051685728 1414334703 2550376 -2005810599 -520780801 -653980036 1433944052 -913944396 670287017 904648582 -195665160 1390897674 1028346905 -1784681547 801725065 -576311636 -879806724 799958495 441296062 -1374888279 -1884673976 2050983532 459906701 -994111686 -247093031 2105607680 996594258
REM
CELL 1.54180   50.00000   50.00000   50.00000   90.00000   90.00000   90.00000
LATT -1
SFAC C  
C      1  0.5498260000000  0.5158500000000  0.5159740000000 1.0
C      1  0.5491570000000  0.4839060000000  0.4856070000000 1.0
C      1  0.5500830000000  0.4836530000000  0.5160500000000 1.0
C      1  0.5488450000000  0.5155370000000  0.4856080000000 1.0
C      1  0.4930180000000  0.4350930000000  0.4681300000000 1.0
C      1  0.4950260000000  0.5663300000000  0.5322270000000 1.0
C      1  0.4936220000000  0.5660000000000  0.4670750000000 1.0
C      1  0.4963460000000  0.4355070000000  0.5321660000000 1.0
C      1  0.4647680000000  0.4373260000000  0.4702330000000 1.0
C      1  0.4673550000000  0.5631940000000  0.5280040000000 1.0
C      1  0.4653100000000  0.5658310000000  0.4684570000000 1.0
C      1  0.4683270000000  0.4347510000000  0.5294020000000 1.0
C      1  0.4475620000000  0.5430360000000  0.5272420000000 1.0
C      1  0.4468200000000  0.4591420000000  0.4726730000000 1.0
C      1  0.4486970000000  0.4549750000000  0.5282570000000 1.0
C      1  0.4460990000000  0.5451930000000  0.4705350000000 1.0
C      1  0.5332530000000  0.5131350000000  0.5719220000000 1.0
C      1  0.5334780000000  0.4864270000000  0.4282820000000 1.0
C      1  0.5349510000000  0.4859270000000  0.5726670000000 1.0
C      1  0.5338460000000  0.5135080000000  0.4282900000000 1.0
C      1  0.5478120000000  0.4593760000000  0.5326380000000 1.0
C      1  0.5462940000000  0.5392380000000  0.4686260000000 1.0
C      1  0.5466230000000  0.5398040000000  0.5326630000000 1.0
C      1  0.5458690000000  0.4603880000000  0.4684780000000 1.0
C      1  0.5091370000000  0.4193550000000  0.4859440000000 1.0
C      1  0.5153360000000  0.5736320000000  0.5127920000000 1.0
C      1  0.5098220000000  0.5807290000000  0.4855270000000 1.0
C      1  0.5158380000000  0.4251560000000  0.5133260000000 1.0
C      1  0.4516260000000  0.5147040000000  0.5612330000000 1.0
C      1  0.4516100000000  0.4859200000000  0.4375300000000 1.0
C      1  0.4533170000000  0.4848890000000  0.5605740000000 1.0
C      1  0.4525800000000  0.5153730000000  0.4385310000000 1.0
C      1  0.5060400000000  0.5578030000000  0.4416700000000 1.0
C      1  0.5068430000000  0.4429880000000  0.5583560000000 1.0
C      1  0.5050530000000  0.4424140000000  0.4422550000000 1.0
C      1  0.5052920000000  0.5576560000000  0.5581020000000 1.0
C      1  0.4347450000000  0.5351640000000  0.5510470000000 1.0
C      1  0.4336040000000  0.4675470000000  0.4492940000000 1.0
C      1  0.4363570000000  0.4635680000000  0.5521450000000 1.0
C      1  0.4345000000000  0.5359950000000  0.4464910000000 1.0
C      1  0.5321480000000  0.4611910000000  0.5577800000000 1.0
C      1  0.5302040000000  0.5376370000000  0.4438190000000 1.0
C      1  0.5295500000000  0.5374610000000  0.5567040000000 1.0
C      1  0.5294710000000  0.4623960000000  0.4438770000000 1.0
C      1  0.4890000000000  0.5241810000000  0.4808480000000 1.0
C      1  0.4920360000000  0.4774360000000  0.5192140000000 1.0
C      1  0.4901260000000  0.4772650000000  0.4813020000000 1.0
C      1  0.4879990000000  0.5153070000000  0.5159870000000 1.0
C      1  0.4565120000000  0.5182270000000  0.5130340000000 1.0
C      1  0.4612040000000  0.4817750000000  0.4864530000000 1.0
C      1  0.4612210000000  0.4798850000000  0.5171860000000 1.0
C      1  0.4590480000000  0.5204450000000  0.4822340000000 1.0
C      1  0.5010300000000  0.4858110000000  0.5488750000000 1.0
C      1  0.4994370000000  0.5155030000000  0.4534670000000 1.0
C      1  0.4985670000000  0.5156090000000  0.5468430000000 1.0
C      1  0.4990780000000  0.4850030000000  0.4535620000000 1.0
C      1  0.4852880000000  0.5502080000000  0.4238200000000 1.0
C      1  0.4858180000000  0.4501360000000  0.5760690000000 1.0
C      1  0.4840290000000  0.4498180000000  0.4245480000000 1.0
C      1  0.4834680000000  0.5507630000000  0.5750740000000 1.0
C      1  0.5437880000000  0.5667300000000  0.5199670000000 1.0
C      1  0.5444730000000  0.4337340000000  0.4806960000000 1.0
C      1  0.5444780000000  0.4324980000000  0.5196280000000 1.0
C      1  0.5450180000000  0.5658090000000  0.4809830000000 1.0
C      1  0.4799660000000  0.5235660000000  0.4317190000000 1.0
C      1  0.4803960000000  0.4768730000000  0.5687250000000 1.0
C      1  0.4790970000000  0.4766520000000  0.4320650000000 1.0
C      1  0.4785930000000  0.5238480000000  0.5677720000000 1.0
C      1  0.5676240000000  0.5831820000000  0.5144920000000 1.0
C      1  0.5690230000000  0.4196850000000  0.4863250000000 1.0
C      1  0.5680490000000  0.4159940000000  0.5133070000000 1.0
C      1  0.5695780000000  0.5793530000000  0.4875990000000 1.0
END
