TITL C-3577076-40-269 9.3320088464395e-07 125000 -490.88414293567 0 0 77 (C1) n - 1
REM
REM in /home/bkarasulu/work/CARBON/AIRSS/Generating-Clusters/EDIP-Nigel-Params/with-SteepDescent/Higher-Symm/SD-CG/HFTN-CG
REM
REM
REM
REM
REM
REM ./C.cell (12c818d87b63d06a65506943cc24bca4)
REM
REM compiler GCC version 9.2.1 20190827 (Red Hat 9.2.1-1)
REM options -cpp -mtune=generic -march=x86-64 -g -O0 -fpre-include=/usr/include/finclude/math-vector-fortran.h
REM seed -1224228603 1745663929 -2036339216 1604132033 -809628210 1170771525 762824222 515147997 -1102586103 1281296652 -1928595399 -243714846 -1714896782 -81766697 156061078 -2005999848 -157927200 -1406756530 329676807 1375902620 73269500 218953510 1457576569 708563561 1574962911 1705618158 1477321115 -1068587125 1296176509 -909360762 -1571279299 1422047478 1124130517
REM
CELL 1.54180   50.00000   50.00000   50.00000   90.00000   90.00000   90.00000
LATT -1
SFAC C  
C      1  0.4224560000000  0.4573500000000  0.5144490000000 1.0
C      1  0.4979090000000  0.4612430000000  0.5775640000000 1.0
C      1  0.5534890000000  0.4632780000000  0.5415120000000 1.0
C      1  0.5526930000000  0.4555550000000  0.4470090000000 1.0
C      1  0.4609490000000  0.4594510000000  0.4253450000000 1.0
C      1  0.4594780000000  0.4566810000000  0.5480490000000 1.0
C      1  0.5307390000000  0.4460090000000  0.5422310000000 1.0
C      1  0.5566820000000  0.4559480000000  0.4946160000000 1.0
C      1  0.5076080000000  0.4545800000000  0.4311690000000 1.0
C      1  0.4383320000000  0.4552690000000  0.4680950000000 1.0
C      1  0.5598870000000  0.4793030000000  0.5632160000000 1.0
C      1  0.5661270000000  0.4671020000000  0.4688680000000 1.0
C      1  0.4861780000000  0.4700910000000  0.4192030000000 1.0
C      1  0.4219830000000  0.4692520000000  0.4884660000000 1.0
C      1  0.4733330000000  0.4712670000000  0.5685770000000 1.0
C      1  0.4236890000000  0.4986430000000  0.4873230000000 1.0
C      1  0.4682630000000  0.5004600000000  0.5717840000000 1.0
C      1  0.5638260000000  0.5072790000000  0.5639920000000 1.0
C      1  0.5666910000000  0.4965470000000  0.4686770000000 1.0
C      1  0.4876030000000  0.4990570000000  0.4216600000000 1.0
C      1  0.4481090000000  0.5151040000000  0.5558260000000 1.0
C      1  0.5405470000000  0.5231140000000  0.5729830000000 1.0
C      1  0.5775450000000  0.5136860000000  0.4891710000000 1.0
C      1  0.5121190000000  0.5139960000000  0.4224300000000 1.0
C      1  0.4293250000000  0.5152000000000  0.4642520000000 1.0
C      1  0.5578350000000  0.5453910000000  0.5342190000000 1.0
C      1  0.5514400000000  0.5400860000000  0.4576050000000 1.0
C      1  0.4755760000000  0.5412620000000  0.4382950000000 1.0
C      1  0.4344720000000  0.5420620000000  0.5041830000000 1.0
C      1  0.4854450000000  0.5457150000000  0.5648910000000 1.0
C      1  0.4903080000000  0.5190370000000  0.5792550000000 1.0
C      1  0.5734990000000  0.5201960000000  0.5389850000000 1.0
C      1  0.5565460000000  0.5124020000000  0.4466520000000 1.0
C      1  0.4643270000000  0.5159930000000  0.4267330000000 1.0
C      1  0.4237550000000  0.5147370000000  0.5113760000000 1.0
C      1  0.5271320000000  0.4887730000000  0.5089740000000 1.0
C      1  0.5153170000000  0.4736070000000  0.4765900000000 1.0
C      1  0.4837020000000  0.4822950000000  0.4751500000000 1.0
C      1  0.4703630000000  0.4643820000000  0.4970740000000 1.0
C      1  0.5052110000000  0.4820240000000  0.5311940000000 1.0
C      1  0.5208660000000  0.5432590000000  0.4612280000000 1.0
C      1  0.4696400000000  0.5419610000000  0.4678630000000 1.0
C      1  0.4605360000000  0.5452280000000  0.5194000000000 1.0
C      1  0.5088230000000  0.5507000000000  0.5449910000000 1.0
C      1  0.5454350000000  0.5455180000000  0.5066230000000 1.0
C      1  0.4968900000000  0.4327640000000  0.4451520000000 1.0
C      1  0.4599680000000  0.4399040000000  0.4819780000000 1.0
C      1  0.4877230000000  0.4577370000000  0.5223700000000 1.0
C      1  0.5138500000000  0.4404490000000  0.5183060000000 1.0
C      1  0.5271880000000  0.4479710000000  0.4919560000000 1.0
C      1  0.5657330000000  0.5411280000000  0.4846220000000 1.0
C      1  0.5058220000000  0.5404950000000  0.4345940000000 1.0
C      1  0.4397500000000  0.5413680000000  0.4740520000000 1.0
C      1  0.4583610000000  0.5430740000000  0.5503460000000 1.0
C      1  0.5373870000000  0.5478870000000  0.5560980000000 1.0
C      1  0.4454140000000  0.4710000000000  0.5259920000000 1.0
C      1  0.5166300000000  0.4765700000000  0.5612260000000 1.0
C      1  0.5549440000000  0.4774050000000  0.5158190000000 1.0
C      1  0.5278380000000  0.4708040000000  0.4464230000000 1.0
C      1  0.4552680000000  0.4735670000000  0.4504770000000 1.0
C      1  0.5264750000000  0.5200970000000  0.5050350000000 1.0
C      1  0.5119230000000  0.5215840000000  0.4798890000000 1.0
C      1  0.4829220000000  0.5149060000000  0.4814060000000 1.0
C      1  0.4719630000000  0.5178290000000  0.5104400000000 1.0
C      1  0.4888530000000  0.5057480000000  0.5329310000000 1.0
C      1  0.4831350000000  0.5665930000000  0.4806620000000 1.0
C      1  0.4784780000000  0.5682180000000  0.5096980000000 1.0
C      1  0.5048570000000  0.5721120000000  0.5236410000000 1.0
C      1  0.5264930000000  0.5700500000000  0.5025110000000 1.0
C      1  0.5126800000000  0.5685200000000  0.4758680000000 1.0
C      1  0.4383570000000  0.5001080000000  0.5322530000000 1.0
C      1  0.5167480000000  0.5056770000000  0.5746260000000 1.0
C      1  0.5749720000000  0.5011300000000  0.5157950000000 1.0
C      1  0.5337640000000  0.4983850000000  0.4344630000000 1.0
C      1  0.4445770000000  0.5010480000000  0.4434310000000 1.0
C      1  0.5062990000000  0.5280260000000  0.5251380000000 1.0
C      1  0.4784080000000  0.4285020000000  0.4643090000000 1.0
END
