TITL C-3577086-586-226 -7.06514066018302e-07 125000 -570.020681988749 0 0 93 (C1) n - 1
REM
REM in /home/bkarasulu/work/CARBON/AIRSS/Generating-Clusters/EDIP-Nigel-Params/with-SteepDescent/Higher-Symm/SD-CG/HFTN-CG
REM
REM
REM
REM
REM
REM ./C.cell (12c818d87b63d06a65506943cc24bca4)
REM
REM compiler GCC version 9.2.1 20190827 (Red Hat 9.2.1-1)
REM options -cpp -mtune=generic -march=x86-64 -g -O0 -fpre-include=/usr/include/finclude/math-vector-fortran.h
REM seed 608199296 917042562 1369384699 1774986899 1163155554 1711724761 -1371546822 -1284385832 -706211075 -182082705 -1226266579 -1533342420 148529365 -119158513 -1050102753 -959060201 523116429 1004220516 -542366820 -412337386 -2144565403 -2090640493 -973614487 -296165350 -666631113 -1781403009 -1006626073 290097400 279027064 -687250043 354021592 399071418 -352942816
REM
CELL 1.54180   50.00000   50.00000   50.00000   90.00000   90.00000   90.00000
LATT -1
SFAC C  
C      1  0.4815560000000  0.5110970000000  0.5539030000000 1.0
C      1  0.4811630000000  0.4880580000000  0.4453510000000 1.0
C      1  0.5127770000000  0.5128940000000  0.5514180000000 1.0
C      1  0.5122480000000  0.4863260000000  0.4478830000000 1.0
C      1  0.5160160000000  0.5040990000000  0.5983500000000 1.0
C      1  0.5153460000000  0.4950890000000  0.4005190000000 1.0
C      1  0.4859610000000  0.5023000000000  0.5992150000000 1.0
C      1  0.4852960000000  0.4972530000000  0.4002840000000 1.0
C      1  0.4211010000000  0.5216830000000  0.4295590000000 1.0
C      1  0.4231780000000  0.4779650000000  0.5685130000000 1.0
C      1  0.5777720000000  0.5180560000000  0.4302410000000 1.0
C      1  0.5796320000000  0.4813040000000  0.5694380000000 1.0
C      1  0.4428000000000  0.5298050000000  0.5496160000000 1.0
C      1  0.4426210000000  0.4688670000000  0.4493830000000 1.0
C      1  0.5586120000000  0.5322650000000  0.5486090000000 1.0
C      1  0.5567420000000  0.4687160000000  0.4507460000000 1.0
C      1  0.5617990000000  0.4715610000000  0.4976950000000 1.0
C      1  0.5630980000000  0.5290570000000  0.5018020000000 1.0
C      1  0.4297830000000  0.4715560000000  0.4968540000000 1.0
C      1  0.4298100000000  0.5275430000000  0.5016380000000 1.0
C      1  0.5345870000000  0.4603810000000  0.4886740000000 1.0
C      1  0.5353890000000  0.5388780000000  0.5108870000000 1.0
C      1  0.4648610000000  0.4618880000000  0.4866000000000 1.0
C      1  0.4646970000000  0.5369880000000  0.5123670000000 1.0
C      1  0.5413050000000  0.4446380000000  0.4632810000000 1.0
C      1  0.5415300000000  0.5555510000000  0.5357430000000 1.0
C      1  0.4665730000000  0.4438000000000  0.4632370000000 1.0
C      1  0.4664150000000  0.5550070000000  0.5358370000000 1.0
C      1  0.5297510000000  0.5319530000000  0.5915600000000 1.0
C      1  0.5292050000000  0.4672000000000  0.4073840000000 1.0
C      1  0.4698020000000  0.5286410000000  0.5930350000000 1.0
C      1  0.4692320000000  0.4710040000000  0.4061500000000 1.0
C      1  0.5309120000000  0.4358060000000  0.5566950000000 1.0
C      1  0.5312930000000  0.5634810000000  0.4430320000000 1.0
C      1  0.4705190000000  0.4356450000000  0.5537610000000 1.0
C      1  0.4711990000000  0.5635970000000  0.4452770000000 1.0
C      1  0.4439860000000  0.4417680000000  0.5471780000000 1.0
C      1  0.4445080000000  0.5573100000000  0.4509180000000 1.0
C      1  0.5575820000000  0.4430980000000  0.5516320000000 1.0
C      1  0.5581970000000  0.5569910000000  0.4480450000000 1.0
C      1  0.4847720000000  0.5373670000000  0.4385860000000 1.0
C      1  0.4841960000000  0.4617950000000  0.5608980000000 1.0
C      1  0.5171910000000  0.5366030000000  0.4388730000000 1.0
C      1  0.5166060000000  0.4625420000000  0.5604300000000 1.0
C      1  0.5177540000000  0.5753920000000  0.4673600000000 1.0
C      1  0.5175400000000  0.4234260000000  0.5324980000000 1.0
C      1  0.4860430000000  0.5742470000000  0.4691550000000 1.0
C      1  0.4857900000000  0.4243750000000  0.5304650000000 1.0
C      1  0.4322350000000  0.4835060000000  0.5229900000000 1.0
C      1  0.4324680000000  0.5154880000000  0.4754120000000 1.0
C      1  0.5648180000000  0.4844120000000  0.5243760000000 1.0
C      1  0.5653440000000  0.5160490000000  0.4751890000000 1.0
C      1  0.5173030000000  0.4362920000000  0.4482610000000 1.0
C      1  0.5172940000000  0.5630220000000  0.5507480000000 1.0
C      1  0.4921750000000  0.4315390000000  0.4611550000000 1.0
C      1  0.4920540000000  0.5673880000000  0.5378170000000 1.0
C      1  0.5122740000000  0.4598240000000  0.4312470000000 1.0
C      1  0.5127450000000  0.5394140000000  0.5677630000000 1.0
C      1  0.4840940000000  0.4552200000000  0.4245490000000 1.0
C      1  0.4845750000000  0.5440750000000  0.5743980000000 1.0
C      1  0.4808970000000  0.5481900000000  0.4877870000000 1.0
C      1  0.4805110000000  0.4505750000000  0.5115170000000 1.0
C      1  0.5187710000000  0.5499330000000  0.4863950000000 1.0
C      1  0.5183360000000  0.4486960000000  0.5130770000000 1.0
C      1  0.5163530000000  0.5264460000000  0.4677330000000 1.0
C      1  0.5157120000000  0.4722120000000  0.5315070000000 1.0
C      1  0.4861120000000  0.5253970000000  0.4686280000000 1.0
C      1  0.4855850000000  0.4735940000000  0.5305430000000 1.0
C      1  0.4730620000000  0.4882060000000  0.5744900000000 1.0
C      1  0.4728940000000  0.5112670000000  0.4252780000000 1.0
C      1  0.5272720000000  0.4903390000000  0.5728280000000 1.0
C      1  0.5273550000000  0.5089560000000  0.4255480000000 1.0
C      1  0.4308120000000  0.4859440000000  0.4716740000000 1.0
C      1  0.4302310000000  0.5131210000000  0.5270560000000 1.0
C      1  0.5697740000000  0.4865950000000  0.4730650000000 1.0
C      1  0.5711130000000  0.5135920000000  0.5262250000000 1.0
C      1  0.5180940000000  0.4838450000000  0.4786510000000 1.0
C      1  0.5199390000000  0.5147760000000  0.5210500000000 1.0
C      1  0.4745110000000  0.4897920000000  0.4761430000000 1.0
C      1  0.4737160000000  0.5089190000000  0.5234120000000 1.0
C      1  0.5569610000000  0.5044580000000  0.4177740000000 1.0
C      1  0.5571960000000  0.4945700000000  0.5795300000000 1.0
C      1  0.4429110000000  0.5082440000000  0.4188570000000 1.0
C      1  0.4433520000000  0.4915560000000  0.5816400000000 1.0
C      1  0.5711450000000  0.4672580000000  0.5471860000000 1.0
C      1  0.5723090000000  0.5332100000000  0.4526630000000 1.0
C      1  0.4283850000000  0.4649010000000  0.5448740000000 1.0
C      1  0.4294870000000  0.5337070000000  0.4529430000000 1.0
C      1  0.5563120000000  0.5243140000000  0.5781200000000 1.0
C      1  0.5557400000000  0.4748450000000  0.4208840000000 1.0
C      1  0.4435610000000  0.5213130000000  0.5786730000000 1.0
C      1  0.4432180000000  0.4783230000000  0.4207870000000 1.0
C      1  0.5032280000000  0.5000270000000  0.5001370000000 1.0
END
