TITL C-3577081-279-79 9.75180473068492e-07 125000 -235.43353814468 0 0 39 (C1) n - 1
REM
REM in /home/bkarasulu/work/CARBON/AIRSS/Generating-Clusters/EDIP-Nigel-Params/with-SteepDescent/Higher-Symm/SD-CG/HFTN-CG
REM
REM
REM
REM
REM
REM ./C.cell (12c818d87b63d06a65506943cc24bca4)
REM
REM compiler GCC version 9.2.1 20190827 (Red Hat 9.2.1-1)
REM options -cpp -mtune=generic -march=x86-64 -g -O0 -fpre-include=/usr/include/finclude/math-vector-fortran.h
REM seed 113506986 922150683 -1689159366 -1891345917 1360865729 -580785211 -399553076 -1253699758 -834727042 -2016771481 -160256637 -1170428432 1680586604 945294701 -529719976 -142759465 -1572606348 -813643176 -288365888 -412701065 -306662826 -218616957 965867988 389834739 310860842 -825510919 642641917 -271074573 1982752014 -1006357757 961744298 -592584560 -1805774732
REM
CELL 1.54180   50.00000   50.00000   50.00000   90.00000   90.00000   90.00000
LATT -1
SFAC C  
C      1  0.4664370000000  0.5027310000000  0.5640950000000 1.0
C      1  0.4647610000000  0.5387990000000  0.5335470000000 1.0
C      1  0.4649980000000  0.5431100000000  0.4867620000000 1.0
C      1  0.4695720000000  0.5227680000000  0.4455630000000 1.0
C      1  0.4620180000000  0.4765040000000  0.4492910000000 1.0
C      1  0.4650090000000  0.4519880000000  0.4884730000000 1.0
C      1  0.4608330000000  0.4673730000000  0.5331760000000 1.0
C      1  0.5294480000000  0.4753440000000  0.5541160000000 1.0
C      1  0.5310650000000  0.5244590000000  0.5521770000000 1.0
C      1  0.5265960000000  0.5516800000000  0.5120730000000 1.0
C      1  0.5310430000000  0.5390100000000  0.4653670000000 1.0
C      1  0.5312260000000  0.4960110000000  0.4412490000000 1.0
C      1  0.5292760000000  0.4537510000000  0.4638410000000 1.0
C      1  0.5237500000000  0.4480680000000  0.5136780000000 1.0
C      1  0.4913500000000  0.5015300000000  0.5472580000000 1.0
C      1  0.4907420000000  0.5255510000000  0.5274900000000 1.0
C      1  0.4909780000000  0.5288020000000  0.4896060000000 1.0
C      1  0.4924740000000  0.5125560000000  0.4617880000000 1.0
C      1  0.4903230000000  0.4812810000000  0.4596330000000 1.0
C      1  0.4907800000000  0.4666270000000  0.4856570000000 1.0
C      1  0.4893420000000  0.4769430000000  0.5308550000000 1.0
C      1  0.5182580000000  0.5006350000000  0.5599710000000 1.0
C      1  0.5153780000000  0.5403900000000  0.5349890000000 1.0
C      1  0.5149520000000  0.5466520000000  0.4871420000000 1.0
C      1  0.5184980000000  0.5194440000000  0.4497570000000 1.0
C      1  0.5166100000000  0.4727950000000  0.4472520000000 1.0
C      1  0.5142120000000  0.4485100000000  0.4870010000000 1.0
C      1  0.5130780000000  0.4593180000000  0.5374620000000 1.0
C      1  0.4509980000000  0.5350010000000  0.4631710000000 1.0
C      1  0.4505510000000  0.5019750000000  0.4424460000000 1.0
C      1  0.4473400000000  0.4614080000000  0.4690340000000 1.0
C      1  0.4479790000000  0.4614080000000  0.5083400000000 1.0
C      1  0.4475920000000  0.4843550000000  0.5522290000000 1.0
C      1  0.4498610000000  0.5231330000000  0.5524090000000 1.0
C      1  0.4520630000000  0.5483800000000  0.5107520000000 1.0
C      1  0.5207480000000  0.4986200000000  0.5028490000000 1.0
C      1  0.4948380000000  0.4879240000000  0.5047030000000 1.0
C      1  0.5475320000000  0.4982740000000  0.5019180000000 1.0
C      1  0.5729350000000  0.5010790000000  0.5002040000000 1.0
END
