TITL C-3578195-8548-386 -7.95819236567506e-07 125000 -390.405501553047 0 0 63 (C1) n - 1
REM
REM in /home/bkarasulu/work/CARBON/AIRSS/Generating-Clusters/EDIP-Nigel-Params/with-SteepDescent/Higher-Symm/SD-CG/HFTN-CG
REM
REM
REM
REM
REM
REM ./C.cell (12c818d87b63d06a65506943cc24bca4)
REM
REM compiler GCC version 9.2.1 20190827 (Red Hat 9.2.1-1)
REM options -cpp -mtune=generic -march=x86-64 -g -O0 -fpre-include=/usr/include/finclude/math-vector-fortran.h
REM seed 557092209 1795362211 -452621639 -299883637 2027549755 738201822 1770715778 1405168253 58992102 350482452 -703983806 874486886 -953446671 399186586 -127919152 917220627 741769234 -253093560 -85999738 124980210 -1147106921 -1241952304 1748057617 -1055724327 -1837544857 -1331011893 1444521564 -1164396997 -2020817326 1605460836 -184522056 -1058088802 1066839379
REM
CELL 1.54180   50.00000   50.00000   50.00000   90.00000   90.00000   90.00000
LATT -1
SFAC C  
C      1  0.5380200000000  0.4938110000000  0.4546660000000 1.0
C      1  0.4590170000000  0.5382230000000  0.4620880000000 1.0
C      1  0.4603380000000  0.5151730000000  0.4450180000000 1.0
C      1  0.5665700000000  0.5420260000000  0.5160490000000 1.0
C      1  0.5424720000000  0.5446860000000  0.5310520000000 1.0
C      1  0.4746780000000  0.4928910000000  0.4956090000000 1.0
C      1  0.5323840000000  0.4336920000000  0.4736580000000 1.0
C      1  0.4402610000000  0.4513900000000  0.5144290000000 1.0
C      1  0.5494370000000  0.5382930000000  0.4682130000000 1.0
C      1  0.4456790000000  0.5032350000000  0.4952920000000 1.0
C      1  0.5669300000000  0.5026710000000  0.4951320000000 1.0
C      1  0.5188660000000  0.4875990000000  0.4764860000000 1.0
C      1  0.5244410000000  0.5682610000000  0.4887360000000 1.0
C      1  0.5544000000000  0.4495940000000  0.4631080000000 1.0
C      1  0.4888070000000  0.5034870000000  0.5740300000000 1.0
C      1  0.4990190000000  0.5514530000000  0.5229400000000 1.0
C      1  0.5322090000000  0.4273600000000  0.5011900000000 1.0
C      1  0.5065790000000  0.4821560000000  0.5800170000000 1.0
C      1  0.5749700000000  0.4559990000000  0.4809130000000 1.0
C      1  0.5594530000000  0.5108770000000  0.4682440000000 1.0
C      1  0.4839280000000  0.4986980000000  0.5247940000000 1.0
C      1  0.4860230000000  0.5483010000000  0.5496260000000 1.0
C      1  0.5020470000000  0.5429960000000  0.4386560000000 1.0
C      1  0.5597410000000  0.5534530000000  0.4911020000000 1.0
C      1  0.4938760000000  0.5705910000000  0.4802370000000 1.0
C      1  0.5017350000000  0.5254120000000  0.5590890000000 1.0
C      1  0.4480500000000  0.5327430000000  0.4885730000000 1.0
C      1  0.4836160000000  0.5193880000000  0.4264520000000 1.0
C      1  0.4892230000000  0.4729300000000  0.4372200000000 1.0
C      1  0.4994300000000  0.4942600000000  0.4225450000000 1.0
C      1  0.4811260000000  0.5574310000000  0.4565710000000 1.0
C      1  0.4664510000000  0.4412330000000  0.5260860000000 1.0
C      1  0.4546380000000  0.5520330000000  0.5105470000000 1.0
C      1  0.4450520000000  0.4589250000000  0.4847780000000 1.0
C      1  0.4584170000000  0.5410640000000  0.5392550000000 1.0
C      1  0.4875000000000  0.4553520000000  0.4585670000000 1.0
C      1  0.5184600000000  0.4500480000000  0.5135070000000 1.0
C      1  0.4426250000000  0.4935780000000  0.4496320000000 1.0
C      1  0.5247410000000  0.5645480000000  0.5194270000000 1.0
C      1  0.4584640000000  0.5112930000000  0.5391190000000 1.0
C      1  0.5485510000000  0.4689920000000  0.4436510000000 1.0
C      1  0.4309130000000  0.4732020000000  0.5341630000000 1.0
C      1  0.5080390000000  0.4367290000000  0.4605550000000 1.0
C      1  0.4594390000000  0.4992560000000  0.5666260000000 1.0
C      1  0.5223140000000  0.5098010000000  0.4336230000000 1.0
C      1  0.5416110000000  0.4992440000000  0.5476880000000 1.0
C      1  0.5053410000000  0.5134400000000  0.4831460000000 1.0
C      1  0.5068140000000  0.5179120000000  0.5138450000000 1.0
C      1  0.4481590000000  0.4712000000000  0.5602560000000 1.0
C      1  0.5284410000000  0.4755140000000  0.5613790000000 1.0
C      1  0.5238430000000  0.4514220000000  0.5431360000000 1.0
C      1  0.4751500000000  0.4633750000000  0.4851990000000 1.0
C      1  0.5631220000000  0.4738090000000  0.4992450000000 1.0
C      1  0.5313770000000  0.5268100000000  0.5540400000000 1.0
C      1  0.4800170000000  0.5665530000000  0.5059020000000 1.0
C      1  0.4353000000000  0.5006700000000  0.5234950000000 1.0
C      1  0.4880230000000  0.4472720000000  0.5067160000000 1.0
C      1  0.4330190000000  0.4849120000000  0.4748170000000 1.0
C      1  0.5185580000000  0.5366980000000  0.4668830000000 1.0
C      1  0.4933460000000  0.4728380000000  0.5423490000000 1.0
C      1  0.4714260000000  0.4546000000000  0.5518930000000 1.0
C      1  0.5354940000000  0.5028480000000  0.5177340000000 1.0
C      1  0.5320280000000  0.4757480000000  0.5010060000000 1.0
END
