TITL C-3577091-527-245 -2.77511437119354e-06 125000 -687.34911290278 0 0 110 (C1) n - 1
REM
REM in /home/bkarasulu/work/CARBON/AIRSS/Generating-Clusters/EDIP-Nigel-Params/with-SteepDescent/Higher-Symm/SD-CG/HFTN-CG
REM
REM
REM
REM
REM
REM ./C.cell (12c818d87b63d06a65506943cc24bca4)
REM
REM compiler GCC version 9.2.1 20190827 (Red Hat 9.2.1-1)
REM options -cpp -mtune=generic -march=x86-64 -g -O0 -fpre-include=/usr/include/finclude/math-vector-fortran.h
REM seed -1429268859 1026174873 -922927759 2080124496 104231328 -2021634926 -237703966 1423320423 -1614267776 -703081546 -2036129543 1683473081 -530132606 -346786729 1650274958 -680559878 -899970533 -1233473135 1472853246 631236799 827729286 -1725684839 -1499306753 -2073822429 1575644021 760832231 -581163899 -964951747 -167141901 1661331263 -323182866 2009735038 2045763178
REM
CELL 1.54180   50.00000   50.00000   50.00000   90.00000   90.00000   90.00000
LATT -1
SFAC C  
C      1  0.4885210000000  0.4611380000000  0.4057780000000 1.0
C      1  0.4895630000000  0.4088380000000  0.5426270000000 1.0
C      1  0.4873330000000  0.5430870000000  0.5916380000000 1.0
C      1  0.4862890000000  0.5945250000000  0.4604460000000 1.0
C      1  0.5084930000000  0.4604570000000  0.5901480000000 1.0
C      1  0.5162510000000  0.4043350000000  0.4602230000000 1.0
C      1  0.5134750000000  0.5412730000000  0.4034220000000 1.0
C      1  0.5099910000000  0.5863960000000  0.5418050000000 1.0
C      1  0.4701130000000  0.5067780000000  0.5352870000000 1.0
C      1  0.4719830000000  0.5311420000000  0.4979660000000 1.0
C      1  0.4724030000000  0.4987660000000  0.4700440000000 1.0
C      1  0.4730550000000  0.4721890000000  0.5109950000000 1.0
C      1  0.5277580000000  0.5009130000000  0.4608240000000 1.0
C      1  0.5325640000000  0.5220630000000  0.5032730000000 1.0
C      1  0.5150550000000  0.4854980000000  0.5346290000000 1.0
C      1  0.5361220000000  0.4704640000000  0.4902660000000 1.0
C      1  0.4496640000000  0.5673960000000  0.5396590000000 1.0
C      1  0.4542190000000  0.5387680000000  0.4340650000000 1.0
C      1  0.4673710000000  0.4474270000000  0.4695050000000 1.0
C      1  0.4493660000000  0.4620590000000  0.5693300000000 1.0
C      1  0.5361650000000  0.5519470000000  0.4667890000000 1.0
C      1  0.5467600000000  0.5367230000000  0.5640720000000 1.0
C      1  0.5412250000000  0.4423260000000  0.5299410000000 1.0
C      1  0.5495190000000  0.4584790000000  0.4308740000000 1.0
C      1  0.4618230000000  0.4899630000000  0.4344910000000 1.0
C      1  0.4611750000000  0.4363770000000  0.5170300000000 1.0
C      1  0.4556510000000  0.5157900000000  0.5695520000000 1.0
C      1  0.4591320000000  0.5658120000000  0.4870280000000 1.0
C      1  0.5342310000000  0.4880500000000  0.5602520000000 1.0
C      1  0.5454150000000  0.4336910000000  0.4826800000000 1.0
C      1  0.5420830000000  0.5103710000000  0.4271400000000 1.0
C      1  0.5386340000000  0.5581130000000  0.5151620000000 1.0
C      1  0.4331960000000  0.5497050000000  0.5233210000000 1.0
C      1  0.4348040000000  0.5240610000000  0.4504250000000 1.0
C      1  0.4394800000000  0.4539330000000  0.4793230000000 1.0
C      1  0.4321300000000  0.4782200000000  0.5515850000000 1.0
C      1  0.5635110000000  0.5450510000000  0.4774480000000 1.0
C      1  0.5665810000000  0.5216100000000  0.5486660000000 1.0
C      1  0.5685030000000  0.4504770000000  0.5196930000000 1.0
C      1  0.5680800000000  0.4737720000000  0.4477510000000 1.0
C      1  0.6018540000000  0.4816170000000  0.4854360000000 1.0
C      1  0.6007860000000  0.4868780000000  0.5164220000000 1.0
C      1  0.6009380000000  0.5171530000000  0.5112900000000 1.0
C      1  0.6000460000000  0.5120290000000  0.4805570000000 1.0
C      1  0.4012030000000  0.4822970000000  0.5126730000000 1.0
C      1  0.4026860000000  0.4870490000000  0.4820080000000 1.0
C      1  0.4012440000000  0.5177590000000  0.4867190000000 1.0
C      1  0.4002040000000  0.5128770000000  0.5174720000000 1.0
C      1  0.4315310000000  0.5076680000000  0.5559110000000 1.0
C      1  0.4344660000000  0.5536300000000  0.4942790000000 1.0
C      1  0.4361050000000  0.4951570000000  0.4466780000000 1.0
C      1  0.4365070000000  0.4480870000000  0.5081610000000 1.0
C      1  0.5649370000000  0.5029050000000  0.4453380000000 1.0
C      1  0.5649300000000  0.5511000000000  0.5062950000000 1.0
C      1  0.5628500000000  0.4926740000000  0.5503550000000 1.0
C      1  0.5708170000000  0.4437860000000  0.4906790000000 1.0
C      1  0.4654300000000  0.4225480000000  0.5413620000000 1.0
C      1  0.4619510000000  0.5411490000000  0.5806680000000 1.0
C      1  0.4633980000000  0.5792240000000  0.4621090000000 1.0
C      1  0.4672110000000  0.4643870000000  0.4228600000000 1.0
C      1  0.5398370000000  0.4187330000000  0.4592100000000 1.0
C      1  0.5362390000000  0.5372050000000  0.4186150000000 1.0
C      1  0.5341540000000  0.5734130000000  0.5389950000000 1.0
C      1  0.5324330000000  0.4633880000000  0.5763970000000 1.0
C      1  0.4646160000000  0.5882220000000  0.5289770000000 1.0
C      1  0.4687690000000  0.5275610000000  0.4127340000000 1.0
C      1  0.4771240000000  0.4221900000000  0.4789000000000 1.0
C      1  0.4629350000000  0.4731030000000  0.5910220000000 1.0
C      1  0.5257110000000  0.5764970000000  0.4777130000000 1.0
C      1  0.5309940000000  0.5249070000000  0.5838890000000 1.0
C      1  0.5323340000000  0.4159640000000  0.5229530000000 1.0
C      1  0.5346390000000  0.4705270000000  0.4102690000000 1.0
C      1  0.5146860000000  0.4755070000000  0.4708040000000 1.0
C      1  0.5242340000000  0.4632450000000  0.5168520000000 1.0
C      1  0.5127950000000  0.5120460000000  0.5210960000000 1.0
C      1  0.5193950000000  0.5256000000000  0.4756460000000 1.0
C      1  0.4860120000000  0.4808540000000  0.5378120000000 1.0
C      1  0.4854400000000  0.4733310000000  0.4801980000000 1.0
C      1  0.4890420000000  0.5246690000000  0.4741830000000 1.0
C      1  0.4879890000000  0.5269400000000  0.5232980000000 1.0
C      1  0.4547300000000  0.4355580000000  0.5632080000000 1.0
C      1  0.4518260000000  0.5625400000000  0.5666680000000 1.0
C      1  0.4561080000000  0.5656940000000  0.4392910000000 1.0
C      1  0.4658010000000  0.4447940000000  0.4415060000000 1.0
C      1  0.5467360000000  0.4314080000000  0.4357000000000 1.0
C      1  0.5386150000000  0.5551650000000  0.4389010000000 1.0
C      1  0.5467490000000  0.5643660000000  0.5619380000000 1.0
C      1  0.5399970000000  0.4439860000000  0.5583700000000 1.0
C      1  0.5756930000000  0.5284020000000  0.5211450000000 1.0
C      1  0.5707780000000  0.5153780000000  0.4738720000000 1.0
C      1  0.5778020000000  0.4677570000000  0.4754440000000 1.0
C      1  0.5715480000000  0.4812660000000  0.5224890000000 1.0
C      1  0.4264350000000  0.5302350000000  0.4784510000000 1.0
C      1  0.4245840000000  0.5223120000000  0.5309320000000 1.0
C      1  0.4262970000000  0.4714190000000  0.5231070000000 1.0
C      1  0.4312800000000  0.4826280000000  0.4740940000000 1.0
C      1  0.4886300000000  0.4759860000000  0.6013140000000 1.0
C      1  0.4903030000000  0.5986450000000  0.5270670000000 1.0
C      1  0.4920650000000  0.5251310000000  0.3971850000000 1.0
C      1  0.4946980000000  0.4008190000000  0.4772300000000 1.0
C      1  0.5103620000000  0.4750530000000  0.3969220000000 1.0
C      1  0.5074840000000  0.5975030000000  0.4777970000000 1.0
C      1  0.5072850000000  0.5252400000000  0.5986810000000 1.0
C      1  0.5097300000000  0.3999400000000  0.5256530000000 1.0
C      1  0.4993930000000  0.6070410000000  0.5024190000000 1.0
C      1  0.5008140000000  0.3894150000000  0.5016770000000 1.0
C      1  0.4974570000000  0.5012270000000  0.6081880000000 1.0
C      1  0.5019610000000  0.5003840000000  0.3895700000000 1.0
C      1  0.5536640000000  0.4981350000000  0.4971650000000 1.0
C      1  0.4508100000000  0.5017020000000  0.5020070000000 1.0
END
