TITL C-3577089-586-653 2.6785743021724e-07 125000 -298.592242002834 0 0 50 (C1) n - 1
REM
REM in /home/bkarasulu/work/CARBON/AIRSS/Generating-Clusters/EDIP-Nigel-Params/with-SteepDescent/Higher-Symm/SD-CG/HFTN-CG
REM
REM
REM
REM
REM
REM ./C.cell (12c818d87b63d06a65506943cc24bca4)
REM
REM compiler GCC version 9.2.1 20190827 (Red Hat 9.2.1-1)
REM options -cpp -mtune=generic -march=x86-64 -g -O0 -fpre-include=/usr/include/finclude/math-vector-fortran.h
REM seed 2107841382 804029238 -27207302 1503107599 -1643517198 1013805286 884090999 1776075970 -512719905 1510356728 1411585755 -738930277 422690633 -348407568 -367800589 -1081577659 1522845132 -882111377 -2041643111 -762044740 -1696813832 2008641656 -955320944 151496707 1568154152 597531145 1535039859 -1462955541 1184577854 1264961500 1647890392 -662875568 933852499
REM
CELL 1.54180   50.00000   50.00000   50.00000   90.00000   90.00000   90.00000
LATT -1
SFAC C  
C      1  0.5092190000000  0.5527200000000  0.4608170000000 1.0
C      1  0.4827520000000  0.4812490000000  0.5454280000000 1.0
C      1  0.4388050000000  0.4541480000000  0.4997550000000 1.0
C      1  0.4827540000000  0.4766240000000  0.4361720000000 1.0
C      1  0.5039040000000  0.4949590000000  0.4504050000000 1.0
C      1  0.5614410000000  0.4680790000000  0.5273330000000 1.0
C      1  0.4656470000000  0.4981040000000  0.4429560000000 1.0
C      1  0.5301890000000  0.4801850000000  0.5453790000000 1.0
C      1  0.4189520000000  0.5131940000000  0.4764700000000 1.0
C      1  0.4405010000000  0.4804550000000  0.5088700000000 1.0
C      1  0.5293890000000  0.5390480000000  0.4459720000000 1.0
C      1  0.5487930000000  0.5378550000000  0.5459060000000 1.0
C      1  0.4854480000000  0.4513350000000  0.4799780000000 1.0
C      1  0.5197850000000  0.4528950000000  0.5511620000000 1.0
C      1  0.4901410000000  0.5142020000000  0.4870370000000 1.0
C      1  0.4906470000000  0.5379510000000  0.5041320000000 1.0
C      1  0.5645050000000  0.5083190000000  0.4605830000000 1.0
C      1  0.4641070000000  0.4451640000000  0.4963970000000 1.0
C      1  0.5067640000000  0.4961720000000  0.5317450000000 1.0
C      1  0.5415570000000  0.5125000000000  0.5031100000000 1.0
C      1  0.4295730000000  0.5245230000000  0.5234120000000 1.0
C      1  0.5197950000000  0.4711850000000  0.4597900000000 1.0
C      1  0.4802570000000  0.4957070000000  0.5709630000000 1.0
C      1  0.5103100000000  0.4952120000000  0.5007470000000 1.0
C      1  0.5526560000000  0.5356830000000  0.4638890000000 1.0
C      1  0.5433730000000  0.5387100000000  0.4905690000000 1.0
C      1  0.4793170000000  0.4542170000000  0.4527810000000 1.0
C      1  0.5499480000000  0.4950800000000  0.4379610000000 1.0
C      1  0.4228480000000  0.5035250000000  0.5030910000000 1.0
C      1  0.5623220000000  0.4678720000000  0.4985350000000 1.0
C      1  0.4522850000000  0.5133490000000  0.5379530000000 1.0
C      1  0.5447710000000  0.4683290000000  0.4466420000000 1.0
C      1  0.5304250000000  0.4489180000000  0.5028200000000 1.0
C      1  0.5111590000000  0.4657430000000  0.4876960000000 1.0
C      1  0.5197610000000  0.4375000000000  0.5270420000000 1.0
C      1  0.4912270000000  0.4528490000000  0.5484280000000 1.0
C      1  0.5664570000000  0.4925570000000  0.5410210000000 1.0
C      1  0.5241120000000  0.5114410000000  0.4342070000000 1.0
C      1  0.5234200000000  0.5469930000000  0.5417110000000 1.0
C      1  0.5600270000000  0.4952840000000  0.4878510000000 1.0
C      1  0.5021450000000  0.5299020000000  0.5317990000000 1.0
C      1  0.4875390000000  0.5399880000000  0.5551110000000 1.0
C      1  0.4425660000000  0.5286210000000  0.4722070000000 1.0
C      1  0.4555030000000  0.4856290000000  0.5326760000000 1.0
C      1  0.4667390000000  0.5118890000000  0.4679970000000 1.0
C      1  0.5010240000000  0.5573220000000  0.4865450000000 1.0
C      1  0.4439620000000  0.5501990000000  0.4904210000000 1.0
C      1  0.4681260000000  0.5201400000000  0.5617450000000 1.0
C      1  0.5526640000000  0.5151620000000  0.5306440000000 1.0
C      1  0.4303890000000  0.5513100000000  0.5141410000000 1.0
END
