TITL C-3577078-809-48 1.69679290108443e-06 125000 -968.894109833239 0 0 156 (C1) n - 1
REM
REM in /home/bkarasulu/work/CARBON/AIRSS/Generating-Clusters/EDIP-Nigel-Params/with-SteepDescent/Higher-Symm/SD-CG/HFTN-CG
REM
REM
REM
REM
REM
REM ./C.cell (12c818d87b63d06a65506943cc24bca4)
REM
REM compiler GCC version 9.2.1 20190827 (Red Hat 9.2.1-1)
REM options -cpp -mtune=generic -march=x86-64 -g -O0 -fpre-include=/usr/include/finclude/math-vector-fortran.h
REM seed 1446869223 -1457895391 -18074026 -1240611634 -850299342 982989948 2145978509 886296554 903236981 766568282 1138645176 -1684202148 231911930 -1355404088 -820526526 723874702 -209620213 323136333 86671627 1307963743 -1259964281 -1908268209 1557453104 530433672 304907288 889972346 -2096761740 -735765868 1440617465 -1097716350 -214322675 376490867 517021482
REM
CELL 1.54180   50.00000   50.00000   50.00000   90.00000   90.00000   90.00000
LATT -1
SFAC C  
C      1  0.4432680000000  0.4094040000000  0.4903670000000 1.0
C      1  0.5883780000000  0.4439350000000  0.5109420000000 1.0
C      1  0.5556220000000  0.5896470000000  0.4896440000000 1.0
C      1  0.4113690000000  0.5557750000000  0.5095870000000 1.0
C      1  0.4025010000000  0.5309730000000  0.5250800000000 1.0
C      1  0.4686370000000  0.4034880000000  0.4731310000000 1.0
C      1  0.5962480000000  0.4688030000000  0.5255890000000 1.0
C      1  0.5305650000000  0.5970460000000  0.4742110000000 1.0
C      1  0.4149120000000  0.5195740000000  0.4396330000000 1.0
C      1  0.4790790000000  0.4177460000000  0.5593680000000 1.0
C      1  0.5837210000000  0.4808980000000  0.4403840000000 1.0
C      1  0.5200950000000  0.5840020000000  0.5600490000000 1.0
C      1  0.5467760000000  0.4848730000000  0.3951830000000 1.0
C      1  0.5162200000000  0.5448980000000  0.6050000000000 1.0
C      1  0.4525930000000  0.5147220000000  0.3951770000000 1.0
C      1  0.4837680000000  0.4520720000000  0.6046260000000 1.0
C      1  0.4477450000000  0.4905310000000  0.4078940000000 1.0
C      1  0.5081810000000  0.4452730000000  0.5934960000000 1.0
C      1  0.5516450000000  0.5093220000000  0.4072940000000 1.0
C      1  0.4918100000000  0.5520620000000  0.5935550000000 1.0
C      1  0.5158610000000  0.4963230000000  0.6069160000000 1.0
C      1  0.5007660000000  0.5148320000000  0.3912440000000 1.0
C      1  0.4855820000000  0.5000720000000  0.6073840000000 1.0
C      1  0.4984750000000  0.4843910000000  0.3925830000000 1.0
C      1  0.4466270000000  0.5259340000000  0.5227610000000 1.0
C      1  0.4749630000000  0.4472700000000  0.4782700000000 1.0
C      1  0.5520810000000  0.4755630000000  0.5205680000000 1.0
C      1  0.5263510000000  0.5514810000000  0.4758170000000 1.0
C      1  0.4734070000000  0.5266220000000  0.5955090000000 1.0
C      1  0.4729790000000  0.4723130000000  0.4055630000000 1.0
C      1  0.5275590000000  0.4690470000000  0.5968980000000 1.0
C      1  0.5267140000000  0.5273990000000  0.4038440000000 1.0
C      1  0.4346190000000  0.4316790000000  0.4500980000000 1.0
C      1  0.5666990000000  0.4341610000000  0.5509650000000 1.0
C      1  0.5666350000000  0.5691780000000  0.4485780000000 1.0
C      1  0.4318520000000  0.5659840000000  0.5507390000000 1.0
C      1  0.4714430000000  0.5855790000000  0.5555710000000 1.0
C      1  0.4147040000000  0.4710770000000  0.4448020000000 1.0
C      1  0.5272150000000  0.4145190000000  0.5557220000000 1.0
C      1  0.5844250000000  0.5287380000000  0.4451870000000 1.0
C      1  0.4558750000000  0.5788960000000  0.4567430000000 1.0
C      1  0.4218380000000  0.4554870000000  0.5426160000000 1.0
C      1  0.5449020000000  0.4217810000000  0.4568410000000 1.0
C      1  0.5778780000000  0.5429280000000  0.5432900000000 1.0
C      1  0.4167410000000  0.4381810000000  0.5191700000000 1.0
C      1  0.5622240000000  0.4168870000000  0.4800760000000 1.0
C      1  0.5822970000000  0.5613160000000  0.5201670000000 1.0
C      1  0.4383130000000  0.5839510000000  0.4803160000000 1.0
C      1  0.5234520000000  0.4795580000000  0.5223950000000 1.0
C      1  0.5258730000000  0.5216670000000  0.4725260000000 1.0
C      1  0.4766680000000  0.5288660000000  0.5270090000000 1.0
C      1  0.4714490000000  0.4776990000000  0.4750580000000 1.0
C      1  0.5674600000000  0.5065420000000  0.4341100000000 1.0
C      1  0.4941790000000  0.5689710000000  0.5663510000000 1.0
C      1  0.4312540000000  0.4937230000000  0.4343010000000 1.0
C      1  0.5048220000000  0.4252500000000  0.5710830000000 1.0
C      1  0.4991260000000  0.4868740000000  0.4802810000000 1.0
C      1  0.5151040000000  0.5067590000000  0.5166700000000 1.0
C      1  0.4978190000000  0.5151230000000  0.4778650000000 1.0
C      1  0.4860050000000  0.5033240000000  0.5188180000000 1.0
C      1  0.4315650000000  0.4935630000000  0.5682780000000 1.0
C      1  0.5063810000000  0.4309200000000  0.4317470000000 1.0
C      1  0.5697030000000  0.5041290000000  0.5694550000000 1.0
C      1  0.4940230000000  0.5689480000000  0.4307460000000 1.0
C      1  0.4898380000000  0.5322600000000  0.5544750000000 1.0
C      1  0.4677910000000  0.4893210000000  0.4471840000000 1.0
C      1  0.5084380000000  0.4718020000000  0.5461270000000 1.0
C      1  0.5305030000000  0.5089240000000  0.4461220000000 1.0
C      1  0.4490710000000  0.4504590000000  0.5561830000000 1.0
C      1  0.5490480000000  0.4494920000000  0.4439150000000 1.0
C      1  0.5602340000000  0.5498770000000  0.5662790000000 1.0
C      1  0.4510570000000  0.5512310000000  0.4433490000000 1.0
C      1  0.5883040000000  0.5535720000000  0.4913140000000 1.0
C      1  0.4489310000000  0.5872420000000  0.5088960000000 1.0
C      1  0.4144210000000  0.4494320000000  0.4912420000000 1.0
C      1  0.5498170000000  0.4133350000000  0.5084620000000 1.0
C      1  0.5441210000000  0.5725410000000  0.5688920000000 1.0
C      1  0.4256470000000  0.5441600000000  0.4310720000000 1.0
C      1  0.4541570000000  0.4253110000000  0.5700080000000 1.0
C      1  0.5742490000000  0.4561540000000  0.4310840000000 1.0
C      1  0.5141460000000  0.4199710000000  0.4594810000000 1.0
C      1  0.5808250000000  0.5127410000000  0.5414110000000 1.0
C      1  0.4866560000000  0.5804210000000  0.4586680000000 1.0
C      1  0.4208740000000  0.4859470000000  0.5403280000000 1.0
C      1  0.5195030000000  0.5862180000000  0.5300820000000 1.0
C      1  0.4123990000000  0.5198940000000  0.4698890000000 1.0
C      1  0.4790480000000  0.4107700000000  0.5316160000000 1.0
C      1  0.5857890000000  0.4808540000000  0.4705900000000 1.0
C      1  0.5821810000000  0.5529780000000  0.4322610000000 1.0
C      1  0.4470250000000  0.5814900000000  0.5679860000000 1.0
C      1  0.4192810000000  0.4466610000000  0.4325570000000 1.0
C      1  0.5518270000000  0.4180400000000  0.5679700000000 1.0
C      1  0.4793070000000  0.4409440000000  0.4296340000000 1.0
C      1  0.5541550000000  0.4795320000000  0.5701120000000 1.0
C      1  0.5210840000000  0.5584420000000  0.4277730000000 1.0
C      1  0.4416090000000  0.5207590000000  0.5713370000000 1.0
C      1  0.5763250000000  0.5751820000000  0.4750570000000 1.0
C      1  0.4267360000000  0.5756910000000  0.5243020000000 1.0
C      1  0.4239720000000  0.4263240000000  0.4760520000000 1.0
C      1  0.5727270000000  0.4238390000000  0.5251230000000 1.0
C      1  0.4640410000000  0.4301850000000  0.4541320000000 1.0
C      1  0.5651940000000  0.4635360000000  0.5465770000000 1.0
C      1  0.5370750000000  0.5685520000000  0.4520160000000 1.0
C      1  0.4303320000000  0.5365340000000  0.5475120000000 1.0
C      1  0.4380310000000  0.4179200000000  0.5175010000000 1.0
C      1  0.5809170000000  0.4391330000000  0.4835850000000 1.0
C      1  0.5604060000000  0.5800710000000  0.5164070000000 1.0
C      1  0.4193050000000  0.5615050000000  0.4824780000000 1.0
C      1  0.5421950000000  0.4693210000000  0.4675980000000 1.0
C      1  0.5276180000000  0.5385770000000  0.5243640000000 1.0
C      1  0.4579510000000  0.5312590000000  0.4667070000000 1.0
C      1  0.4699720000000  0.4543510000000  0.5325910000000 1.0
C      1  0.4738080000000  0.5489520000000  0.4233330000000 1.0
C      1  0.4523190000000  0.4739250000000  0.5748240000000 1.0
C      1  0.5258140000000  0.4517020000000  0.4245210000000 1.0
C      1  0.5529680000000  0.5253380000000  0.5800570000000 1.0
C      1  0.5117230000000  0.5278620000000  0.4313020000000 1.0
C      1  0.4717260000000  0.5126890000000  0.5679730000000 1.0
C      1  0.4870240000000  0.4711510000000  0.4327930000000 1.0
C      1  0.5241500000000  0.4905500000000  0.5648880000000 1.0
C      1  0.4828290000000  0.5597470000000  0.5044000000000 1.0
C      1  0.4428430000000  0.4827630000000  0.4944310000000 1.0
C      1  0.5213500000000  0.4399590000000  0.5037240000000 1.0
C      1  0.5619380000000  0.5185300000000  0.4949700000000 1.0
C      1  0.6028560000000  0.4953700000000  0.5155410000000 1.0
C      1  0.5037710000000  0.6022730000000  0.4851310000000 1.0
C      1  0.3991740000000  0.5035390000000  0.5148740000000 1.0
C      1  0.4953340000000  0.3987130000000  0.4852700000000 1.0
C      1  0.3976070000000  0.4986490000000  0.4853430000000 1.0
C      1  0.4996840000000  0.4005170000000  0.5145460000000 1.0
C      1  0.6020130000000  0.5007720000000  0.4861250000000 1.0
C      1  0.4990510000000  0.6025170000000  0.5147690000000 1.0
C      1  0.4798650000000  0.4848650000000  0.5417700000000 1.0
C      1  0.5163250000000  0.4815220000000  0.4556990000000 1.0
C      1  0.5190170000000  0.5206660000000  0.5525920000000 1.0
C      1  0.4815850000000  0.5172980000000  0.4530000000000 1.0
C      1  0.5485010000000  0.4554850000000  0.4957610000000 1.0
C      1  0.5455560000000  0.5479900000000  0.5008210000000 1.0
C      1  0.4518920000000  0.5455610000000  0.4952410000000 1.0
C      1  0.4560240000000  0.4491600000000  0.5050180000000 1.0
C      1  0.4424400000000  0.4958290000000  0.5212510000000 1.0
C      1  0.5049820000000  0.4412360000000  0.4791380000000 1.0
C      1  0.5602330000000  0.5045300000000  0.5208550000000 1.0
C      1  0.4966750000000  0.5593260000000  0.4781940000000 1.0
C      1  0.5030590000000  0.4412610000000  0.5307450000000 1.0
C      1  0.5596090000000  0.4934670000000  0.4751130000000 1.0
C      1  0.5072070000000  0.5601790000000  0.5250430000000 1.0
C      1  0.4393650000000  0.5087810000000  0.4746570000000 1.0
C      1  0.5261850000000  0.4040560000000  0.5272230000000 1.0
C      1  0.5938450000000  0.5281780000000  0.4745260000000 1.0
C      1  0.4721160000000  0.5949170000000  0.5265180000000 1.0
C      1  0.4060260000000  0.4720530000000  0.4738100000000 1.0
C      1  0.4757850000000  0.5291640000000  0.4006990000000 1.0
C      1  0.4699630000000  0.4755250000000  0.5989810000000 1.0
C      1  0.5237430000000  0.4704090000000  0.4012240000000 1.0
C      1  0.5308450000000  0.5217150000000  0.5998610000000 1.0
END
