TITL C-3578201-9217-461 -3.25910824706911e-06 125000 -1217.56834773372 0 0 194 (C1) n - 1
REM
REM in /home/bkarasulu/work/CARBON/AIRSS/Generating-Clusters/EDIP-Nigel-Params/with-SteepDescent/Higher-Symm/SD-CG/HFTN-CG
REM
REM
REM
REM
REM
REM ./C.cell (12c818d87b63d06a65506943cc24bca4)
REM
REM compiler GCC version 9.2.1 20190827 (Red Hat 9.2.1-1)
REM options -cpp -mtune=generic -march=x86-64 -g -O0 -fpre-include=/usr/include/finclude/math-vector-fortran.h
REM seed -405901489 -397804886 567518932 -1263206782 974758012 1566212302 -1920804259 2097949384 -1997966977 675030254 -1585693857 -1860117099 -600134023 338837123 1232730229 1605112004 1608964437 -51718769 -233346216 -1572541438 -1468796590 -1405295959 1930850352 610839275 844859912 1124287910 -200807612 2137100134 632551269 -1639613320 -1243752992 427238024 -728806783
REM
CELL 1.54180   50.00000   50.00000   50.00000   90.00000   90.00000   90.00000
LATT -1
SFAC C  
C      1  0.5556000000000  0.5431560000000  0.6065340000000 1.0
C      1  0.5511550000000  0.4574930000000  0.5973110000000 1.0
C      1  0.4568200000000  0.5933780000000  0.5423560000000 1.0
C      1  0.4537710000000  0.4018010000000  0.5486280000000 1.0
C      1  0.4246390000000  0.4158510000000  0.4969150000000 1.0
C      1  0.4459360000000  0.5892710000000  0.5123540000000 1.0
C      1  0.4944810000000  0.3953780000000  0.4907180000000 1.0
C      1  0.5037360000000  0.6195560000000  0.4837410000000 1.0
C      1  0.6007490000000  0.5546730000000  0.5032000000000 1.0
C      1  0.6099330000000  0.4488440000000  0.4909930000000 1.0
C      1  0.4931650000000  0.4408210000000  0.4383030000000 1.0
C      1  0.5006710000000  0.5638270000000  0.4339180000000 1.0
C      1  0.4867540000000  0.5739300000000  0.5164450000000 1.0
C      1  0.4774490000000  0.4304110000000  0.5242670000000 1.0
C      1  0.4380030000000  0.4689870000000  0.5396040000000 1.0
C      1  0.4079820000000  0.5401630000000  0.5636140000000 1.0
C      1  0.4783880000000  0.5420430000000  0.5272080000000 1.0
C      1  0.4649990000000  0.4504510000000  0.5469230000000 1.0
C      1  0.5798420000000  0.5280390000000  0.5940730000000 1.0
C      1  0.5760820000000  0.4723500000000  0.5872270000000 1.0
C      1  0.5330200000000  0.4750720000000  0.6125750000000 1.0
C      1  0.5334050000000  0.5244790000000  0.6147490000000 1.0
C      1  0.4787790000000  0.5310320000000  0.5582850000000 1.0
C      1  0.4879920000000  0.4631820000000  0.5671090000000 1.0
C      1  0.4355930000000  0.5223960000000  0.4368330000000 1.0
C      1  0.4231230000000  0.4585080000000  0.4317730000000 1.0
C      1  0.4686680000000  0.5551610000000  0.4718910000000 1.0
C      1  0.4602640000000  0.4441330000000  0.4778830000000 1.0
C      1  0.5153790000000  0.5868280000000  0.5216720000000 1.0
C      1  0.5085830000000  0.4275290000000  0.5239520000000 1.0
C      1  0.5357110000000  0.5602970000000  0.4005060000000 1.0
C      1  0.5214490000000  0.4441080000000  0.4040520000000 1.0
C      1  0.5452310000000  0.5630780000000  0.5874000000000 1.0
C      1  0.5361100000000  0.4466260000000  0.5741680000000 1.0
C      1  0.4620840000000  0.4602670000000  0.5047760000000 1.0
C      1  0.4502290000000  0.5387190000000  0.5164220000000 1.0
C      1  0.5511760000000  0.6021280000000  0.5004950000000 1.0
C      1  0.5433990000000  0.4082250000000  0.4935490000000 1.0
C      1  0.5769160000000  0.5753190000000  0.4616140000000 1.0
C      1  0.5710650000000  0.4355480000000  0.4578570000000 1.0
C      1  0.4779100000000  0.6259970000000  0.4936540000000 1.0
C      1  0.4668020000000  0.4006640000000  0.5219140000000 1.0
C      1  0.4728860000000  0.5749470000000  0.5585690000000 1.0
C      1  0.4730020000000  0.4125200000000  0.5684210000000 1.0
C      1  0.5706330000000  0.4479190000000  0.5002250000000 1.0
C      1  0.5708230000000  0.5573950000000  0.5001500000000 1.0
C      1  0.5877720000000  0.5461660000000  0.5714440000000 1.0
C      1  0.5829650000000  0.4576020000000  0.5621950000000 1.0
C      1  0.4326290000000  0.4320050000000  0.4721250000000 1.0
C      1  0.4392960000000  0.5591910000000  0.4717620000000 1.0
C      1  0.5073670000000  0.5343700000000  0.4762920000000 1.0
C      1  0.5068110000000  0.4814830000000  0.4866640000000 1.0
C      1  0.5063740000000  0.5259020000000  0.6008620000000 1.0
C      1  0.5035780000000  0.4710790000000  0.6117770000000 1.0
C      1  0.4948770000000  0.4691980000000  0.5116520000000 1.0
C      1  0.5135430000000  0.5528370000000  0.5021760000000 1.0
C      1  0.6061720000000  0.5347600000000  0.5508210000000 1.0
C      1  0.6031790000000  0.4662660000000  0.5413590000000 1.0
C      1  0.4457630000000  0.3954690000000  0.4995990000000 1.0
C      1  0.4634310000000  0.6019330000000  0.4911910000000 1.0
C      1  0.4222610000000  0.4314300000000  0.5215710000000 1.0
C      1  0.4370380000000  0.5617040000000  0.5023830000000 1.0
C      1  0.5161270000000  0.4057540000000  0.5445380000000 1.0
C      1  0.5172750000000  0.5943460000000  0.5502330000000 1.0
C      1  0.5360680000000  0.5275250000000  0.4677060000000 1.0
C      1  0.5311520000000  0.4735470000000  0.4719540000000 1.0
C      1  0.4526040000000  0.5622930000000  0.5742900000000 1.0
C      1  0.4632350000000  0.4320250000000  0.5874020000000 1.0
C      1  0.4606050000000  0.5930930000000  0.4422830000000 1.0
C      1  0.4602990000000  0.3996810000000  0.4433200000000 1.0
C      1  0.5181840000000  0.4689330000000  0.5555230000000 1.0
C      1  0.5075520000000  0.5262570000000  0.5694740000000 1.0
C      1  0.5147300000000  0.4149820000000  0.4977630000000 1.0
C      1  0.5228080000000  0.6123750000000  0.5061250000000 1.0
C      1  0.4197820000000  0.4601550000000  0.5177220000000 1.0
C      1  0.3852220000000  0.5334250000000  0.5490920000000 1.0
C      1  0.4109570000000  0.5131130000000  0.4749680000000 1.0
C      1  0.3915540000000  0.4692690000000  0.4745090000000 1.0
C      1  0.5335690000000  0.5369280000000  0.5169980000000 1.0
C      1  0.5206430000000  0.4579070000000  0.5255690000000 1.0
C      1  0.4153610000000  0.4552200000000  0.4610640000000 1.0
C      1  0.4230210000000  0.5363510000000  0.4597210000000 1.0
C      1  0.4921640000000  0.4469260000000  0.5935410000000 1.0
C      1  0.4598540000000  0.5401860000000  0.5901900000000 1.0
C      1  0.4209470000000  0.5163730000000  0.5745040000000 1.0
C      1  0.4251320000000  0.4674350000000  0.5818080000000 1.0
C      1  0.5528690000000  0.5296100000000  0.4960490000000 1.0
C      1  0.5473280000000  0.4710690000000  0.5015000000000 1.0
C      1  0.4386690000000  0.5225160000000  0.5970990000000 1.0
C      1  0.4494760000000  0.4766020000000  0.5958370000000 1.0
C      1  0.5020680000000  0.5939680000000  0.4680920000000 1.0
C      1  0.5080790000000  0.3973580000000  0.4552610000000 1.0
C      1  0.5634330000000  0.5614050000000  0.5644410000000 1.0
C      1  0.5601420000000  0.4394720000000  0.5575030000000 1.0
C      1  0.4868780000000  0.4110920000000  0.4414860000000 1.0
C      1  0.4887650000000  0.5920750000000  0.4406490000000 1.0
C      1  0.4263260000000  0.5634260000000  0.5620180000000 1.0
C      1  0.4374440000000  0.4401750000000  0.5725890000000 1.0
C      1  0.5649350000000  0.4431220000000  0.4311990000000 1.0
C      1  0.5738510000000  0.5671490000000  0.4345960000000 1.0
C      1  0.5478340000000  0.5615550000000  0.4257090000000 1.0
C      1  0.5383050000000  0.4510350000000  0.4254140000000 1.0
C      1  0.5433590000000  0.6014230000000  0.5582510000000 1.0
C      1  0.5420890000000  0.3956750000000  0.5466710000000 1.0
C      1  0.5020760000000  0.4077570000000  0.5697870000000 1.0
C      1  0.5003610000000  0.5792770000000  0.5680560000000 1.0
C      1  0.5283830000000  0.5813090000000  0.4645110000000 1.0
C      1  0.5297620000000  0.4163360000000  0.4518690000000 1.0
C      1  0.5280670000000  0.5590820000000  0.4467700000000 1.0
C      1  0.5223930000000  0.4459850000000  0.4493120000000 1.0
C      1  0.6002350000000  0.5695810000000  0.4779220000000 1.0
C      1  0.5964180000000  0.4396650000000  0.4687690000000 1.0
C      1  0.5079420000000  0.5588900000000  0.4053480000000 1.0
C      1  0.4948750000000  0.4433990000000  0.3974320000000 1.0
C      1  0.4599040000000  0.5365920000000  0.4274500000000 1.0
C      1  0.4527770000000  0.4558270000000  0.4279080000000 1.0
C      1  0.6112070000000  0.5513670000000  0.5288110000000 1.0
C      1  0.5969780000000  0.4514820000000  0.5161630000000 1.0
C      1  0.4278130000000  0.5875350000000  0.5462690000000 1.0
C      1  0.4316910000000  0.4213760000000  0.5485270000000 1.0
C      1  0.4821400000000  0.5436600000000  0.4478650000000 1.0
C      1  0.4709920000000  0.4582220000000  0.4521920000000 1.0
C      1  0.5587910000000  0.4168310000000  0.5395420000000 1.0
C      1  0.5620220000000  0.5839220000000  0.5465180000000 1.0
C      1  0.3949560000000  0.4722300000000  0.5046740000000 1.0
C      1  0.4089040000000  0.5174140000000  0.5044470000000 1.0
C      1  0.5155340000000  0.5606360000000  0.5856710000000 1.0
C      1  0.5147050000000  0.4283720000000  0.5865050000000 1.0
C      1  0.4677410000000  0.4043930000000  0.4807090000000 1.0
C      1  0.4814810000000  0.5788030000000  0.4855710000000 1.0
C      1  0.4384970000000  0.5834600000000  0.4554300000000 1.0
C      1  0.4373030000000  0.4135290000000  0.4503830000000 1.0
C      1  0.4687850000000  0.4479720000000  0.4055250000000 1.0
C      1  0.4933420000000  0.5375070000000  0.3953980000000 1.0
C      1  0.5537140000000  0.5889160000000  0.4743060000000 1.0
C      1  0.5539680000000  0.4132680000000  0.4664890000000 1.0
C      1  0.4076280000000  0.4771420000000  0.4142140000000 1.0
C      1  0.4149160000000  0.5158120000000  0.4155750000000 1.0
C      1  0.5587620000000  0.5796560000000  0.5175700000000 1.0
C      1  0.5607080000000  0.4225780000000  0.5113020000000 1.0
C      1  0.3620900000000  0.5084240000000  0.4698310000000 1.0
C      1  0.5381350000000  0.4996370000000  0.4520400000000 1.0
C      1  0.5426010000000  0.5005190000000  0.6033990000000 1.0
C      1  0.3632110000000  0.5082270000000  0.4968230000000 1.0
C      1  0.4760330000000  0.4933210000000  0.3702950000000 1.0
C      1  0.4300790000000  0.4894360000000  0.4719490000000 1.0
C      1  0.4585910000000  0.5034070000000  0.3907580000000 1.0
C      1  0.5828690000000  0.4989590000000  0.4175910000000 1.0
C      1  0.3873190000000  0.4972020000000  0.4610270000000 1.0
C      1  0.5872100000000  0.5014570000000  0.4616490000000 1.0
C      1  0.5724480000000  0.5030810000000  0.5354420000000 1.0
C      1  0.4898770000000  0.5038750000000  0.4309760000000 1.0
C      1  0.4963010000000  0.5093430000000  0.4888530000000 1.0
C      1  0.5394240000000  0.4900820000000  0.3552070000000 1.0
C      1  0.5186080000000  0.5001430000000  0.4279110000000 1.0
C      1  0.4946520000000  0.5150130000000  0.5180210000000 1.0
C      1  0.4737940000000  0.4869810000000  0.5795210000000 1.0
C      1  0.5721070000000  0.4949610000000  0.3926400000000 1.0
C      1  0.5639290000000  0.5002900000000  0.5064050000000 1.0
C      1  0.3797140000000  0.5069350000000  0.5413220000000 1.0
C      1  0.4701380000000  0.5040370000000  0.6274570000000 1.0
C      1  0.5658890000000  0.5016490000000  0.5854210000000 1.0
C      1  0.4296250000000  0.5000510000000  0.3939990000000 1.0
C      1  0.6313690000000  0.4999940000000  0.4727190000000 1.0
C      1  0.5878540000000  0.4984130000000  0.4895240000000 1.0
C      1  0.4502090000000  0.4915320000000  0.4954110000000 1.0
C      1  0.4706010000000  0.5055560000000  0.4788760000000 1.0
C      1  0.5113770000000  0.4903900000000  0.3541760000000 1.0
C      1  0.4895970000000  0.4983320000000  0.6063510000000 1.0
C      1  0.5468230000000  0.4939380000000  0.3821540000000 1.0
C      1  0.5241140000000  0.4984530000000  0.3990910000000 1.0
C      1  0.4835650000000  0.4913510000000  0.5304620000000 1.0
C      1  0.5025550000000  0.4970570000000  0.3794710000000 1.0
C      1  0.4754310000000  0.5197820000000  0.4095250000000 1.0
C      1  0.4723130000000  0.4911810000000  0.4524270000000 1.0
C      1  0.4458100000000  0.4996670000000  0.6138370000000 1.0
C      1  0.5668200000000  0.4981270000000  0.4422970000000 1.0
C      1  0.6129650000000  0.5014620000000  0.4501400000000 1.0
C      1  0.4434830000000  0.4951780000000  0.4457790000000 1.0
C      1  0.4678590000000  0.5026370000000  0.5538650000000 1.0
C      1  0.6576370000000  0.5027510000000  0.4715240000000 1.0
C      1  0.4388920000000  0.4990000000000  0.5446550000000 1.0
C      1  0.5545350000000  0.5054150000000  0.5580940000000 1.0
C      1  0.3860200000000  0.5007480000000  0.5127470000000 1.0
C      1  0.6213100000000  0.4960540000000  0.5244460000000 1.0
C      1  0.4074650000000  0.4899640000000  0.5744360000000 1.0
C      1  0.3838790000000  0.4868170000000  0.5600530000000 1.0
C      1  0.3915440000000  0.4982410000000  0.4299540000000 1.0
C      1  0.6109180000000  0.4999780000000  0.4219360000000 1.0
C      1  0.5218460000000  0.5134790000000  0.5273310000000 1.0
C      1  0.6152840000000  0.5005350000000  0.4970170000000 1.0
C      1  0.6011950000000  0.5050220000000  0.5443220000000 1.0
C      1  0.5254580000000  0.5030570000000  0.5545890000000 1.0
C      1  0.4364900000000  0.5119590000000  0.5161240000000 1.0
END
