TITL C-3577083-591-5 -1.28487056859935e-06 125000 -1130.50415719812 0 0 180 (C1) n - 1
REM
REM in /home/bkarasulu/work/CARBON/AIRSS/Generating-Clusters/EDIP-Nigel-Params/with-SteepDescent/Higher-Symm/SD-CG/HFTN-CG
REM
REM
REM
REM
REM
REM ./C.cell (12c818d87b63d06a65506943cc24bca4)
REM
REM compiler GCC version 9.2.1 20190827 (Red Hat 9.2.1-1)
REM options -cpp -mtune=generic -march=x86-64 -g -O0 -fpre-include=/usr/include/finclude/math-vector-fortran.h
REM seed -610240225 -1273576253 -1714791736 702463045 -2129693143 -1393674820 523897367 -1541264974 556560640 1649014573 -2103103584 101729498 -2037792125 -431129283 663455478 -309819966 286752522 1159894779 1876058792 -1455145665 418552368 1880595850 -1624292986 196747959 -1777784925 -572757515 -952465703 -735637897 -232117496 1186055149 1271566393 -504671750 -628342669
REM
CELL 1.54180   50.00000   50.00000   50.00000   90.00000   90.00000   90.00000
LATT -1
SFAC C  
C      1  0.4375100000000  0.4295450000000  0.5426530000000 1.0
C      1  0.4429330000000  0.5702890000000  0.4546230000000 1.0
C      1  0.5579780000000  0.4290830000000  0.5444120000000 1.0
C      1  0.5619710000000  0.5701740000000  0.4558880000000 1.0
C      1  0.5272660000000  0.4567740000000  0.4218230000000 1.0
C      1  0.5296270000000  0.5422660000000  0.5796510000000 1.0
C      1  0.4703260000000  0.4569980000000  0.4207950000000 1.0
C      1  0.4723310000000  0.5428090000000  0.5787640000000 1.0
C      1  0.5678130000000  0.4852590000000  0.4308670000000 1.0
C      1  0.5725040000000  0.5146690000000  0.5730330000000 1.0
C      1  0.4273710000000  0.4851880000000  0.4269580000000 1.0
C      1  0.4316570000000  0.5142070000000  0.5708430000000 1.0
C      1  0.5520230000000  0.5218190000000  0.4783990000000 1.0
C      1  0.5526620000000  0.4757040000000  0.5210400000000 1.0
C      1  0.4475440000000  0.5246660000000  0.4799200000000 1.0
C      1  0.4470570000000  0.4767050000000  0.5196060000000 1.0
C      1  0.5572350000000  0.4164510000000  0.4696100000000 1.0
C      1  0.5574770000000  0.5866520000000  0.5286650000000 1.0
C      1  0.4423450000000  0.4139110000000  0.4720050000000 1.0
C      1  0.4432190000000  0.5884950000000  0.5290510000000 1.0
C      1  0.4852420000000  0.5158670000000  0.5193070000000 1.0
C      1  0.4837110000000  0.4848530000000  0.4851940000000 1.0
C      1  0.5158470000000  0.5151550000000  0.5156580000000 1.0
C      1  0.5147470000000  0.4831410000000  0.4821280000000 1.0
C      1  0.5220240000000  0.5127040000000  0.4842240000000 1.0
C      1  0.5258920000000  0.4861260000000  0.5246130000000 1.0
C      1  0.4742100000000  0.5140670000000  0.4765160000000 1.0
C      1  0.4756870000000  0.4864780000000  0.5175070000000 1.0
C      1  0.4281820000000  0.4361800000000  0.4286810000000 1.0
C      1  0.4289370000000  0.5640330000000  0.5721840000000 1.0
C      1  0.5703780000000  0.4344640000000  0.4279580000000 1.0
C      1  0.5720820000000  0.5631280000000  0.5716410000000 1.0
C      1  0.4428480000000  0.5407170000000  0.5822940000000 1.0
C      1  0.4409790000000  0.4588530000000  0.4165120000000 1.0
C      1  0.5589940000000  0.5405730000000  0.5837110000000 1.0
C      1  0.5562750000000  0.4585920000000  0.4215790000000 1.0
C      1  0.4409680000000  0.5465150000000  0.5400570000000 1.0
C      1  0.4424440000000  0.4559060000000  0.4591490000000 1.0
C      1  0.5569450000000  0.5444010000000  0.5409980000000 1.0
C      1  0.5613670000000  0.4473850000000  0.4634400000000 1.0
C      1  0.4842770000000  0.5937900000000  0.4558820000000 1.0
C      1  0.4865020000000  0.4071020000000  0.5431050000000 1.0
C      1  0.5133240000000  0.5917920000000  0.4545840000000 1.0
C      1  0.5154590000000  0.4043110000000  0.5415720000000 1.0
C      1  0.5905480000000  0.4425110000000  0.5115440000000 1.0
C      1  0.5904570000000  0.5588170000000  0.4877400000000 1.0
C      1  0.4082940000000  0.4409480000000  0.5116070000000 1.0
C      1  0.4103170000000  0.5577760000000  0.4889000000000 1.0
C      1  0.5159540000000  0.5654390000000  0.5167750000000 1.0
C      1  0.5158060000000  0.4388880000000  0.4820410000000 1.0
C      1  0.4845610000000  0.5652640000000  0.5191450000000 1.0
C      1  0.4843950000000  0.4364290000000  0.4830280000000 1.0
C      1  0.5295730000000  0.4081000000000  0.5171520000000 1.0
C      1  0.5273530000000  0.5942320000000  0.4804690000000 1.0
C      1  0.4719080000000  0.4055790000000  0.5172550000000 1.0
C      1  0.4707630000000  0.5927250000000  0.4808780000000 1.0
C      1  0.5539340000000  0.5110400000000  0.5478960000000 1.0
C      1  0.5477220000000  0.4938060000000  0.4515010000000 1.0
C      1  0.4513560000000  0.5104750000000  0.5469880000000 1.0
C      1  0.4459770000000  0.4900650000000  0.4521450000000 1.0
C      1  0.4716130000000  0.5656950000000  0.4919210000000 1.0
C      1  0.4738570000000  0.4343630000000  0.5105910000000 1.0
C      1  0.5255680000000  0.5661020000000  0.4885440000000 1.0
C      1  0.5280700000000  0.4361980000000  0.5096250000000 1.0
C      1  0.4849770000000  0.3890640000000  0.4534810000000 1.0
C      1  0.4860090000000  0.6120560000000  0.5507600000000 1.0
C      1  0.5145290000000  0.3892880000000  0.4540290000000 1.0
C      1  0.5156010000000  0.6116430000000  0.5504290000000 1.0
C      1  0.4894470000000  0.5377940000000  0.4001970000000 1.0
C      1  0.4812610000000  0.4627210000000  0.5928290000000 1.0
C      1  0.5191860000000  0.5369120000000  0.4046420000000 1.0
C      1  0.5107330000000  0.4610110000000  0.5977690000000 1.0
C      1  0.5648760000000  0.5107270000000  0.4131840000000 1.0
C      1  0.5690930000000  0.4881780000000  0.5877120000000 1.0
C      1  0.4306900000000  0.5114300000000  0.4118000000000 1.0
C      1  0.4351110000000  0.4879830000000  0.5868860000000 1.0
C      1  0.4698560000000  0.5042000000000  0.4315570000000 1.0
C      1  0.4721050000000  0.4955360000000  0.5649590000000 1.0
C      1  0.5265250000000  0.5052430000000  0.4339790000000 1.0
C      1  0.5297990000000  0.4953080000000  0.5681450000000 1.0
C      1  0.3964740000000  0.4447470000000  0.5375190000000 1.0
C      1  0.3971330000000  0.5543660000000  0.4634630000000 1.0
C      1  0.6038790000000  0.4457820000000  0.5368930000000 1.0
C      1  0.6027620000000  0.5546660000000  0.4621440000000 1.0
C      1  0.5735240000000  0.4964260000000  0.5214950000000 1.0
C      1  0.5777830000000  0.5114670000000  0.4927240000000 1.0
C      1  0.4219180000000  0.4884880000000  0.5080060000000 1.0
C      1  0.4263660000000  0.5040450000000  0.4792220000000 1.0
C      1  0.5575210000000  0.4011100000000  0.5179360000000 1.0
C      1  0.5561430000000  0.5991530000000  0.4803570000000 1.0
C      1  0.4430870000000  0.4002410000000  0.5186960000000 1.0
C      1  0.4427570000000  0.5992740000000  0.4799370000000 1.0
C      1  0.4016430000000  0.4158280000000  0.4989100000000 1.0
C      1  0.4030780000000  0.5836120000000  0.5007390000000 1.0
C      1  0.5975780000000  0.4171220000000  0.4992450000000 1.0
C      1  0.5972150000000  0.5839980000000  0.5002730000000 1.0
C      1  0.4435390000000  0.5546280000000  0.4810900000000 1.0
C      1  0.4464220000000  0.4461590000000  0.5182590000000 1.0
C      1  0.5523780000000  0.5535990000000  0.4797190000000 1.0
C      1  0.5566730000000  0.4459150000000  0.5188010000000 1.0
C      1  0.5296810000000  0.5583540000000  0.4216560000000 1.0
C      1  0.5276080000000  0.4432550000000  0.5804670000000 1.0
C      1  0.4730550000000  0.5563890000000  0.4168860000000 1.0
C      1  0.4706460000000  0.4411200000000  0.5764060000000 1.0
C      1  0.4030580000000  0.4680420000000  0.5518250000000 1.0
C      1  0.4014630000000  0.5323900000000  0.4467630000000 1.0
C      1  0.5990110000000  0.4678060000000  0.5533800000000 1.0
C      1  0.5959570000000  0.5310530000000  0.4485320000000 1.0
C      1  0.6004300000000  0.4936710000000  0.5381920000000 1.0
C      1  0.5982280000000  0.5066250000000  0.4656220000000 1.0
C      1  0.4012840000000  0.4928260000000  0.5350610000000 1.0
C      1  0.3997350000000  0.5067310000000  0.4620860000000 1.0
C      1  0.5953960000000  0.5339710000000  0.5053600000000 1.0
C      1  0.5980840000000  0.4646390000000  0.4933990000000 1.0
C      1  0.4027210000000  0.5352860000000  0.5071040000000 1.0
C      1  0.4039640000000  0.4664210000000  0.4945860000000 1.0
C      1  0.4279400000000  0.5954930000000  0.5045750000000 1.0
C      1  0.4268820000000  0.4043930000000  0.4948360000000 1.0
C      1  0.5719900000000  0.5953000000000  0.5046160000000 1.0
C      1  0.5729110000000  0.4056570000000  0.4938720000000 1.0
C      1  0.4731880000000  0.5926170000000  0.5290870000000 1.0
C      1  0.4718810000000  0.4093650000000  0.4737320000000 1.0
C      1  0.5279740000000  0.5916710000000  0.5284280000000 1.0
C      1  0.5277360000000  0.4114340000000  0.4732220000000 1.0
C      1  0.3757460000000  0.4782640000000  0.4962210000000 1.0
C      1  0.3769100000000  0.5215030000000  0.5041640000000 1.0
C      1  0.6235520000000  0.4789800000000  0.4962490000000 1.0
C      1  0.6237810000000  0.5223450000000  0.5036170000000 1.0
C      1  0.5287070000000  0.5406180000000  0.5271490000000 1.0
C      1  0.5345430000000  0.4674520000000  0.4638310000000 1.0
C      1  0.4736040000000  0.5396900000000  0.5348060000000 1.0
C      1  0.4709210000000  0.4602840000000  0.4725650000000 1.0
C      1  0.5306110000000  0.5907310000000  0.5676810000000 1.0
C      1  0.5289430000000  0.4074580000000  0.4338050000000 1.0
C      1  0.4709400000000  0.5915150000000  0.5683400000000 1.0
C      1  0.4699240000000  0.4088200000000  0.4344700000000 1.0
C      1  0.5721890000000  0.5322490000000  0.4314050000000 1.0
C      1  0.5750240000000  0.4662350000000  0.5699830000000 1.0
C      1  0.4250860000000  0.5335110000000  0.4295370000000 1.0
C      1  0.4270610000000  0.4665710000000  0.5688440000000 1.0
C      1  0.5152990000000  0.5672270000000  0.5767050000000 1.0
C      1  0.5137450000000  0.4317980000000  0.4253800000000 1.0
C      1  0.4864060000000  0.5676940000000  0.5765090000000 1.0
C      1  0.4848920000000  0.4320910000000  0.4243360000000 1.0
C      1  0.4029980000000  0.4818560000000  0.4454530000000 1.0
C      1  0.4078250000000  0.5163990000000  0.5520540000000 1.0
C      1  0.5911680000000  0.4827840000000  0.4493040000000 1.0
C      1  0.5969840000000  0.5186020000000  0.5547200000000 1.0
C      1  0.5591630000000  0.4105480000000  0.4398440000000 1.0
C      1  0.5591690000000  0.5849380000000  0.5583980000000 1.0
C      1  0.4411980000000  0.4148340000000  0.4426410000000 1.0
C      1  0.4420080000000  0.5861390000000  0.5591100000000 1.0
C      1  0.6251980000000  0.5042280000000  0.4781740000000 1.0
C      1  0.6252550000000  0.4966080000000  0.5213460000000 1.0
C      1  0.3748070000000  0.5041990000000  0.4788540000000 1.0
C      1  0.3746000000000  0.4959150000000  0.5219200000000 1.0
C      1  0.5136080000000  0.5238760000000  0.4547020000000 1.0
C      1  0.5145880000000  0.4743780000000  0.5486460000000 1.0
C      1  0.4843160000000  0.5246260000000  0.4513350000000 1.0
C      1  0.4850760000000  0.4757890000000  0.5454180000000 1.0
C      1  0.5146030000000  0.5181540000000  0.5773620000000 1.0
C      1  0.5123160000000  0.4804220000000  0.4278500000000 1.0
C      1  0.4872350000000  0.5194850000000  0.5717140000000 1.0
C      1  0.4850300000000  0.4812760000000  0.4224710000000 1.0
C      1  0.4866730000000  0.4361660000000  0.5519950000000 1.0
C      1  0.4829690000000  0.5565380000000  0.4452410000000 1.0
C      1  0.5176050000000  0.4419130000000  0.5521160000000 1.0
C      1  0.5140150000000  0.5625090000000  0.4464050000000 1.0
C      1  0.4612360000000  0.4830540000000  0.5997170000000 1.0
C      1  0.4587430000000  0.5159730000000  0.4062820000000 1.0
C      1  0.5411790000000  0.4834390000000  0.5931940000000 1.0
C      1  0.5392010000000  0.5159270000000  0.3992840000000 1.0
C      1  0.4425220000000  0.5574050000000  0.4281010000000 1.0
C      1  0.4415530000000  0.4413320000000  0.5690620000000 1.0
C      1  0.5586460000000  0.5578820000000  0.4295670000000 1.0
C      1  0.5575550000000  0.4422240000000  0.5708100000000 1.0
C      1  0.5872790000000  0.5385010000000  0.5341410000000 1.0
C      1  0.5880110000000  0.4605130000000  0.4670820000000 1.0
C      1  0.4126770000000  0.5379660000000  0.5337850000000 1.0
C      1  0.4124160000000  0.4620900000000  0.4659760000000 1.0
END
