TITL C-3578199-7832-782 -1.93165080724354e-06 125000 -763.168806209543 0 0 124 (C1) n - 1
REM
REM in /home/bkarasulu/work/CARBON/AIRSS/Generating-Clusters/EDIP-Nigel-Params/with-SteepDescent/Higher-Symm/SD-CG/HFTN-CG
REM
REM
REM
REM
REM
REM ./C.cell (12c818d87b63d06a65506943cc24bca4)
REM
REM compiler GCC version 9.2.1 20190827 (Red Hat 9.2.1-1)
REM options -cpp -mtune=generic -march=x86-64 -g -O0 -fpre-include=/usr/include/finclude/math-vector-fortran.h
REM seed 2137527730 1289112120 -706261022 -251881670 -558822120 1829037282 2141955765 1728532743 1506155924 1750299835 -571491001 -133570439 1231629185 540471642 -1625041182 145700011 -853392186 -237262809 -650052715 459211938 -1003601637 -1547575837 1676689483 -1448073993 1682582121 -823424424 -933035072 -828852403 1466860762 -1173330292 -1680193625 522019319 -1898435925
REM
CELL 1.54180   50.00000   50.00000   50.00000   90.00000   90.00000   90.00000
LATT -1
SFAC C  
C      1  0.5039520000000  0.4387890000000  0.5069670000000 1.0
C      1  0.4944400000000  0.5419480000000  0.5518780000000 1.0
C      1  0.5244510000000  0.5374750000000  0.4458370000000 1.0
C      1  0.4893440000000  0.4234530000000  0.4505870000000 1.0
C      1  0.4989150000000  0.4995830000000  0.5897670000000 1.0
C      1  0.4960960000000  0.5777640000000  0.4625950000000 1.0
C      1  0.5496150000000  0.4595550000000  0.5497460000000 1.0
C      1  0.5476770000000  0.5623490000000  0.5090420000000 1.0
C      1  0.5458080000000  0.4796670000000  0.4463700000000 1.0
C      1  0.4924220000000  0.5359920000000  0.4421210000000 1.0
C      1  0.4748360000000  0.4429590000000  0.4928150000000 1.0
C      1  0.4713650000000  0.5220380000000  0.5553410000000 1.0
C      1  0.5157380000000  0.5429810000000  0.5131980000000 1.0
C      1  0.5132210000000  0.4948680000000  0.4607620000000 1.0
C      1  0.5180900000000  0.4723920000000  0.5318180000000 1.0
C      1  0.5486020000000  0.5906880000000  0.4748640000000 1.0
C      1  0.5196460000000  0.4481110000000  0.4298430000000 1.0
C      1  0.5418940000000  0.4754280000000  0.5905200000000 1.0
C      1  0.4885170000000  0.5489250000000  0.4703600000000 1.0
C      1  0.4812740000000  0.4505200000000  0.4640720000000 1.0
C      1  0.4866600000000  0.4974920000000  0.5616040000000 1.0
C      1  0.5541960000000  0.4297050000000  0.5103570000000 1.0
C      1  0.5614950000000  0.5530380000000  0.5539760000000 1.0
C      1  0.5671420000000  0.5223590000000  0.4301880000000 1.0
C      1  0.4422440000000  0.4716290000000  0.4169340000000 1.0
C      1  0.4443080000000  0.4386780000000  0.5631070000000 1.0
C      1  0.4402410000000  0.5747780000000  0.5164770000000 1.0
C      1  0.5477830000000  0.5095710000000  0.4900620000000 1.0
C      1  0.5473190000000  0.4794520000000  0.4845540000000 1.0
C      1  0.5440530000000  0.5063180000000  0.5196510000000 1.0
C      1  0.4925980000000  0.5567080000000  0.5251730000000 1.0
C      1  0.4921250000000  0.5051060000000  0.4419370000000 1.0
C      1  0.4978400000000  0.4474930000000  0.5365980000000 1.0
C      1  0.5126030000000  0.4043240000000  0.5373540000000 1.0
C      1  0.5118510000000  0.5812070000000  0.5570940000000 1.0
C      1  0.5178590000000  0.5158890000000  0.4012300000000 1.0
C      1  0.4590840000000  0.5106550000000  0.4806390000000 1.0
C      1  0.4614900000000  0.4667000000000  0.5081430000000 1.0
C      1  0.4598350000000  0.5171310000000  0.5272610000000 1.0
C      1  0.5068920000000  0.5334930000000  0.4876760000000 1.0
C      1  0.4993650000000  0.4789600000000  0.4832840000000 1.0
C      1  0.5040160000000  0.4973930000000  0.5369680000000 1.0
C      1  0.4661740000000  0.4980550000000  0.4538980000000 1.0
C      1  0.4680970000000  0.4557250000000  0.5380030000000 1.0
C      1  0.4649350000000  0.5454450000000  0.5142550000000 1.0
C      1  0.4405750000000  0.4215860000000  0.5407190000000 1.0
C      1  0.4376110000000  0.5645940000000  0.5432420000000 1.0
C      1  0.4428440000000  0.5011000000000  0.4162670000000 1.0
C      1  0.5719830000000  0.5022360000000  0.5303030000000 1.0
C      1  0.5759180000000  0.5221990000000  0.4852470000000 1.0
C      1  0.5767770000000  0.4710600000000  0.4864540000000 1.0
C      1  0.4969480000000  0.5530740000000  0.5942040000000 1.0
C      1  0.4991070000000  0.5609600000000  0.4064130000000 1.0
C      1  0.4921570000000  0.3865560000000  0.4965050000000 1.0
C      1  0.4109640000000  0.5263260000000  0.5251720000000 1.0
C      1  0.4147630000000  0.4994100000000  0.4601020000000 1.0
C      1  0.4127210000000  0.4583760000000  0.5190410000000 1.0
C      1  0.4165470000000  0.5463860000000  0.5438700000000 1.0
C      1  0.4239390000000  0.5094950000000  0.4354900000000 1.0
C      1  0.4190750000000  0.4320980000000  0.5262050000000 1.0
C      1  0.5260120000000  0.5665940000000  0.4193210000000 1.0
C      1  0.5173960000000  0.4010730000000  0.4874540000000 1.0
C      1  0.5228940000000  0.5420070000000  0.5852260000000 1.0
C      1  0.5266190000000  0.5115730000000  0.5917110000000 1.0
C      1  0.5228870000000  0.5805440000000  0.4485030000000 1.0
C      1  0.5161870000000  0.4174720000000  0.4619120000000 1.0
C      1  0.5005240000000  0.5862210000000  0.5298860000000 1.0
C      1  0.5048840000000  0.4911450000000  0.4093100000000 1.0
C      1  0.5058850000000  0.4257800000000  0.5563130000000 1.0
C      1  0.4870360000000  0.5728890000000  0.5742100000000 1.0
C      1  0.4932600000000  0.5325050000000  0.3983220000000 1.0
C      1  0.4865260000000  0.3943290000000  0.5255000000000 1.0
C      1  0.5748650000000  0.5329200000000  0.5678890000000 1.0
C      1  0.5848990000000  0.5417110000000  0.4400530000000 1.0
C      1  0.5674350000000  0.4285760000000  0.4858850000000 1.0
C      1  0.4285650000000  0.5091740000000  0.4846350000000 1.0
C      1  0.4313000000000  0.4712740000000  0.4992720000000 1.0
C      1  0.4302370000000  0.5032100000000  0.5255860000000 1.0
C      1  0.4179200000000  0.4777940000000  0.5407360000000 1.0
C      1  0.4160560000000  0.5342580000000  0.4972420000000 1.0
C      1  0.4200460000000  0.4709410000000  0.4639570000000 1.0
C      1  0.5210590000000  0.4661910000000  0.4999310000000 1.0
C      1  0.5219140000000  0.5205960000000  0.5337030000000 1.0
C      1  0.5257690000000  0.5196050000000  0.4716430000000 1.0
C      1  0.5862880000000  0.4967010000000  0.4714130000000 1.0
C      1  0.5803270000000  0.4735250000000  0.5169060000000 1.0
C      1  0.5831990000000  0.5271510000000  0.5151980000000 1.0
C      1  0.4812460000000  0.5090380000000  0.6092450000000 1.0
C      1  0.4791960000000  0.5873220000000  0.4426460000000 1.0
C      1  0.4723760000000  0.4014940000000  0.4544610000000 1.0
C      1  0.4316650000000  0.4650670000000  0.5636080000000 1.0
C      1  0.4296370000000  0.5600750000000  0.4938540000000 1.0
C      1  0.4260760000000  0.4586610000000  0.4376700000000 1.0
C      1  0.4579700000000  0.5628280000000  0.5650580000000 1.0
C      1  0.4654460000000  0.5217110000000  0.4105040000000 1.0
C      1  0.4632580000000  0.4138210000000  0.5238230000000 1.0
C      1  0.5469510000000  0.4727020000000  0.4175190000000 1.0
C      1  0.5445480000000  0.4508690000000  0.5762060000000 1.0
C      1  0.5432770000000  0.5900150000000  0.5028430000000 1.0
C      1  0.5698840000000  0.5530840000000  0.5254490000000 1.0
C      1  0.5695980000000  0.4976670000000  0.4463050000000 1.0
C      1  0.5655990000000  0.4504070000000  0.5283820000000 1.0
C      1  0.5328340000000  0.5580230000000  0.5619060000000 1.0
C      1  0.5387620000000  0.5314780000000  0.4192500000000 1.0
C      1  0.5254770000000  0.4166630000000  0.5116320000000 1.0
C      1  0.5705070000000  0.5061900000000  0.5609790000000 1.0
C      1  0.5760300000000  0.5465780000000  0.4662590000000 1.0
C      1  0.5614410000000  0.4435800000000  0.4634550000000 1.0
C      1  0.5354320000000  0.4371110000000  0.4517500000000 1.0
C      1  0.5447650000000  0.4973220000000  0.5722420000000 1.0
C      1  0.5533380000000  0.5641590000000  0.4655500000000 1.0
C      1  0.5243340000000  0.4319280000000  0.5763880000000 1.0
C      1  0.5186580000000  0.5984470000000  0.5125190000000 1.0
C      1  0.5207460000000  0.4671910000000  0.4077540000000 1.0
C      1  0.4745980000000  0.5349990000000  0.6009510000000 1.0
C      1  0.4752140000000  0.5703200000000  0.4205940000000 1.0
C      1  0.4675320000000  0.3928580000000  0.4805680000000 1.0
C      1  0.4676790000000  0.4758630000000  0.5598060000000 1.0
C      1  0.4621120000000  0.5414160000000  0.4834230000000 1.0
C      1  0.4606650000000  0.4691320000000  0.4505180000000 1.0
C      1  0.4535420000000  0.4120850000000  0.4966610000000 1.0
C      1  0.4524720000000  0.5403670000000  0.5828400000000 1.0
C      1  0.4598490000000  0.5464760000000  0.4244380000000 1.0
C      1  0.4768980000000  0.4933260000000  0.5020930000000 1.0
END
