TITL C-3577083-591-502 -7.34456299978819e-07 125000 -140.905195370043 0 0 24 (C1) n - 1
REM
REM in /home/bkarasulu/work/CARBON/AIRSS/Generating-Clusters/EDIP-Nigel-Params/with-SteepDescent/Higher-Symm/SD-CG/HFTN-CG
REM
REM
REM
REM
REM
REM ./C.cell (12c818d87b63d06a65506943cc24bca4)
REM
REM compiler GCC version 9.2.1 20190827 (Red Hat 9.2.1-1)
REM options -cpp -mtune=generic -march=x86-64 -g -O0 -fpre-include=/usr/include/finclude/math-vector-fortran.h
REM seed -2011396461 245364655 -934737699 390688902 -48818188 1523912892 -1049175575 696725860 222622260 -669929276 664371487 297749819 -854496460 -1599539322 -970080758 -1321316819 -176157667 1516863915 -911254331 -1327360294 1703112110 -1701525986 -1027996313 -586969511 -1787489737 1625237448 1670559699 -11831917 -730617355 1143486661 -1113950676 -1358637579 120411600
REM
CELL 1.54180   50.00000   50.00000   50.00000   90.00000   90.00000   90.00000
LATT -1
SFAC C  
C      1  0.4563470000000  0.5340710000000  0.4858530000000 1.0
C      1  0.4752330000000  0.4921400000000  0.5351370000000 1.0
C      1  0.5134630000000  0.4447990000000  0.5006240000000 1.0
C      1  0.4764890000000  0.5492590000000  0.4671690000000 1.0
C      1  0.5594070000000  0.5006710000000  0.4840380000000 1.0
C      1  0.5326230000000  0.5318730000000  0.5342500000000 1.0
C      1  0.4664620000000  0.4502010000000  0.5115290000000 1.0
C      1  0.5471880000000  0.5249180000000  0.4905560000000 1.0
C      1  0.4868490000000  0.4397810000000  0.4931830000000 1.0
C      1  0.4622700000000  0.5076820000000  0.4694390000000 1.0
C      1  0.4977800000000  0.4760520000000  0.5424970000000 1.0
C      1  0.5181020000000  0.4861960000000  0.5256430000000 1.0
C      1  0.5042220000000  0.5441490000000  0.4754940000000 1.0
C      1  0.5531170000000  0.5349160000000  0.5163180000000 1.0
C      1  0.4662330000000  0.5332470000000  0.5120130000000 1.0
C      1  0.4613040000000  0.4790790000000  0.5117230000000 1.0
C      1  0.4814520000000  0.5233230000000  0.4517550000000 1.0
C      1  0.5282920000000  0.4679840000000  0.5054210000000 1.0
C      1  0.5177110000000  0.5225700000000  0.4894410000000 1.0
C      1  0.4841550000000  0.5199150000000  0.5285570000000 1.0
C      1  0.4761840000000  0.4595060000000  0.4747090000000 1.0
C      1  0.5131200000000  0.5156390000000  0.5195240000000 1.0
C      1  0.5495590000000  0.4763040000000  0.4896330000000 1.0
C      1  0.4724370000000  0.4857260000000  0.4854940000000 1.0
END
