TITL C-3578194-7807-386 -1.38644117431268e-06 125000 -333.030871451609 0 0 56 (C2) n - 1
REM
REM in /home/bkarasulu/work/CARBON/AIRSS/Generating-Clusters/EDIP-Nigel-Params/with-SteepDescent/Higher-Symm/SD-CG/HFTN-CG
REM
REM
REM
REM
REM
REM ./C.cell (12c818d87b63d06a65506943cc24bca4)
REM
REM compiler GCC version 9.2.1 20190827 (Red Hat 9.2.1-1)
REM options -cpp -mtune=generic -march=x86-64 -g -O0 -fpre-include=/usr/include/finclude/math-vector-fortran.h
REM seed -238406907 1163870929 1230468750 1980071805 -456881732 1886308191 1957213720 -893658421 -2133157642 1003501369 1607313117 1789366474 1940333516 -638658433 -658252558 1178538905 418579147 -1748884556 -1015359915 -1187413328 -1253565837 229269114 -668392395 -847593729 -344104709 89856375 1609749935 957515582 -39014305 -503950511 1971940714 -1922027998 2129757705
REM
CELL 1.54180   50.00000   50.00000   50.00000   90.00000   90.00000   90.00000
LATT -1
SFAC C  
C      1  0.5201070000000  0.5318610000000  0.4642870000000 1.0
C      1  0.4803320000000  0.4667720000000  0.4651630000000 1.0
C      1  0.4801850000000  0.5289060000000  0.4633920000000 1.0
C      1  0.5202900000000  0.4696870000000  0.4646340000000 1.0
C      1  0.4222900000000  0.4755500000000  0.5190490000000 1.0
C      1  0.5780080000000  0.5254920000000  0.5187730000000 1.0
C      1  0.5762660000000  0.4731280000000  0.5204170000000 1.0
C      1  0.4228160000000  0.5280290000000  0.5180850000000 1.0
C      1  0.4268190000000  0.4866120000000  0.4935380000000 1.0
C      1  0.5735000000000  0.5132940000000  0.4938030000000 1.0
C      1  0.5723760000000  0.4840420000000  0.4947390000000 1.0
C      1  0.4274460000000  0.5158930000000  0.4931170000000 1.0
C      1  0.5632770000000  0.5309720000000  0.4732180000000 1.0
C      1  0.4371010000000  0.4680990000000  0.4737280000000 1.0
C      1  0.4370630000000  0.5332370000000  0.4719210000000 1.0
C      1  0.5632670000000  0.4658170000000  0.4740560000000 1.0
C      1  0.5450160000000  0.5206940000000  0.4536810000000 1.0
C      1  0.4555210000000  0.4775310000000  0.4539170000000 1.0
C      1  0.4541150000000  0.5216500000000  0.4520750000000 1.0
C      1  0.5465390000000  0.4765410000000  0.4534560000000 1.0
C      1  0.4836360000000  0.5145150000000  0.4915470000000 1.0
C      1  0.5164040000000  0.4850620000000  0.4921760000000 1.0
C      1  0.5143260000000  0.5169480000000  0.4917280000000 1.0
C      1  0.4858230000000  0.4826380000000  0.4921050000000 1.0
C      1  0.4845230000000  0.4248070000000  0.4919070000000 1.0
C      1  0.5156080000000  0.5747660000000  0.4894200000000 1.0
C      1  0.5106420000000  0.4359700000000  0.4954150000000 1.0
C      1  0.4894640000000  0.5636960000000  0.4929860000000 1.0
C      1  0.4856900000000  0.5407260000000  0.5444840000000 1.0
C      1  0.5137550000000  0.4605520000000  0.5462870000000 1.0
C      1  0.5150050000000  0.5406230000000  0.5441330000000 1.0
C      1  0.4844550000000  0.4606140000000  0.5455920000000 1.0
C      1  0.4700340000000  0.4384490000000  0.4708620000000 1.0
C      1  0.5303010000000  0.5604070000000  0.4690040000000 1.0
C      1  0.5261380000000  0.4416460000000  0.4723230000000 1.0
C      1  0.4742880000000  0.5572280000000  0.4699050000000 1.0
C      1  0.4428430000000  0.5164910000000  0.5347020000000 1.0
C      1  0.5559770000000  0.4858980000000  0.5358650000000 1.0
C      1  0.5570010000000  0.5150760000000  0.5349320000000 1.0
C      1  0.4431000000000  0.4871180000000  0.5347490000000 1.0
C      1  0.5283840000000  0.5198970000000  0.5277520000000 1.0
C      1  0.4716590000000  0.4808150000000  0.5281850000000 1.0
C      1  0.4716770000000  0.5202830000000  0.5278790000000 1.0
C      1  0.5275550000000  0.4805570000000  0.5290010000000 1.0
C      1  0.4801950000000  0.4326170000000  0.5380260000000 1.0
C      1  0.5193740000000  0.5683850000000  0.5357830000000 1.0
C      1  0.5179840000000  0.4322800000000  0.5390330000000 1.0
C      1  0.4815790000000  0.5687800000000  0.5363540000000 1.0
C      1  0.4472010000000  0.5589820000000  0.4813990000000 1.0
C      1  0.5530580000000  0.4403990000000  0.4842840000000 1.0
C      1  0.5557820000000  0.5573820000000  0.4829350000000 1.0
C      1  0.4444470000000  0.4420460000000  0.4844640000000 1.0
C      1  0.4656680000000  0.4278430000000  0.5135610000000 1.0
C      1  0.5342260000000  0.5724150000000  0.5113680000000 1.0
C      1  0.5311010000000  0.4279460000000  0.5138920000000 1.0
C      1  0.4687610000000  0.5723340000000  0.5109130000000 1.0
END
