TITL C-3578200-9634-158 -3.23281980837996e-07 125000 -998.3159147305 0 0 162 (C1) n - 1
REM
REM in /home/bkarasulu/work/CARBON/AIRSS/Generating-Clusters/EDIP-Nigel-Params/with-SteepDescent/Higher-Symm/SD-CG/HFTN-CG
REM
REM
REM
REM
REM
REM ./C.cell (12c818d87b63d06a65506943cc24bca4)
REM
REM compiler GCC version 9.2.1 20190827 (Red Hat 9.2.1-1)
REM options -cpp -mtune=generic -march=x86-64 -g -O0 -fpre-include=/usr/include/finclude/math-vector-fortran.h
REM seed 173134367 -2083080648 -652530344 1601745377 -1256613135 736943109 -2050888818 1538005254 112979660 -573266023 -730610582 97274600 -1104840785 912346392 -1724908730 1879119448 -680268888 -1504772174 -1878346052 237622975 476032072 2077720100 -181737443 879627675 -41642323 2131720893 391491159 892555895 2063194558 -193003344 781156254 1323094198 -1172097002
REM
CELL 1.54180   50.00000   50.00000   50.00000   90.00000   90.00000   90.00000
LATT -1
SFAC C  
C      1  0.5292630000000  0.5428560000000  0.5691350000000 1.0
C      1  0.5295830000000  0.4155750000000  0.5032610000000 1.0
C      1  0.5278240000000  0.5386200000000  0.4283840000000 1.0
C      1  0.4715580000000  0.5434450000000  0.5692070000000 1.0
C      1  0.4712160000000  0.4166990000000  0.5030860000000 1.0
C      1  0.4702820000000  0.5391840000000  0.4282920000000 1.0
C      1  0.4571290000000  0.5067430000000  0.5994430000000 1.0
C      1  0.4558810000000  0.4077710000000  0.4571350000000 1.0
C      1  0.4550470000000  0.5836590000000  0.4429620000000 1.0
C      1  0.5433030000000  0.5063480000000  0.5998310000000 1.0
C      1  0.5447080000000  0.4068350000000  0.4569660000000 1.0
C      1  0.5434450000000  0.5836490000000  0.4426580000000 1.0
C      1  0.4725180000000  0.5196680000000  0.5123010000000 1.0
C      1  0.4776530000000  0.4822820000000  0.5042800000000 1.0
C      1  0.4775780000000  0.5099980000000  0.4704760000000 1.0
C      1  0.5220210000000  0.5191320000000  0.5212710000000 1.0
C      1  0.5282970000000  0.4838350000000  0.5065070000000 1.0
C      1  0.5235470000000  0.5037300000000  0.4803570000000 1.0
C      1  0.5158400000000  0.4455650000000  0.5717960000000 1.0
C      1  0.5158880000000  0.4589230000000  0.4180330000000 1.0
C      1  0.5154170000000  0.5936790000000  0.5068170000000 1.0
C      1  0.4844120000000  0.4462830000000  0.5712440000000 1.0
C      1  0.4844300000000  0.4587450000000  0.4175930000000 1.0
C      1  0.4840340000000  0.5944480000000  0.5070600000000 1.0
C      1  0.4009190000000  0.5391970000000  0.5143270000000 1.0
C      1  0.4041370000000  0.4721500000000  0.5226350000000 1.0
C      1  0.4022720000000  0.4931520000000  0.4616620000000 1.0
C      1  0.5981130000000  0.5376260000000  0.5134490000000 1.0
C      1  0.5990420000000  0.4687600000000  0.5259600000000 1.0
C      1  0.5971130000000  0.4930450000000  0.4630690000000 1.0
C      1  0.4249290000000  0.5446110000000  0.4488480000000 1.0
C      1  0.4270280000000  0.5231010000000  0.5637850000000 1.0
C      1  0.4278870000000  0.4341730000000  0.4872720000000 1.0
C      1  0.5715310000000  0.5441730000000  0.4502010000000 1.0
C      1  0.5745890000000  0.5224800000000  0.5642370000000 1.0
C      1  0.5733590000000  0.4324780000000  0.4881160000000 1.0
C      1  0.5603630000000  0.4126150000000  0.5080910000000 1.0
C      1  0.5585300000000  0.5358350000000  0.4238530000000 1.0
C      1  0.5595970000000  0.5488370000000  0.5699660000000 1.0
C      1  0.4403710000000  0.4140700000000  0.5074220000000 1.0
C      1  0.4399040000000  0.5362480000000  0.4232530000000 1.0
C      1  0.4410670000000  0.5496290000000  0.5705830000000 1.0
C      1  0.5266600000000  0.4311870000000  0.4159160000000 1.0
C      1  0.5263610000000  0.6081010000000  0.4833210000000 1.0
C      1  0.5270370000000  0.4566240000000  0.5975490000000 1.0
C      1  0.4735730000000  0.4312410000000  0.4160650000000 1.0
C      1  0.4732270000000  0.6088290000000  0.4833210000000 1.0
C      1  0.4729530000000  0.4574470000000  0.5967450000000 1.0
C      1  0.5251390000000  0.5652250000000  0.5001140000000 1.0
C      1  0.5262190000000  0.4672670000000  0.5530390000000 1.0
C      1  0.5265800000000  0.4654890000000  0.4463470000000 1.0
C      1  0.4729920000000  0.5663410000000  0.5008460000000 1.0
C      1  0.4748990000000  0.4684330000000  0.5522260000000 1.0
C      1  0.4744310000000  0.4668910000000  0.4452530000000 1.0
C      1  0.5228900000000  0.5888720000000  0.4620910000000 1.0
C      1  0.5240190000000  0.4854750000000  0.5939730000000 1.0
C      1  0.5239190000000  0.4209070000000  0.4428580000000 1.0
C      1  0.4756610000000  0.5892210000000  0.4622520000000 1.0
C      1  0.4764980000000  0.4862260000000  0.5933170000000 1.0
C      1  0.4765770000000  0.4219390000000  0.4431820000000 1.0
C      1  0.5683750000000  0.5079000000000  0.4246660000000 1.0
C      1  0.5692820000000  0.5626160000000  0.5457310000000 1.0
C      1  0.5700970000000  0.4270930000000  0.5320980000000 1.0
C      1  0.4307100000000  0.5081890000000  0.4237030000000 1.0
C      1  0.4302160000000  0.5642270000000  0.5471140000000 1.0
C      1  0.4300440000000  0.4284510000000  0.5312650000000 1.0
C      1  0.5818280000000  0.4469170000000  0.4466620000000 1.0
C      1  0.5816930000000  0.5741290000000  0.4816750000000 1.0
C      1  0.5817170000000  0.4789280000000  0.5723590000000 1.0
C      1  0.4179760000000  0.4468290000000  0.4455960000000 1.0
C      1  0.4177480000000  0.5744320000000  0.4821580000000 1.0
C      1  0.4187620000000  0.4798150000000  0.5709740000000 1.0
C      1  0.4435970000000  0.5200920000000  0.5193050000000 1.0
C      1  0.4481160000000  0.4811880000000  0.4987270000000 1.0
C      1  0.4458920000000  0.5052610000000  0.4758050000000 1.0
C      1  0.5551280000000  0.5173660000000  0.5167330000000 1.0
C      1  0.5568500000000  0.4745690000000  0.5056850000000 1.0
C      1  0.5538610000000  0.5092400000000  0.4784490000000 1.0
C      1  0.4481760000000  0.4552860000000  0.4854180000000 1.0
C      1  0.4430200000000  0.5366630000000  0.4702570000000 1.0
C      1  0.4461050000000  0.5101090000000  0.5460250000000 1.0
C      1  0.5532760000000  0.4538730000000  0.4862500000000 1.0
C      1  0.5514970000000  0.5359820000000  0.4694760000000 1.0
C      1  0.5564470000000  0.5085730000000  0.5463100000000 1.0
C      1  0.5690380000000  0.4954510000000  0.4532920000000 1.0
C      1  0.5700150000000  0.5448760000000  0.5201730000000 1.0
C      1  0.5709720000000  0.4585650000000  0.5279480000000 1.0
C      1  0.4301640000000  0.4945660000000  0.4512980000000 1.0
C      1  0.4289900000000  0.5466050000000  0.5214870000000 1.0
C      1  0.4310250000000  0.4590800000000  0.5259140000000 1.0
C      1  0.4279580000000  0.5744450000000  0.4523820000000 1.0
C      1  0.4296930000000  0.5045090000000  0.5871350000000 1.0
C      1  0.4288830000000  0.4209490000000  0.4601790000000 1.0
C      1  0.5705500000000  0.5742990000000  0.4520290000000 1.0
C      1  0.5710480000000  0.5040150000000  0.5880120000000 1.0
C      1  0.5715140000000  0.4203230000000  0.4605520000000 1.0
C      1  0.5156460000000  0.4921370000000  0.5660760000000 1.0
C      1  0.5156710000000  0.4424340000000  0.4619070000000 1.0
C      1  0.5137340000000  0.5622240000000  0.4723430000000 1.0
C      1  0.4855880000000  0.4930990000000  0.5656180000000 1.0
C      1  0.4857190000000  0.4436130000000  0.4616910000000 1.0
C      1  0.4837480000000  0.5627050000000  0.4729600000000 1.0
C      1  0.5269250000000  0.4913010000000  0.4042670000000 1.0
C      1  0.5277730000000  0.5885670000000  0.5412560000000 1.0
C      1  0.5272030000000  0.4204970000000  0.5570680000000 1.0
C      1  0.4723660000000  0.4912750000000  0.4040780000000 1.0
C      1  0.4722490000000  0.5891310000000  0.5418170000000 1.0
C      1  0.4729650000000  0.4213920000000  0.5564590000000 1.0
C      1  0.5244420000000  0.5366060000000  0.4593940000000 1.0
C      1  0.5282700000000  0.5163740000000  0.5521510000000 1.0
C      1  0.5267090000000  0.4429050000000  0.4901140000000 1.0
C      1  0.4712200000000  0.5380300000000  0.4595620000000 1.0
C      1  0.4741020000000  0.5183200000000  0.5512070000000 1.0
C      1  0.4746440000000  0.4449090000000  0.4901380000000 1.0
C      1  0.4853180000000  0.5318380000000  0.5939350000000 1.0
C      1  0.4850410000000  0.4004590000000  0.4810620000000 1.0
C      1  0.4841890000000  0.5662790000000  0.4250670000000 1.0
C      1  0.5155940000000  0.5317620000000  0.5941300000000 1.0
C      1  0.5155040000000  0.3998240000000  0.4810270000000 1.0
C      1  0.5144690000000  0.5659230000000  0.4250140000000 1.0
C      1  0.4407930000000  0.5671790000000  0.5021550000000 1.0
C      1  0.4428830000000  0.4665400000000  0.5530080000000 1.0
C      1  0.4416680000000  0.4676060000000  0.4432820000000 1.0
C      1  0.5581760000000  0.5659640000000  0.5013480000000 1.0
C      1  0.5584380000000  0.4652860000000  0.5549100000000 1.0
C      1  0.5580740000000  0.4679110000000  0.4445610000000 1.0
C      1  0.5652380000000  0.4436470000000  0.5745270000000 1.0
C      1  0.5648220000000  0.4635440000000  0.4157900000000 1.0
C      1  0.5655580000000  0.5928610000000  0.5118780000000 1.0
C      1  0.4356980000000  0.4450840000000  0.5734960000000 1.0
C      1  0.4348860000000  0.4634240000000  0.4145950000000 1.0
C      1  0.4335740000000  0.5937450000000  0.5124810000000 1.0
C      1  0.5569760000000  0.4209570000000  0.5581340000000 1.0
C      1  0.5560190000000  0.4891520000000  0.4054320000000 1.0
C      1  0.5568880000000  0.5889170000000  0.5394090000000 1.0
C      1  0.4432540000000  0.4222400000000  0.5572500000000 1.0
C      1  0.4433740000000  0.4893520000000  0.4044690000000 1.0
C      1  0.4430110000000  0.5902140000000  0.5401120000000 1.0
C      1  0.5147130000000  0.5672050000000  0.5569370000000 1.0
C      1  0.5147420000000  0.4143360000000  0.5303170000000 1.0
C      1  0.5138360000000  0.5165150000000  0.4126730000000 1.0
C      1  0.4857200000000  0.5675250000000  0.5569740000000 1.0
C      1  0.4856780000000  0.4147300000000  0.5300920000000 1.0
C      1  0.4849700000000  0.5161650000000  0.4136750000000 1.0
C      1  0.3989430000000  0.4633350000000  0.4649000000000 1.0
C      1  0.3981880000000  0.5497570000000  0.4863580000000 1.0
C      1  0.3996210000000  0.4888880000000  0.5476270000000 1.0
C      1  0.6009570000000  0.4631360000000  0.4658480000000 1.0
C      1  0.6007200000000  0.5491480000000  0.4858380000000 1.0
C      1  0.6014940000000  0.4875940000000  0.5493080000000 1.0
C      1  0.4870420000000  0.4663030000000  0.5257920000000 1.0
C      1  0.4877150000000  0.4924400000000  0.4509670000000 1.0
C      1  0.4841080000000  0.5458440000000  0.5181260000000 1.0
C      1  0.5151570000000  0.4658370000000  0.5260280000000 1.0
C      1  0.5145620000000  0.4890880000000  0.4570800000000 1.0
C      1  0.5123970000000  0.5459740000000  0.5180650000000 1.0
C      1  0.5969930000000  0.5303890000000  0.4625890000000 1.0
C      1  0.5995060000000  0.5176590000000  0.5450990000000 1.0
C      1  0.5987270000000  0.4505810000000  0.4931240000000 1.0
C      1  0.4002370000000  0.5303620000000  0.4627850000000 1.0
C      1  0.4013740000000  0.5189520000000  0.5459150000000 1.0
C      1  0.4026570000000  0.4520310000000  0.4926230000000 1.0
END
