TITL C-3578201-9217-724 -4.36873968118988e-07 125000 -321.539491185379 0 0 52 (C1) n - 1
REM
REM in /home/bkarasulu/work/CARBON/AIRSS/Generating-Clusters/EDIP-Nigel-Params/with-SteepDescent/Higher-Symm/SD-CG/HFTN-CG
REM
REM
REM
REM
REM
REM ./C.cell (12c818d87b63d06a65506943cc24bca4)
REM
REM compiler GCC version 9.2.1 20190827 (Red Hat 9.2.1-1)
REM options -cpp -mtune=generic -march=x86-64 -g -O0 -fpre-include=/usr/include/finclude/math-vector-fortran.h
REM seed -221910635 445403075 1930502885 1278141313 -17881778 1643590931 -103975394 1053264214 -2009736047 1898888819 -1032506985 -2137542106 452416437 -2096113044 1964463167 -1490970778 -2124157219 981211806 -907841775 1930712263 1240019109 -1913344047 1492270671 1089297505 -201966653 -1716107522 1953465664 747541663 1057190995 -1325727225 1565826564 1890235071 99269547
REM
CELL 1.54180   50.00000   50.00000   50.00000   90.00000   90.00000   90.00000
LATT -1
SFAC C  
C      1  0.5180210000000  0.4517370000000  0.5314370000000 1.0
C      1  0.4509150000000  0.4839220000000  0.4695450000000 1.0
C      1  0.4835220000000  0.5440670000000  0.5311970000000 1.0
C      1  0.5482590000000  0.5163270000000  0.4675650000000 1.0
C      1  0.4885000000000  0.5056750000000  0.4738180000000 1.0
C      1  0.5140940000000  0.5042770000000  0.5105940000000 1.0
C      1  0.5140640000000  0.4956420000000  0.4827410000000 1.0
C      1  0.4937620000000  0.4955610000000  0.5301730000000 1.0
C      1  0.4937610000000  0.4728040000000  0.4365520000000 1.0
C      1  0.4683480000000  0.5064350000000  0.5673610000000 1.0
C      1  0.5049130000000  0.5300660000000  0.4336790000000 1.0
C      1  0.5278810000000  0.4915280000000  0.5645440000000 1.0
C      1  0.4430760000000  0.5023060000000  0.5310100000000 1.0
C      1  0.5016210000000  0.5549600000000  0.4701380000000 1.0
C      1  0.5590450000000  0.4978910000000  0.5288510000000 1.0
C      1  0.4985280000000  0.4458360000000  0.4714030000000 1.0
C      1  0.5089230000000  0.5563210000000  0.4429670000000 1.0
C      1  0.5540920000000  0.4890170000000  0.5549770000000 1.0
C      1  0.4897770000000  0.4463380000000  0.4447160000000 1.0
C      1  0.4425500000000  0.5113490000000  0.5576410000000 1.0
C      1  0.5071180000000  0.4755550000000  0.5495930000000 1.0
C      1  0.4758550000000  0.4936530000000  0.4495250000000 1.0
C      1  0.4896470000000  0.5186780000000  0.5493480000000 1.0
C      1  0.5235000000000  0.5098570000000  0.4474550000000 1.0
C      1  0.5325900000000  0.5359540000000  0.5446270000000 1.0
C      1  0.5391010000000  0.4663240000000  0.4545820000000 1.0
C      1  0.4652830000000  0.4619410000000  0.5460130000000 1.0
C      1  0.4593180000000  0.5356100000000  0.4545860000000 1.0
C      1  0.5696970000000  0.4891640000000  0.4844550000000 1.0
C      1  0.4893360000000  0.4325140000000  0.5151060000000 1.0
C      1  0.4299860000000  0.5109940000000  0.4862880000000 1.0
C      1  0.5099360000000  0.5662390000000  0.5142580000000 1.0
C      1  0.5170300000000  0.5194120000000  0.5633690000000 1.0
C      1  0.5220400000000  0.4819210000000  0.4360100000000 1.0
C      1  0.4752230000000  0.4774420000000  0.5687420000000 1.0
C      1  0.4758450000000  0.5207590000000  0.4339270000000 1.0
C      1  0.5230350000000  0.5571270000000  0.4902420000000 1.0
C      1  0.5603460000000  0.4764310000000  0.5086630000000 1.0
C      1  0.4776740000000  0.4447120000000  0.4917500000000 1.0
C      1  0.4416960000000  0.5227330000000  0.5099650000000 1.0
C      1  0.4629770000000  0.4703620000000  0.4951510000000 1.0
C      1  0.4675440000000  0.5370110000000  0.5060110000000 1.0
C      1  0.5422800000000  0.5336920000000  0.4928520000000 1.0
C      1  0.5352330000000  0.4591300000000  0.5061510000000 1.0
C      1  0.5629240000000  0.4813900000000  0.4587120000000 1.0
C      1  0.4823750000000  0.4397480000000  0.5411210000000 1.0
C      1  0.4368220000000  0.5186770000000  0.4601990000000 1.0
C      1  0.5177270000000  0.5598390000000  0.5400890000000 1.0
C      1  0.5383840000000  0.5187480000000  0.5197440000000 1.0
C      1  0.5211570000000  0.4652580000000  0.4793060000000 1.0
C      1  0.4649950000000  0.4824710000000  0.5236720000000 1.0
C      1  0.4796760000000  0.5345930000000  0.4775780000000 1.0
END
