TITL C-3578203-1966-307 3.79466444304909e-07 125000 -843.810461702258 0 0 133 (C1) n - 1
REM
REM in /home/bkarasulu/work/CARBON/AIRSS/Generating-Clusters/EDIP-Nigel-Params/with-SteepDescent/Higher-Symm/SD-CG/HFTN-CG
REM
REM
REM
REM
REM
REM ./C.cell (12c818d87b63d06a65506943cc24bca4)
REM
REM compiler GCC version 9.2.1 20190827 (Red Hat 9.2.1-1)
REM options -cpp -mtune=generic -march=x86-64 -g -O0 -fpre-include=/usr/include/finclude/math-vector-fortran.h
REM seed -1096920340 -1648315898 -219248545 -1031966202 -1213129014 -1433699970 -981591927 1676465120 -1734420392 -26783100 -1972789668 -121246583 -216409483 1806060506 577900445 -1068895534 1207240415 2045747310 505888363 1956051606 -1427155665 492526537 1591669670 766778241 688777602 494141131 -1048141480 -1440723958 1114870039 1932279979 1840283932 913657990 878205239
REM
CELL 1.54180   50.00000   50.00000   50.00000   90.00000   90.00000   90.00000
LATT -1
SFAC C  
C      1  0.5011770000000  0.4205930000000  0.4467050000000 1.0
C      1  0.5508320000000  0.5873630000000  0.5043750000000 1.0
C      1  0.4967690000000  0.4130250000000  0.5496060000000 1.0
C      1  0.4496710000000  0.5875670000000  0.4979970000000 1.0
C      1  0.5188770000000  0.5208470000000  0.5256470000000 1.0
C      1  0.4810580000000  0.4838050000000  0.5132110000000 1.0
C      1  0.4889360000000  0.5201760000000  0.4778710000000 1.0
C      1  0.5220110000000  0.4826250000000  0.4819150000000 1.0
C      1  0.5285970000000  0.4262660000000  0.5178210000000 1.0
C      1  0.4808140000000  0.5740150000000  0.5301560000000 1.0
C      1  0.4686120000000  0.4229540000000  0.4808030000000 1.0
C      1  0.5196480000000  0.5787950000000  0.4713640000000 1.0
C      1  0.5693000000000  0.5791040000000  0.4708330000000 1.0
C      1  0.5288740000000  0.4221310000000  0.5694380000000 1.0
C      1  0.4290750000000  0.5785860000000  0.5297180000000 1.0
C      1  0.4560320000000  0.4157650000000  0.4329620000000 1.0
C      1  0.5134410000000  0.5612420000000  0.4476360000000 1.0
C      1  0.5528680000000  0.4421820000000  0.5093310000000 1.0
C      1  0.4890170000000  0.5583900000000  0.5547420000000 1.0
C      1  0.4460230000000  0.4415540000000  0.4886490000000 1.0
C      1  0.5506670000000  0.4592970000000  0.4532490000000 1.0
C      1  0.5451130000000  0.5429410000000  0.5535160000000 1.0
C      1  0.4479500000000  0.4593150000000  0.5453890000000 1.0
C      1  0.4588030000000  0.5393380000000  0.4514810000000 1.0
C      1  0.4978000000000  0.5237600000000  0.5478180000000 1.0
C      1  0.4573810000000  0.4782700000000  0.4944350000000 1.0
C      1  0.5154320000000  0.5282420000000  0.4622270000000 1.0
C      1  0.5461630000000  0.4760430000000  0.5005240000000 1.0
C      1  0.4661280000000  0.4949330000000  0.4694370000000 1.0
C      1  0.5235400000000  0.4992550000000  0.4529490000000 1.0
C      1  0.5364880000000  0.4918450000000  0.5265380000000 1.0
C      1  0.4731290000000  0.5070150000000  0.5361240000000 1.0
C      1  0.4561900000000  0.5169060000000  0.5908500000000 1.0
C      1  0.4107360000000  0.4827300000000  0.4553450000000 1.0
C      1  0.5441230000000  0.5186860000000  0.4068720000000 1.0
C      1  0.5896320000000  0.4836070000000  0.5424330000000 1.0
C      1  0.5721730000000  0.5507860000000  0.4710050000000 1.0
C      1  0.5283820000000  0.4500510000000  0.5744920000000 1.0
C      1  0.4239320000000  0.5507640000000  0.5294480000000 1.0
C      1  0.4652080000000  0.4405400000000  0.4226690000000 1.0
C      1  0.4558380000000  0.5891970000000  0.5260420000000 1.0
C      1  0.4743950000000  0.4108960000000  0.4542940000000 1.0
C      1  0.5447970000000  0.5923160000000  0.4771400000000 1.0
C      1  0.5246950000000  0.4111070000000  0.5428530000000 1.0
C      1  0.5107950000000  0.5515630000000  0.4024200000000 1.0
C      1  0.5974920000000  0.4522710000000  0.5091540000000 1.0
C      1  0.4886490000000  0.5488030000000  0.5994820000000 1.0
C      1  0.4015970000000  0.4528750000000  0.4893630000000 1.0
C      1  0.3825770000000  0.4982720000000  0.4950340000000 1.0
C      1  0.4984150000000  0.5038670000000  0.3884830000000 1.0
C      1  0.6162680000000  0.4982510000000  0.5022040000000 1.0
C      1  0.4961000000000  0.5026840000000  0.6181380000000 1.0
C      1  0.4994250000000  0.4854210000000  0.4380750000000 1.0
C      1  0.5545680000000  0.5129200000000  0.4988840000000 1.0
C      1  0.5000570000000  0.4897810000000  0.5588960000000 1.0
C      1  0.4426120000000  0.5064110000000  0.5005810000000 1.0
C      1  0.4784240000000  0.5023150000000  0.4209120000000 1.0
C      1  0.5744350000000  0.4984820000000  0.4749050000000 1.0
C      1  0.5243530000000  0.5031810000000  0.5772600000000 1.0
C      1  0.4224530000000  0.4977090000000  0.5244510000000 1.0
C      1  0.4517330000000  0.4896890000000  0.4278330000000 1.0
C      1  0.5667470000000  0.5086700000000  0.4484130000000 1.0
C      1  0.5506170000000  0.4919700000000  0.5685680000000 1.0
C      1  0.4314550000000  0.5085600000000  0.5507290000000 1.0
C      1  0.4462300000000  0.5423010000000  0.5787490000000 1.0
C      1  0.4223680000000  0.4569490000000  0.4462940000000 1.0
C      1  0.5537370000000  0.5437720000000  0.4207250000000 1.0
C      1  0.5775150000000  0.4581480000000  0.5520320000000 1.0
C      1  0.3965460000000  0.5108400000000  0.5159880000000 1.0
C      1  0.5036900000000  0.4778840000000  0.3955820000000 1.0
C      1  0.6006140000000  0.5112420000000  0.4827610000000 1.0
C      1  0.5158730000000  0.4897760000000  0.6028360000000 1.0
C      1  0.5155820000000  0.4593120000000  0.4135900000000 1.0
C      1  0.5814560000000  0.5385920000000  0.5180040000000 1.0
C      1  0.4811850000000  0.4618020000000  0.5842940000000 1.0
C      1  0.4189560000000  0.5357760000000  0.4820980000000 1.0
C      1  0.5137820000000  0.5732060000000  0.5657640000000 1.0
C      1  0.4356450000000  0.4291970000000  0.5142700000000 1.0
C      1  0.4863180000000  0.5727180000000  0.4379700000000 1.0
C      1  0.5635740000000  0.4282280000000  0.4843540000000 1.0
C      1  0.5343910000000  0.5328430000000  0.4855940000000 1.0
C      1  0.5156480000000  0.4728810000000  0.5389130000000 1.0
C      1  0.4617100000000  0.5257470000000  0.5148850000000 1.0
C      1  0.4838980000000  0.4718020000000  0.4598010000000 1.0
C      1  0.5082130000000  0.4624560000000  0.5929230000000 1.0
C      1  0.4070970000000  0.5378660000000  0.5081090000000 1.0
C      1  0.4945620000000  0.4426560000000  0.4284180000000 1.0
C      1  0.5902180000000  0.5381200000000  0.4910430000000 1.0
C      1  0.4645660000000  0.5667110000000  0.4568320000000 1.0
C      1  0.5446880000000  0.4331170000000  0.4624020000000 1.0
C      1  0.5363390000000  0.5693120000000  0.5471390000000 1.0
C      1  0.4546110000000  0.4332570000000  0.5363220000000 1.0
C      1  0.4739060000000  0.5310090000000  0.4284420000000 1.0
C      1  0.5744590000000  0.4688940000000  0.4673410000000 1.0
C      1  0.5301960000000  0.5330180000000  0.5764840000000 1.0
C      1  0.4234860000000  0.4686470000000  0.5323040000000 1.0
C      1  0.4834370000000  0.5200350000000  0.6003230000000 1.0
C      1  0.4012210000000  0.4812820000000  0.4830500000000 1.0
C      1  0.5162860000000  0.5230390000000  0.4003800000000 1.0
C      1  0.5986670000000  0.4808390000000  0.5150310000000 1.0
C      1  0.5772310000000  0.4398800000000  0.5283550000000 1.0
C      1  0.4696710000000  0.5608130000000  0.5788120000000 1.0
C      1  0.4213480000000  0.4399170000000  0.4706210000000 1.0
C      1  0.5309560000000  0.5631920000000  0.4221800000000 1.0
C      1  0.5173190000000  0.5446260000000  0.5064480000000 1.0
C      1  0.4977390000000  0.4578670000000  0.5189950000000 1.0
C      1  0.4813690000000  0.5429360000000  0.4983770000000 1.0
C      1  0.5031660000000  0.4587890000000  0.4805260000000 1.0
C      1  0.5656190000000  0.5287440000000  0.5388180000000 1.0
C      1  0.4605760000000  0.4717520000000  0.5680690000000 1.0
C      1  0.4357930000000  0.5259660000000  0.4616980000000 1.0
C      1  0.5414100000000  0.4686170000000  0.4273710000000 1.0
C      1  0.5160700000000  0.4309160000000  0.4707660000000 1.0
C      1  0.5287120000000  0.5727040000000  0.5184970000000 1.0
C      1  0.4831980000000  0.4292200000000  0.5284030000000 1.0
C      1  0.4716410000000  0.5719090000000  0.4849600000000 1.0
C      1  0.4490000000000  0.4618580000000  0.4343970000000 1.0
C      1  0.5683820000000  0.5366500000000  0.4457530000000 1.0
C      1  0.5536090000000  0.4638890000000  0.5696940000000 1.0
C      1  0.4295890000000  0.5364520000000  0.5542000000000 1.0
C      1  0.5162760000000  0.5554170000000  0.5899510000000 1.0
C      1  0.4114730000000  0.4463700000000  0.5170430000000 1.0
C      1  0.4839920000000  0.5549160000000  0.4145040000000 1.0
C      1  0.5875340000000  0.4461040000000  0.4815110000000 1.0
C      1  0.4317150000000  0.5014200000000  0.4468570000000 1.0
C      1  0.5516050000000  0.4969730000000  0.4258920000000 1.0
C      1  0.5704390000000  0.5035120000000  0.5510890000000 1.0
C      1  0.4488390000000  0.4973970000000  0.5709630000000 1.0
C      1  0.4969240000000  0.5880120000000  0.4873100000000 1.0
C      1  0.5136290000000  0.4144330000000  0.4955610000000 1.0
C      1  0.5028970000000  0.5871170000000  0.5159420000000 1.0
C      1  0.4854320000000  0.4137740000000  0.5027200000000 1.0
C      1  0.5027780000000  0.5009710000000  0.4985610000000 1.0
END
