TITL C-3577090-796-550 -1.46890292065317e-06 125000 -900.453466347893 0 0 143 (C1) n - 1
REM
REM in /home/bkarasulu/work/CARBON/AIRSS/Generating-Clusters/EDIP-Nigel-Params/with-SteepDescent/Higher-Symm/SD-CG/HFTN-CG
REM
REM
REM
REM
REM
REM ./C.cell (12c818d87b63d06a65506943cc24bca4)
REM
REM compiler GCC version 9.2.1 20190827 (Red Hat 9.2.1-1)
REM options -cpp -mtune=generic -march=x86-64 -g -O0 -fpre-include=/usr/include/finclude/math-vector-fortran.h
REM seed -613482529 -1811274953 -1286348372 568747753 1747076977 -1263790473 -1961741772 1146069917 631230903 -832451615 -1645701134 -1985784262 -1415957960 1491514818 -1039732564 1975397742 1276651354 -509253630 -1217045344 101569887 1772479455 443527374 1248546383 1394441590 -99289890 1990030167 607288506 1434855597 -762603566 666052598 606340225 827690724 -899938954
REM
CELL 1.54180   50.00000   50.00000   50.00000   90.00000   90.00000   90.00000
LATT -1
SFAC C  
C      1  0.5606860000000  0.4382380000000  0.5195930000000 1.0
C      1  0.5368070000000  0.5997930000000  0.4815160000000 1.0
C      1  0.4466640000000  0.5770160000000  0.4515620000000 1.0
C      1  0.5679610000000  0.4961660000000  0.5905610000000 1.0
C      1  0.4551260000000  0.4233360000000  0.5454580000000 1.0
C      1  0.5566820000000  0.5150660000000  0.4079860000000 1.0
C      1  0.5641030000000  0.5295760000000  0.5504270000000 1.0
C      1  0.5074810000000  0.5698090000000  0.4232500000000 1.0
C      1  0.4017270000000  0.4612180000000  0.5082310000000 1.0
C      1  0.4899690000000  0.4842220000000  0.5216360000000 1.0
C      1  0.5170710000000  0.4505120000000  0.4664370000000 1.0
C      1  0.5239070000000  0.4090380000000  0.5302120000000 1.0
C      1  0.5522100000000  0.4763530000000  0.5760320000000 1.0
C      1  0.4972300000000  0.5055730000000  0.5012220000000 1.0
C      1  0.4735110000000  0.5049120000000  0.5395130000000 1.0
C      1  0.4495650000000  0.5259850000000  0.4266130000000 1.0
C      1  0.5799280000000  0.5610240000000  0.5037510000000 1.0
C      1  0.4463010000000  0.5116000000000  0.6020510000000 1.0
C      1  0.4018020000000  0.5170730000000  0.5185530000000 1.0
C      1  0.5047730000000  0.5248400000000  0.5510250000000 1.0
C      1  0.4202780000000  0.5186890000000  0.4680330000000 1.0
C      1  0.5498110000000  0.4301550000000  0.5668730000000 1.0
C      1  0.4723810000000  0.4294920000000  0.5219640000000 1.0
C      1  0.5182330000000  0.5466770000000  0.6014510000000 1.0
C      1  0.4906940000000  0.5312340000000  0.4010700000000 1.0
C      1  0.5061750000000  0.5689940000000  0.5857780000000 1.0
C      1  0.5279090000000  0.5922170000000  0.5064700000000 1.0
C      1  0.4886050000000  0.6179300000000  0.5182920000000 1.0
C      1  0.5653330000000  0.4313170000000  0.4523400000000 1.0
C      1  0.5416130000000  0.5088580000000  0.5180970000000 1.0
C      1  0.5897170000000  0.4815520000000  0.4678330000000 1.0
C      1  0.5071940000000  0.5857550000000  0.4470570000000 1.0
C      1  0.5342470000000  0.5314240000000  0.5357020000000 1.0
C      1  0.4685660000000  0.5132700000000  0.4084410000000 1.0
C      1  0.4540710000000  0.4679140000000  0.4236100000000 1.0
C      1  0.4750850000000  0.4786390000000  0.5812420000000 1.0
C      1  0.5408290000000  0.4293450000000  0.4357310000000 1.0
C      1  0.4452220000000  0.4773040000000  0.4796380000000 1.0
C      1  0.5898930000000  0.4846980000000  0.5402170000000 1.0
C      1  0.5835470000000  0.5370920000000  0.4901560000000 1.0
C      1  0.5409280000000  0.4598900000000  0.5095270000000 1.0
C      1  0.5920420000000  0.5151430000000  0.5062050000000 1.0
C      1  0.5227940000000  0.4109310000000  0.4491420000000 1.0
C      1  0.4938280000000  0.4716750000000  0.3938780000000 1.0
C      1  0.5082600000000  0.4352840000000  0.4912170000000 1.0
C      1  0.4199730000000  0.4396030000000  0.5138560000000 1.0
C      1  0.4812890000000  0.5302420000000  0.5001430000000 1.0
C      1  0.4690210000000  0.4612050000000  0.4820210000000 1.0
C      1  0.4377890000000  0.5335700000000  0.5873910000000 1.0
C      1  0.5151880000000  0.6107920000000  0.5243920000000 1.0
C      1  0.4303550000000  0.4388090000000  0.5418830000000 1.0
C      1  0.4730660000000  0.3930020000000  0.4837920000000 1.0
C      1  0.5142800000000  0.5075290000000  0.4506140000000 1.0
C      1  0.4350090000000  0.5370390000000  0.5103280000000 1.0
C      1  0.5234780000000  0.4856040000000  0.5767760000000 1.0
C      1  0.4009500000000  0.4756220000000  0.4832220000000 1.0
C      1  0.4690910000000  0.4614080000000  0.5126550000000 1.0
C      1  0.5633450000000  0.4125210000000  0.4748410000000 1.0
C      1  0.4414890000000  0.4254770000000  0.4432960000000 1.0
C      1  0.4656400000000  0.5885140000000  0.4717560000000 1.0
C      1  0.5250850000000  0.5134770000000  0.4953610000000 1.0
C      1  0.4199800000000  0.5105320000000  0.5425290000000 1.0
C      1  0.5669930000000  0.4969810000000  0.4276020000000 1.0
C      1  0.5872080000000  0.5140780000000  0.5352830000000 1.0
C      1  0.4854720000000  0.4288660000000  0.4232620000000 1.0
C      1  0.4948840000000  0.4075940000000  0.4402160000000 1.0
C      1  0.4136390000000  0.5672610000000  0.5211030000000 1.0
C      1  0.4945540000000  0.5169970000000  0.6007560000000 1.0
C      1  0.5718090000000  0.4232430000000  0.4990320000000 1.0
C      1  0.5325350000000  0.5835890000000  0.4596550000000 1.0
C      1  0.4561620000000  0.5856540000000  0.4991630000000 1.0
C      1  0.5327920000000  0.4980830000000  0.4714960000000 1.0
C      1  0.4920700000000  0.4683390000000  0.4663760000000 1.0
C      1  0.5333430000000  0.5534740000000  0.4628170000000 1.0
C      1  0.4361380000000  0.4790450000000  0.5096740000000 1.0
C      1  0.4546370000000  0.4586720000000  0.5778360000000 1.0
C      1  0.5274730000000  0.5443640000000  0.4926630000000 1.0
C      1  0.5009080000000  0.4675450000000  0.5757300000000 1.0
C      1  0.4236960000000  0.5280840000000  0.5639520000000 1.0
C      1  0.6015170000000  0.4709640000000  0.5173890000000 1.0
C      1  0.5039140000000  0.4311000000000  0.5361300000000 1.0
C      1  0.4874360000000  0.5518000000000  0.5492390000000 1.0
C      1  0.4743230000000  0.5936260000000  0.5219000000000 1.0
C      1  0.5575010000000  0.5459910000000  0.4471650000000 1.0
C      1  0.4968810000000  0.3882880000000  0.4967980000000 1.0
C      1  0.4411990000000  0.4899420000000  0.5389340000000 1.0
C      1  0.5421990000000  0.4819830000000  0.5282410000000 1.0
C      1  0.4620820000000  0.5283680000000  0.5221050000000 1.0
C      1  0.4981490000000  0.4400700000000  0.5649820000000 1.0
C      1  0.4345510000000  0.4647930000000  0.5568270000000 1.0
C      1  0.4819560000000  0.5471440000000  0.4560330000000 1.0
C      1  0.5947640000000  0.4883230000000  0.4962390000000 1.0
C      1  0.5182620000000  0.5188110000000  0.4084320000000 1.0
C      1  0.4622270000000  0.5533120000000  0.4336740000000 1.0
C      1  0.4720640000000  0.4843330000000  0.4075670000000 1.0
C      1  0.5156120000000  0.5152120000000  0.5792680000000 1.0
C      1  0.4228240000000  0.4652530000000  0.4641130000000 1.0
C      1  0.5191000000000  0.5986090000000  0.5494730000000 1.0
C      1  0.4591400000000  0.4395950000000  0.4269540000000 1.0
C      1  0.5539540000000  0.4492640000000  0.5858300000000 1.0
C      1  0.5252110000000  0.5760720000000  0.5648740000000 1.0
C      1  0.4272020000000  0.5660120000000  0.4715750000000 1.0
C      1  0.4763580000000  0.3936500000000  0.4560920000000 1.0
C      1  0.5468590000000  0.5436650000000  0.5920730000000 1.0
C      1  0.5626990000000  0.4729310000000  0.5474660000000 1.0
C      1  0.4306610000000  0.4794820000000  0.4378530000000 1.0
C      1  0.4840450000000  0.5578740000000  0.4125990000000 1.0
C      1  0.4569830000000  0.5536970000000  0.5876460000000 1.0
C      1  0.5407860000000  0.4685640000000  0.4759250000000 1.0
C      1  0.4956540000000  0.4627690000000  0.4368110000000 1.0
C      1  0.5106720000000  0.5380430000000  0.4460490000000 1.0
C      1  0.4331320000000  0.5081440000000  0.4435820000000 1.0
C      1  0.5587970000000  0.5203740000000  0.5786120000000 1.0
C      1  0.4716120000000  0.5002820000000  0.5992970000000 1.0
C      1  0.4600180000000  0.4153730000000  0.4968940000000 1.0
C      1  0.4690160000000  0.4335110000000  0.5698060000000 1.0
C      1  0.5776300000000  0.5308640000000  0.4621100000000 1.0
C      1  0.4375500000000  0.5387690000000  0.4800180000000 1.0
C      1  0.3957800000000  0.5457530000000  0.5180960000000 1.0
C      1  0.4318750000000  0.4235790000000  0.4915210000000 1.0
C      1  0.4254280000000  0.4345770000000  0.4643010000000 1.0
C      1  0.4666130000000  0.5313540000000  0.4752910000000 1.0
C      1  0.4275620000000  0.5793980000000  0.4988190000000 1.0
C      1  0.5498750000000  0.4196870000000  0.5404410000000 1.0
C      1  0.5183530000000  0.4597020000000  0.3998150000000 1.0
C      1  0.5669180000000  0.4613890000000  0.4584820000000 1.0
C      1  0.4062040000000  0.5039560000000  0.4894740000000 1.0
C      1  0.4992230000000  0.5559170000000  0.4992880000000 1.0
C      1  0.5489950000000  0.5391950000000  0.4199110000000 1.0
C      1  0.4902960000000  0.5732710000000  0.4692430000000 1.0
C      1  0.5714040000000  0.5588200000000  0.5520770000000 1.0
C      1  0.5839370000000  0.5049340000000  0.4502450000000 1.0
C      1  0.4956240000000  0.5715400000000  0.5275000000000 1.0
C      1  0.5118350000000  0.4916710000000  0.4253190000000 1.0
C      1  0.5595540000000  0.4695700000000  0.4304690000000 1.0
C      1  0.5359520000000  0.4548550000000  0.4218240000000 1.0
C      1  0.5118850000000  0.4524580000000  0.5152780000000 1.0
C      1  0.4790120000000  0.5651650000000  0.5743840000000 1.0
C      1  0.5660870000000  0.5711100000000  0.5257920000000 1.0
C      1  0.5361480000000  0.4003340000000  0.4739360000000 1.0
C      1  0.5516910000000  0.5669640000000  0.5734250000000 1.0
C      1  0.5185120000000  0.4069960000000  0.4984010000000 1.0
C      1  0.5365960000000  0.5673080000000  0.5230290000000 1.0
END
