TITL C-3577079-311-610 -2.72927179856703e-06 125000 -273.1155606571 0 0 44 (C1) n - 1
REM
REM in /home/bkarasulu/work/CARBON/AIRSS/Generating-Clusters/EDIP-Nigel-Params/with-SteepDescent/Higher-Symm/SD-CG/HFTN-CG
REM
REM
REM
REM
REM
REM ./C.cell (12c818d87b63d06a65506943cc24bca4)
REM
REM compiler GCC version 9.2.1 20190827 (Red Hat 9.2.1-1)
REM options -cpp -mtune=generic -march=x86-64 -g -O0 -fpre-include=/usr/include/finclude/math-vector-fortran.h
REM seed 962154959 -1865583395 -1278037425 -1634554743 1325798916 1103176834 1947143690 2078423871 -988222782 -753687404 -432678501 -1507652002 -1419446607 -1207965230 2095215251 -733123108 655897784 -2051327317 -1674024897 320738560 231960295 602770459 318802287 460873216 1063581420 1110037919 -1311284422 334516084 515609509 -1735845459 887760383 1670030141 550675137
REM
CELL 1.54180   50.00000   50.00000   50.00000   90.00000   90.00000   90.00000
LATT -1
SFAC C  
C      1  0.5502590000000  0.4631750000000  0.4539440000000 1.0
C      1  0.5660580000000  0.5005010000000  0.4813010000000 1.0
C      1  0.5596430000000  0.4630380000000  0.5257420000000 1.0
C      1  0.5338140000000  0.4962460000000  0.5436470000000 1.0
C      1  0.4947090000000  0.4708790000000  0.5537050000000 1.0
C      1  0.4801660000000  0.4955250000000  0.5478210000000 1.0
C      1  0.4475760000000  0.4643320000000  0.5298550000000 1.0
C      1  0.4196930000000  0.4939500000000  0.5080470000000 1.0
C      1  0.4562430000000  0.4949670000000  0.4688060000000 1.0
C      1  0.4736720000000  0.4587710000000  0.4502700000000 1.0
C      1  0.5234840000000  0.5004490000000  0.4392740000000 1.0
C      1  0.5584650000000  0.4920650000000  0.5303030000000 1.0
C      1  0.5214800000000  0.5221450000000  0.5474810000000 1.0
C      1  0.4926010000000  0.5222620000000  0.5477610000000 1.0
C      1  0.4527520000000  0.4908410000000  0.5401860000000 1.0
C      1  0.4372740000000  0.5091050000000  0.5246770000000 1.0
C      1  0.4441390000000  0.5147620000000  0.4869960000000 1.0
C      1  0.4757510000000  0.4970650000000  0.4476160000000 1.0
C      1  0.4993570000000  0.5127690000000  0.4491930000000 1.0
C      1  0.5472810000000  0.5152780000000  0.4380090000000 1.0
C      1  0.5580220000000  0.5221910000000  0.4629560000000 1.0
C      1  0.5629020000000  0.5110460000000  0.5082570000000 1.0
C      1  0.4561860000000  0.4412810000000  0.5434510000000 1.0
C      1  0.4267190000000  0.4657000000000  0.5093320000000 1.0
C      1  0.4332800000000  0.4538340000000  0.4845370000000 1.0
C      1  0.4549860000000  0.4664220000000  0.4717640000000 1.0
C      1  0.5014770000000  0.4588600000000  0.4486620000000 1.0
C      1  0.5256510000000  0.4718970000000  0.4435300000000 1.0
C      1  0.5653600000000  0.4715390000000  0.4761360000000 1.0
C      1  0.5668140000000  0.4560770000000  0.4994540000000 1.0
C      1  0.5400390000000  0.4496890000000  0.5418440000000 1.0
C      1  0.5234220000000  0.4708720000000  0.5508990000000 1.0
C      1  0.4801630000000  0.4471630000000  0.5545750000000 1.0
C      1  0.4730970000000  0.5484090000000  0.4667090000000 1.0
C      1  0.4976860000000  0.5405490000000  0.4567540000000 1.0
C      1  0.5208550000000  0.5529910000000  0.4662110000000 1.0
C      1  0.5443530000000  0.5435200000000  0.4784390000000 1.0
C      1  0.5451300000000  0.5343990000000  0.5065890000000 1.0
C      1  0.5306780000000  0.5444110000000  0.5304860000000 1.0
C      1  0.5097250000000  0.5635680000000  0.5289390000000 1.0
C      1  0.4869190000000  0.5487380000000  0.5366500000000 1.0
C      1  0.4615740000000  0.5574510000000  0.5298150000000 1.0
C      1  0.4490330000000  0.5582840000000  0.5061430000000 1.0
C      1  0.4515160000000  0.5429870000000  0.4832310000000 1.0
END
