TITL C-3578195-8548-134 1.28465718011342e-06 125000 -493.854659836327 0 0 79 (C3) n - 1
REM
REM in /home/bkarasulu/work/CARBON/AIRSS/Generating-Clusters/EDIP-Nigel-Params/with-SteepDescent/Higher-Symm/SD-CG/HFTN-CG
REM
REM
REM
REM
REM
REM ./C.cell (12c818d87b63d06a65506943cc24bca4)
REM
REM compiler GCC version 9.2.1 20190827 (Red Hat 9.2.1-1)
REM options -cpp -mtune=generic -march=x86-64 -g -O0 -fpre-include=/usr/include/finclude/math-vector-fortran.h
REM seed -558484234 -1639437212 -1308354824 187195592 1943155822 642721497 1949288493 283468673 -1010796762 -1716905748 -1412630011 104122509 1388871145 -162851301 -665240017 392911382 -1288192970 -1160709357 -2098382532 1320308575 -982737290 -383580654 -275514829 -361951047 1632417796 -736269187 43936307 1312827657 141253373 1983134700 1062396921 1714200888 -1535487959
REM
CELL 1.54180   50.00000   50.00000   50.00000   90.00000   90.00000   90.00000
LATT -1
SFAC C  
C      1  0.5239350000000  0.4570350000000  0.5296470000000 1.0
C      1  0.4755710000000  0.4570470000000  0.4699590000000 1.0
C      1  0.4502310000000  0.5002290000000  0.5296470000000 1.0
C      1  0.4744230000000  0.5421000000000  0.4699540000000 1.0
C      1  0.5244900000000  0.5424620000000  0.5296420000000 1.0
C      1  0.5486560000000  0.5005680000000  0.4699540000000 1.0
C      1  0.4770720000000  0.5076120000000  0.4411100000000 1.0
C      1  0.4952620000000  0.5232910000000  0.5589260000000 1.0
C      1  0.5174630000000  0.5155140000000  0.4411080000000 1.0
C      1  0.5219470000000  0.4919360000000  0.5589270000000 1.0
C      1  0.5041110000000  0.4765830000000  0.4411110000000 1.0
C      1  0.4814500000000  0.4845030000000  0.5589290000000 1.0
C      1  0.4782190000000  0.4825760000000  0.5262710000000 1.0
C      1  0.4767890000000  0.5070870000000  0.4756680000000 1.0
C      1  0.4952080000000  0.5270490000000  0.5262670000000 1.0
C      1  0.5171500000000  0.5160260000000  0.4756660000000 1.0
C      1  0.5252280000000  0.4901000000000  0.5262690000000 1.0
C      1  0.5047110000000  0.4766030000000  0.4756690000000 1.0
C      1  0.5375640000000  0.4431410000000  0.5070730000000 1.0
C      1  0.4691490000000  0.4377190000000  0.4919670000000 1.0
C      1  0.4313840000000  0.4953700000000  0.5070740000000 1.0
C      1  0.4608960000000  0.5573280000000  0.4919600000000 1.0
C      1  0.5297050000000  0.5612100000000  0.5070670000000 1.0
C      1  0.5686070000000  0.5046710000000  0.4919600000000 1.0
C      1  0.4585500000000  0.5303080000000  0.5272600000000 1.0
C      1  0.5044060000000  0.5492990000000  0.4723260000000 1.0
C      1  0.5463800000000  0.5202170000000  0.5272570000000 1.0
C      1  0.5398990000000  0.4710030000000  0.4723290000000 1.0
C      1  0.4937260000000  0.4492000000000  0.5272630000000 1.0
C      1  0.4543460000000  0.4794130000000  0.4723320000000 1.0
C      1  0.4372210000000  0.5368450000000  0.4430270000000 1.0
C      1  0.5007290000000  0.5720890000000  0.5561380000000 1.0
C      1  0.5627060000000  0.5354100000000  0.4430230000000 1.0
C      1  0.5614740000000  0.4628020000000  0.5561420000000 1.0
C      1  0.4987210000000  0.4274540000000  0.4430310000000 1.0
C      1  0.4364560000000  0.4648390000000  0.5561460000000 1.0
C      1  0.5390830000000  0.4984790000000  0.4254010000000 1.0
C      1  0.5177570000000  0.4645230000000  0.5741940000000 1.0
C      1  0.4785490000000  0.4663760000000  0.4254050000000 1.0
C      1  0.4598050000000  0.5018410000000  0.5741930000000 1.0
C      1  0.4810140000000  0.5348520000000  0.4254000000000 1.0
C      1  0.5210990000000  0.5333700000000  0.5741890000000 1.0
C      1  0.5566780000000  0.4604200000000  0.4952240000000 1.0
C      1  0.4935140000000  0.4300260000000  0.5038840000000 1.0
C      1  0.4367910000000  0.4701760000000  0.4952270000000 1.0
C      1  0.4420510000000  0.5400760000000  0.5038790000000 1.0
C      1  0.5051830000000  0.5691230000000  0.4952190000000 1.0
C      1  0.5630880000000  0.5296190000000  0.5038760000000 1.0
C      1  0.5416240000000  0.4528180000000  0.4482450000000 1.0
C      1  0.4792530000000  0.4387410000000  0.5516700000000 1.0
C      1  0.4377350000000  0.4870080000000  0.4482470000000 1.0
C      1  0.4567280000000  0.5480740000000  0.5516640000000 1.0
C      1  0.5192890000000  0.5598840000000  0.4482400000000 1.0
C      1  0.5626760000000  0.5129140000000  0.5516620000000 1.0
C      1  0.4689710000000  0.5309320000000  0.5727360000000 1.0
C      1  0.5106090000000  0.5416390000000  0.4266220000000 1.0
C      1  0.5417100000000  0.5108860000000  0.5727350000000 1.0
C      1  0.5301630000000  0.4694550000000  0.4266260000000 1.0
C      1  0.4879800000000  0.4579150000000  0.5727400000000 1.0
C      1  0.4578730000000  0.4886130000000  0.4266270000000 1.0
C      1  0.5170010000000  0.4360270000000  0.4878050000000 1.0
C      1  0.4517170000000  0.4508270000000  0.5112950000000 1.0
C      1  0.4355050000000  0.5167330000000  0.4878030000000 1.0
C      1  0.4809640000000  0.5658730000000  0.5112870000000 1.0
C      1  0.5461460000000  0.5469580000000  0.4877970000000 1.0
C      1  0.5659730000000  0.4830210000000  0.5112890000000 1.0
C      1  0.5473690000000  0.5534020000000  0.4586280000000 1.0
C      1  0.5703700000000  0.4851240000000  0.5410450000000 1.0
C      1  0.5219700000000  0.4317420000000  0.4586360000000 1.0
C      1  0.4513400000000  0.4459710000000  0.5410510000000 1.0
C      1  0.4293090000000  0.5145680000000  0.4586350000000 1.0
C      1  0.4769470000000  0.5686310000000  0.5410430000000 1.0
C      1  0.4624880000000  0.5490770000000  0.4433300000000 1.0
C      1  0.5241880000000  0.5565600000000  0.5561370000000 1.0
C      1  0.5606650000000  0.5074120000000  0.4433290000000 1.0
C      1  0.5362950000000  0.4502510000000  0.5561430000000 1.0
C      1  0.4754930000000  0.4432210000000  0.4433360000000 1.0
C      1  0.4381750000000  0.4929200000000  0.5561440000000 1.0
C      1  0.4995510000000  0.4999070000000  0.5111700000000 1.0
END
