TITL C-3578195-8548-330 1.8120712904177e-06 125000 -245.295015161808 0 0 41 (C1) n - 1
REM
REM in /home/bkarasulu/work/CARBON/AIRSS/Generating-Clusters/EDIP-Nigel-Params/with-SteepDescent/Higher-Symm/SD-CG/HFTN-CG
REM
REM
REM
REM
REM
REM ./C.cell (12c818d87b63d06a65506943cc24bca4)
REM
REM compiler GCC version 9.2.1 20190827 (Red Hat 9.2.1-1)
REM options -cpp -mtune=generic -march=x86-64 -g -O0 -fpre-include=/usr/include/finclude/math-vector-fortran.h
REM seed -49936783 975028217 -1130662644 -316985484 1060610833 -649537780 -1012866418 -523254977 706762795 697799610 -1155841639 -1735322921 -614154906 2024697371 1103869826 1169635413 -1546819555 -834922085 -2038843864 -965693372 822314220 -559366915 -394920380 -2134657627 1056230174 1634741753 717349514 -169785530 -427956632 1481441198 -1360304165 811635649 -553192001
REM
CELL 1.54180   50.00000   50.00000   50.00000   90.00000   90.00000   90.00000
LATT -1
SFAC C  
C      1  0.5042400000000  0.4857170000000  0.5229660000000 1.0
C      1  0.4611730000000  0.4367800000000  0.5015440000000 1.0
C      1  0.4324010000000  0.5276530000000  0.5409840000000 1.0
C      1  0.4477200000000  0.5327160000000  0.5173640000000 1.0
C      1  0.5515560000000  0.5331730000000  0.5263680000000 1.0
C      1  0.4899990000000  0.5416630000000  0.5407390000000 1.0
C      1  0.5267460000000  0.4952170000000  0.5405500000000 1.0
C      1  0.5197190000000  0.4516410000000  0.5470950000000 1.0
C      1  0.4906650000000  0.5001480000000  0.4465880000000 1.0
C      1  0.4389080000000  0.5042480000000  0.5253800000000 1.0
C      1  0.5159790000000  0.5172760000000  0.4917110000000 1.0
C      1  0.5046790000000  0.4207480000000  0.5102670000000 1.0
C      1  0.4862930000000  0.4306310000000  0.4913080000000 1.0
C      1  0.5327710000000  0.5526360000000  0.5190130000000 1.0
C      1  0.5227090000000  0.4406740000000  0.5189460000000 1.0
C      1  0.5500680000000  0.5395610000000  0.4575060000000 1.0
C      1  0.5279060000000  0.5549050000000  0.4652080000000 1.0
C      1  0.4685190000000  0.4528120000000  0.5442860000000 1.0
C      1  0.5026760000000  0.5234090000000  0.4356100000000 1.0
C      1  0.4597420000000  0.5320420000000  0.4653690000000 1.0
C      1  0.4781410000000  0.5344520000000  0.5153040000000 1.0
C      1  0.4695480000000  0.5058650000000  0.4651180000000 1.0
C      1  0.4788430000000  0.5528870000000  0.4672300000000 1.0
C      1  0.4900960000000  0.5071120000000  0.5042150000000 1.0
C      1  0.5588280000000  0.5151650000000  0.4650740000000 1.0
C      1  0.5030030000000  0.5490470000000  0.4488120000000 1.0
C      1  0.4889080000000  0.5552280000000  0.4952140000000 1.0
C      1  0.5365970000000  0.4735050000000  0.4815730000000 1.0
C      1  0.5398720000000  0.4729270000000  0.5512760000000 1.0
C      1  0.4954290000000  0.4571460000000  0.4819880000000 1.0
C      1  0.5250900000000  0.4617430000000  0.4573390000000 1.0
C      1  0.5007570000000  0.4727780000000  0.4472230000000 1.0
C      1  0.5131860000000  0.5554160000000  0.5387060000000 1.0
C      1  0.5377870000000  0.5025320000000  0.4788840000000 1.0
C      1  0.4927880000000  0.4669650000000  0.5461870000000 1.0
C      1  0.4639480000000  0.4859440000000  0.4845590000000 1.0
C      1  0.5162090000000  0.4651700000000  0.5027150000000 1.0
C      1  0.4537130000000  0.4832000000000  0.5112340000000 1.0
C      1  0.5179190000000  0.5468190000000  0.4929290000000 1.0
C      1  0.5513390000000  0.5068040000000  0.5347140000000 1.0
C      1  0.4535310000000  0.4556440000000  0.5209020000000 1.0
END
