TITL C-3578204-4308-358 -1.41724361855518e-06 125000 -882.090876417243 0 0 143 (C1) n - 1
REM
REM in /home/bkarasulu/work/CARBON/AIRSS/Generating-Clusters/EDIP-Nigel-Params/with-SteepDescent/Higher-Symm/SD-CG/HFTN-CG
REM
REM
REM
REM
REM
REM ./C.cell (12c818d87b63d06a65506943cc24bca4)
REM
REM compiler GCC version 9.2.1 20190827 (Red Hat 9.2.1-1)
REM options -cpp -mtune=generic -march=x86-64 -g -O0 -fpre-include=/usr/include/finclude/math-vector-fortran.h
REM seed -934679947 -242874579 -1331158468 789295935 1947071260 557637687 112486006 -1750183130 1386387166 -1700390416 -507465216 -1751683148 833810668 -1681380362 800999123 1603057987 -646045883 -124559411 887941748 1528202698 -118803678 1363137751 1267908321 1376863678 -2030073542 -718197486 -1852892202 617595997 564568750 -1669544478 -354207288 1061886340 1558330442
REM
CELL 1.54180   50.00000   50.00000   50.00000   90.00000   90.00000   90.00000
LATT -1
SFAC C  
C      1  0.4385360000000  0.4722140000000  0.4574540000000 1.0
C      1  0.5200530000000  0.4761470000000  0.4314580000000 1.0
C      1  0.5765320000000  0.4779410000000  0.4991750000000 1.0
C      1  0.5256030000000  0.4731720000000  0.5723500000000 1.0
C      1  0.4405360000000  0.4722910000000  0.5436010000000 1.0
C      1  0.5368710000000  0.4037820000000  0.4828880000000 1.0
C      1  0.5226870000000  0.4132040000000  0.5292550000000 1.0
C      1  0.4662620000000  0.4079880000000  0.5348550000000 1.0
C      1  0.4539570000000  0.4004940000000  0.4932450000000 1.0
C      1  0.4976340000000  0.4061180000000  0.4627990000000 1.0
C      1  0.4743050000000  0.5845330000000  0.4743360000000 1.0
C      1  0.5168610000000  0.5910230000000  0.4611870000000 1.0
C      1  0.5321400000000  0.5899810000000  0.5053000000000 1.0
C      1  0.5026370000000  0.5828660000000  0.5390530000000 1.0
C      1  0.4814210000000  0.5846370000000  0.5166140000000 1.0
C      1  0.5374640000000  0.5595620000000  0.5000510000000 1.0
C      1  0.5143600000000  0.5559480000000  0.5377190000000 1.0
C      1  0.4707000000000  0.5559480000000  0.5223160000000 1.0
C      1  0.4666920000000  0.5561810000000  0.4782540000000 1.0
C      1  0.5084800000000  0.5621780000000  0.4575040000000 1.0
C      1  0.4531150000000  0.4309840000000  0.5700180000000 1.0
C      1  0.4104800000000  0.4350910000000  0.4720130000000 1.0
C      1  0.4975360000000  0.4337610000000  0.4174260000000 1.0
C      1  0.5822270000000  0.4368390000000  0.4717010000000 1.0
C      1  0.5540000000000  0.4337610000000  0.5654650000000 1.0
C      1  0.5586720000000  0.4466820000000  0.5393530000000 1.0
C      1  0.4778310000000  0.4453020000000  0.5723880000000 1.0
C      1  0.4232220000000  0.4415650000000  0.4985940000000 1.0
C      1  0.4735430000000  0.4474060000000  0.4249770000000 1.0
C      1  0.5563040000000  0.4470610000000  0.4619960000000 1.0
C      1  0.5588340000000  0.4788600000000  0.4567230000000 1.0
C      1  0.5627750000000  0.4775720000000  0.5433840000000 1.0
C      1  0.4796240000000  0.4756440000000  0.5720140000000 1.0
C      1  0.4239250000000  0.4737290000000  0.5014930000000 1.0
C      1  0.4727220000000  0.4772490000000  0.4276830000000 1.0
C      1  0.5545640000000  0.5182260000000  0.5165460000000 1.0
C      1  0.5083590000000  0.5113400000000  0.5491840000000 1.0
C      1  0.4520800000000  0.5124760000000  0.5166690000000 1.0
C      1  0.4669210000000  0.5110410000000  0.4640590000000 1.0
C      1  0.5308030000000  0.5196910000000  0.4529370000000 1.0
C      1  0.4618340000000  0.5847420000000  0.4445020000000 1.0
C      1  0.5456930000000  0.5854510000000  0.4511820000000 1.0
C      1  0.5722760000000  0.5856620000000  0.5244530000000 1.0
C      1  0.4923470000000  0.5840910000000  0.5671850000000 1.0
C      1  0.4309910000000  0.5831990000000  0.5203870000000 1.0
C      1  0.4409260000000  0.5145970000000  0.4156080000000 1.0
C      1  0.5641140000000  0.5136020000000  0.4207590000000 1.0
C      1  0.5994440000000  0.5122980000000  0.5379750000000 1.0
C      1  0.4966670000000  0.5132250000000  0.6015940000000 1.0
C      1  0.3995610000000  0.5106460000000  0.5289770000000 1.0
C      1  0.4043330000000  0.5370030000000  0.5146720000000 1.0
C      1  0.4560380000000  0.5406410000000  0.4171520000000 1.0
C      1  0.5661780000000  0.5401340000000  0.4360460000000 1.0
C      1  0.5865030000000  0.5388410000000  0.5445930000000 1.0
C      1  0.4844870000000  0.5389510000000  0.5908390000000 1.0
C      1  0.4566480000000  0.5970400000000  0.5316230000000 1.0
C      1  0.4499730000000  0.6008700000000  0.4779200000000 1.0
C      1  0.5031770000000  0.6071040000000  0.4408670000000 1.0
C      1  0.5603380000000  0.6006180000000  0.4981320000000 1.0
C      1  0.5275310000000  0.5983620000000  0.5340550000000 1.0
C      1  0.5145010000000  0.4827300000000  0.4808990000000 1.0
C      1  0.5251440000000  0.4818510000000  0.5074840000000 1.0
C      1  0.5062300000000  0.4679540000000  0.5255780000000 1.0
C      1  0.4788440000000  0.4656060000000  0.5093330000000 1.0
C      1  0.4891950000000  0.4670850000000  0.4789790000000 1.0
C      1  0.3985790000000  0.4597650000000  0.5355910000000 1.0
C      1  0.4327790000000  0.4641140000000  0.4114950000000 1.0
C      1  0.5587930000000  0.4606390000000  0.4161360000000 1.0
C      1  0.6037570000000  0.4598220000000  0.5382780000000 1.0
C      1  0.5019270000000  0.4618740000000  0.6080690000000 1.0
C      1  0.4508400000000  0.4302420000000  0.4934530000000 1.0
C      1  0.5043140000000  0.4359790000000  0.4746120000000 1.0
C      1  0.5347150000000  0.4346350000000  0.4850810000000 1.0
C      1  0.5331000000000  0.4404990000000  0.5192840000000 1.0
C      1  0.4712040000000  0.4360350000000  0.5143750000000 1.0
C      1  0.5040290000000  0.4825660000000  0.5529650000000 1.0
C      1  0.4505860000000  0.4820640000000  0.5161950000000 1.0
C      1  0.4677710000000  0.4819950000000  0.4581480000000 1.0
C      1  0.5303580000000  0.4899780000000  0.4568450000000 1.0
C      1  0.5531460000000  0.4889450000000  0.5164120000000 1.0
C      1  0.4873670000000  0.5877130000000  0.4280150000000 1.0
C      1  0.5668950000000  0.5845680000000  0.4730540000000 1.0
C      1  0.5510670000000  0.5855060000000  0.5469090000000 1.0
C      1  0.4626140000000  0.5845650000000  0.5600700000000 1.0
C      1  0.4301590000000  0.5834140000000  0.4902820000000 1.0
C      1  0.5431550000000  0.5613740000000  0.4307330000000 1.0
C      1  0.5859640000000  0.5585550000000  0.5198260000000 1.0
C      1  0.5064540000000  0.5589330000000  0.5805950000000 1.0
C      1  0.4204970000000  0.5566390000000  0.5335800000000 1.0
C      1  0.4450540000000  0.5582700000000  0.4399320000000 1.0
C      1  0.4194860000000  0.5146450000000  0.4712740000000 1.0
C      1  0.5016790000000  0.5171620000000  0.4127340000000 1.0
C      1  0.5843680000000  0.5178120000000  0.4762250000000 1.0
C      1  0.5493790000000  0.5156710000000  0.5737510000000 1.0
C      1  0.4468780000000  0.5144160000000  0.5658070000000 1.0
C      1  0.5200750000000  0.5232080000000  0.5733900000000 1.0
C      1  0.4345600000000  0.5206540000000  0.5401240000000 1.0
C      1  0.4419160000000  0.5218680000000  0.4530020000000 1.0
C      1  0.5276650000000  0.5262960000000  0.4226940000000 1.0
C      1  0.5824670000000  0.5227520000000  0.5048620000000 1.0
C      1  0.4434450000000  0.4410270000000  0.4260100000000 1.0
C      1  0.5466030000000  0.4406510000000  0.4332900000000 1.0
C      1  0.5859420000000  0.4406070000000  0.5262850000000 1.0
C      1  0.5024390000000  0.4393190000000  0.5892470000000 1.0
C      1  0.4161500000000  0.4376470000000  0.5301620000000 1.0
C      1  0.5510920000000  0.4866710000000  0.5687710000000 1.0
C      1  0.4534830000000  0.4864120000000  0.5651750000000 1.0
C      1  0.4198980000000  0.4855610000000  0.4750420000000 1.0
C      1  0.4976240000000  0.4892390000000  0.4193870000000 1.0
C      1  0.5796890000000  0.4898240000000  0.4737920000000 1.0
C      1  0.4008330000000  0.4827210000000  0.5190230000000 1.0
C      1  0.4497950000000  0.4871140000000  0.4111100000000 1.0
C      1  0.5677550000000  0.4849310000000  0.4286750000000 1.0
C      1  0.5918270000000  0.4845640000000  0.5455020000000 1.0
C      1  0.4873600000000  0.4852010000000  0.5995380000000 1.0
C      1  0.5823280000000  0.4492560000000  0.4979210000000 1.0
C      1  0.5279490000000  0.4438150000000  0.5720550000000 1.0
C      1  0.4416080000000  0.4428200000000  0.5464140000000 1.0
C      1  0.4330340000000  0.4434910000000  0.4551510000000 1.0
C      1  0.5171320000000  0.4467550000000  0.4336300000000 1.0
C      1  0.5065340000000  0.5294750000000  0.5255490000000 1.0
C      1  0.4784910000000  0.5291340000000  0.5116200000000 1.0
C      1  0.4823380000000  0.5307690000000  0.4807200000000 1.0
C      1  0.5125390000000  0.5357380000000  0.4723760000000 1.0
C      1  0.5288260000000  0.5311420000000  0.5039350000000 1.0
C      1  0.5380290000000  0.5584560000000  0.5562940000000 1.0
C      1  0.4562410000000  0.5567180000000  0.5490800000000 1.0
C      1  0.4369260000000  0.5561160000000  0.4786410000000 1.0
C      1  0.5037140000000  0.5618570000000  0.4278350000000 1.0
C      1  0.5642220000000  0.5579440000000  0.4871880000000 1.0
C      1  0.5643940000000  0.5351940000000  0.4655760000000 1.0
C      1  0.5573220000000  0.5340920000000  0.5516630000000 1.0
C      1  0.4658730000000  0.5352350000000  0.5682870000000 1.0
C      1  0.4260890000000  0.5313350000000  0.4944650000000 1.0
C      1  0.4851880000000  0.5388610000000  0.4208210000000 1.0
C      1  0.4912540000000  0.3927670000000  0.5357950000000 1.0
C      1  0.4470970000000  0.3927480000000  0.5197900000000 1.0
C      1  0.4845790000000  0.3976190000000  0.4895790000000 1.0
C      1  0.5224520000000  0.3931060000000  0.4607370000000 1.0
C      1  0.5288440000000  0.3912840000000  0.5089570000000 1.0
C      1  0.5072450000000  0.5983230000000  0.4898110000000 1.0
C      1  0.4957010000000  0.4234830000000  0.5033080000000 1.0
C      1  0.5003580000000  0.3804230000000  0.5100410000000 1.0
END
