TITL C-3578201-9217-665 5.45023398473519e-07 125000 -486.799852590267 0 0 79 (Cs) n - 1
REM
REM in /home/bkarasulu/work/CARBON/AIRSS/Generating-Clusters/EDIP-Nigel-Params/with-SteepDescent/Higher-Symm/SD-CG/HFTN-CG
REM
REM
REM
REM
REM
REM ./C.cell (12c818d87b63d06a65506943cc24bca4)
REM
REM compiler GCC version 9.2.1 20190827 (Red Hat 9.2.1-1)
REM options -cpp -mtune=generic -march=x86-64 -g -O0 -fpre-include=/usr/include/finclude/math-vector-fortran.h
REM seed 405909346 574912838 -1545382928 -1347474321 427025921 328317328 185960065 -1672188025 -914217282 -1890915781 -865873682 478813598 -875802370 1850279903 1567564787 -658457455 -330208975 707766249 -1838982446 -291407302 1483764733 -1865060726 -1683602095 605162656 -1180193822 413790361 -1876933782 1368023671 -853195820 1741098698 -2066573856 -18575383 -781934467
REM
CELL 1.54180   50.00000   50.00000   50.00000   90.00000   90.00000   90.00000
LATT -1
SFAC C  
C      1  0.5072840000000  0.5761160000000  0.5329050000000 1.0
C      1  0.5752650000000  0.5342760000000  0.5052740000000 1.0
C      1  0.5352910000000  0.5076360000000  0.5738230000000 1.0
C      1  0.4907250000000  0.4277920000000  0.5301500000000 1.0
C      1  0.5067370000000  0.4249260000000  0.4662940000000 1.0
C      1  0.4903510000000  0.5731720000000  0.4706620000000 1.0
C      1  0.4276120000000  0.4697280000000  0.5091160000000 1.0
C      1  0.5728470000000  0.4676070000000  0.4896520000000 1.0
C      1  0.4261590000000  0.5332860000000  0.4943140000000 1.0
C      1  0.4704960000000  0.4912090000000  0.5718730000000 1.0
C      1  0.5324220000000  0.4885330000000  0.4261090000000 1.0
C      1  0.4657310000000  0.5135380000000  0.4266510000000 1.0
C      1  0.5762420000000  0.5071510000000  0.5329050000000 1.0
C      1  0.5344090000000  0.5751360000000  0.5052740000000 1.0
C      1  0.5077650000000  0.5351650000000  0.5738230000000 1.0
C      1  0.4279170000000  0.4906060000000  0.5301500000000 1.0
C      1  0.4250530000000  0.5066180000000  0.4662940000000 1.0
C      1  0.5732970000000  0.4902190000000  0.4706620000000 1.0
C      1  0.4698470000000  0.4274900000000  0.5091160000000 1.0
C      1  0.4677390000000  0.5727240000000  0.4896530000000 1.0
C      1  0.5334050000000  0.4260300000000  0.4943140000000 1.0
C      1  0.4913320000000  0.4703710000000  0.5718730000000 1.0
C      1  0.4886620000000  0.5322970000000  0.4261090000000 1.0
C      1  0.5136600000000  0.4656040000000  0.4266510000000 1.0
C      1  0.4894890000000  0.4664700000000  0.4451060000000 1.0
C      1  0.4739480000000  0.4513320000000  0.4902660000000 1.0
C      1  0.4433700000000  0.4846280000000  0.4632230000000 1.0
C      1  0.5088630000000  0.5307360000000  0.4484720000000 1.0
C      1  0.4853580000000  0.5366720000000  0.5555960000000 1.0
C      1  0.5095260000000  0.4746510000000  0.5477830000000 1.0
C      1  0.5331680000000  0.5535350000000  0.4864820000000 1.0
C      1  0.4718940000000  0.5491370000000  0.5086260000000 1.0
C      1  0.5350760000000  0.4458750000000  0.5149410000000 1.0
C      1  0.5477260000000  0.5063000000000  0.4743460000000 1.0
C      1  0.4522940000000  0.5084710000000  0.5259520000000 1.0
C      1  0.5570240000000  0.4857040000000  0.5342450000000 1.0
C      1  0.4665950000000  0.4893660000000  0.4451060000000 1.0
C      1  0.4514550000000  0.4738260000000  0.4902660000000 1.0
C      1  0.4847480000000  0.4432460000000  0.4632230000000 1.0
C      1  0.5308620000000  0.5087340000000  0.4484720000000 1.0
C      1  0.5367970000000  0.4852290000000  0.5555960000000 1.0
C      1  0.4747770000000  0.5094030000000  0.5477830000000 1.0
C      1  0.5536640000000  0.5330380000000  0.4864820000000 1.0
C      1  0.5492600000000  0.4717630000000  0.5086260000000 1.0
C      1  0.4460040000000  0.5349550000000  0.5149410000000 1.0
C      1  0.5064300000000  0.5476000000000  0.4743460000000 1.0
C      1  0.5085920000000  0.4521680000000  0.5259520000000 1.0
C      1  0.4858350000000  0.5568990000000  0.5342450000000 1.0
C      1  0.4756060000000  0.5765150000000  0.4457940000000 1.0
C      1  0.5715690000000  0.4459200000000  0.4699870000000 1.0
C      1  0.4470610000000  0.4738380000000  0.5734950000000 1.0
C      1  0.5308450000000  0.4240540000000  0.4498680000000 1.0
C      1  0.4733850000000  0.4266790000000  0.5534550000000 1.0
C      1  0.5311280000000  0.5737250000000  0.5496510000000 1.0
C      1  0.4250730000000  0.5512480000000  0.4715590000000 1.0
C      1  0.5739340000000  0.5520120000000  0.5286450000000 1.0
C      1  0.4263510000000  0.4463640000000  0.5265500000000 1.0
C      1  0.5521280000000  0.5311760000000  0.5707400000000 1.0
C      1  0.4443890000000  0.5332840000000  0.4290510000000 1.0
C      1  0.5574580000000  0.4740340000000  0.4249880000000 1.0
C      1  0.5766380000000  0.4754730000000  0.4457940000000 1.0
C      1  0.4460530000000  0.5714480000000  0.4699880000000 1.0
C      1  0.4739590000000  0.4469380000000  0.5734950000000 1.0
C      1  0.4241830000000  0.5307270000000  0.4498680000000 1.0
C      1  0.4268030000000  0.4732660000000  0.5534550000000 1.0
C      1  0.5738530000000  0.5309950000000  0.5496500000000 1.0
C      1  0.5513660000000  0.4249430000000  0.4715590000000 1.0
C      1  0.5521450000000  0.5738030000000  0.5286450000000 1.0
C      1  0.4464830000000  0.4262300000000  0.5265500000000 1.0
C      1  0.5313060000000  0.5519990000000  0.5707400000000 1.0
C      1  0.5334040000000  0.4442600000000  0.4290510000000 1.0
C      1  0.4741650000000  0.5573350000000  0.4249880000000 1.0
C      1  0.4981870000000  0.4980620000000  0.4663820000000 1.0
C      1  0.4976500000000  0.4975250000000  0.5332940000000 1.0
C      1  0.4968300000000  0.4655710000000  0.5026490000000 1.0
C      1  0.4656960000000  0.4967080000000  0.5026500000000 1.0
C      1  0.4915170000000  0.5312160000000  0.4943640000000 1.0
C      1  0.5313410000000  0.4913880000000  0.4943640000000 1.0
C      1  0.4979880000000  0.4978630000000  0.5011360000000 1.0
END
