TITL C-3577089-586-357 -5.17020903699303e-06 125000 -1144.54417443089 0 0 183 (C1) n - 1
REM
REM in /home/bkarasulu/work/CARBON/AIRSS/Generating-Clusters/EDIP-Nigel-Params/with-SteepDescent/Higher-Symm/SD-CG/HFTN-CG
REM
REM
REM
REM
REM
REM ./C.cell (12c818d87b63d06a65506943cc24bca4)
REM
REM compiler GCC version 9.2.1 20190827 (Red Hat 9.2.1-1)
REM options -cpp -mtune=generic -march=x86-64 -g -O0 -fpre-include=/usr/include/finclude/math-vector-fortran.h
REM seed -157003875 2013088849 1280773246 -581838747 -1687884260 -1241334230 1225656364 -1315564795 1686133799 -571801769 1965868687 993463124 -1561329965 952091926 487590164 -645522983 1852082501 320657955 -1317037599 757401917 -1954142310 1225780877 -36957818 -434240968 -1753027020 -2085112897 -1771132818 -1564657194 277477254 2029891572 2055056568 -1107332223 -12924278
REM
CELL 1.54180   50.00000   50.00000   50.00000   90.00000   90.00000   90.00000
LATT -1
SFAC C  
C      1  0.5222650000000  0.6088310000000  0.4744580000000 1.0
C      1  0.5257600000000  0.6252930000000  0.4968940000000 1.0
C      1  0.5168750000000  0.6195880000000  0.5227880000000 1.0
C      1  0.4903040000000  0.6287930000000  0.5234570000000 1.0
C      1  0.4701740000000  0.6175190000000  0.5070920000000 1.0
C      1  0.4749790000000  0.6185130000000  0.4774660000000 1.0
C      1  0.4967530000000  0.6078940000000  0.4599530000000 1.0
C      1  0.5580350000000  0.4798520000000  0.5288530000000 1.0
C      1  0.5130450000000  0.4775920000000  0.5651330000000 1.0
C      1  0.4592960000000  0.4774820000000  0.5507550000000 1.0
C      1  0.4379070000000  0.4788440000000  0.4963170000000 1.0
C      1  0.4620890000000  0.4744290000000  0.4450410000000 1.0
C      1  0.5157800000000  0.4753600000000  0.4380220000000 1.0
C      1  0.5615010000000  0.4741620000000  0.4732720000000 1.0
C      1  0.4453360000000  0.4107660000000  0.5428210000000 1.0
C      1  0.4289460000000  0.4192970000000  0.4858190000000 1.0
C      1  0.4722150000000  0.4137630000000  0.4358210000000 1.0
C      1  0.5309630000000  0.4123160000000  0.4359530000000 1.0
C      1  0.5713820000000  0.4183440000000  0.4824640000000 1.0
C      1  0.5553110000000  0.4123730000000  0.5423270000000 1.0
C      1  0.4998570000000  0.4149640000000  0.5706460000000 1.0
C      1  0.5683210000000  0.4516760000000  0.4515580000000 1.0
C      1  0.5743260000000  0.4523910000000  0.5231300000000 1.0
C      1  0.5322750000000  0.4531590000000  0.5720520000000 1.0
C      1  0.4616920000000  0.4505260000000  0.5676660000000 1.0
C      1  0.4222110000000  0.4553950000000  0.5105340000000 1.0
C      1  0.4427920000000  0.4489120000000  0.4467920000000 1.0
C      1  0.5050100000000  0.4501370000000  0.4220760000000 1.0
C      1  0.4769100000000  0.5298890000000  0.5254100000000 1.0
C      1  0.4569760000000  0.5261060000000  0.5028330000000 1.0
C      1  0.4738520000000  0.5185830000000  0.4784650000000 1.0
C      1  0.5193740000000  0.5183430000000  0.4648120000000 1.0
C      1  0.5483450000000  0.5233460000000  0.4759450000000 1.0
C      1  0.5295310000000  0.5320290000000  0.5089050000000 1.0
C      1  0.5061790000000  0.5387070000000  0.5255620000000 1.0
C      1  0.5988440000000  0.4766710000000  0.4230270000000 1.0
C      1  0.6191290000000  0.4703080000000  0.5286370000000 1.0
C      1  0.5543470000000  0.4750810000000  0.6088550000000 1.0
C      1  0.4450920000000  0.4679500000000  0.6093560000000 1.0
C      1  0.3851400000000  0.4829280000000  0.5241870000000 1.0
C      1  0.4028880000000  0.4677290000000  0.4259520000000 1.0
C      1  0.4962790000000  0.4700630000000  0.3779500000000 1.0
C      1  0.4027330000000  0.4275630000000  0.4781470000000 1.0
C      1  0.4603840000000  0.4214350000000  0.4111130000000 1.0
C      1  0.5389100000000  0.4174200000000  0.4090230000000 1.0
C      1  0.5984520000000  0.4266460000000  0.4787250000000 1.0
C      1  0.5786100000000  0.4180560000000  0.5574340000000 1.0
C      1  0.4998120000000  0.4250970000000  0.5970420000000 1.0
C      1  0.4269320000000  0.4155000000000  0.5640110000000 1.0
C      1  0.5601610000000  0.4247860000000  0.5121530000000 1.0
C      1  0.5277210000000  0.4233200000000  0.5554250000000 1.0
C      1  0.4738770000000  0.4230510000000  0.5540280000000 1.0
C      1  0.4340280000000  0.4195310000000  0.5159240000000 1.0
C      1  0.4518380000000  0.4233830000000  0.4632900000000 1.0
C      1  0.5013370000000  0.4248560000000  0.4396300000000 1.0
C      1  0.5533700000000  0.4175900000000  0.4565610000000 1.0
C      1  0.5651610000000  0.5044410000000  0.5121440000000 1.0
C      1  0.5246710000000  0.5067930000000  0.5684090000000 1.0
C      1  0.4689740000000  0.5035780000000  0.5639570000000 1.0
C      1  0.4310120000000  0.5069600000000  0.5070050000000 1.0
C      1  0.4429130000000  0.4989640000000  0.4483200000000 1.0
C      1  0.5100120000000  0.4999480000000  0.4204050000000 1.0
C      1  0.5675340000000  0.5028990000000  0.4612370000000 1.0
C      1  0.4619750000000  0.5431140000000  0.4216640000000 1.0
C      1  0.5293570000000  0.5437820000000  0.4196310000000 1.0
C      1  0.5751190000000  0.5506570000000  0.4984730000000 1.0
C      1  0.5657010000000  0.5367990000000  0.5478010000000 1.0
C      1  0.4879660000000  0.5483670000000  0.5691490000000 1.0
C      1  0.4376400000000  0.5429160000000  0.5614500000000 1.0
C      1  0.4372820000000  0.5473950000000  0.4697180000000 1.0
C      1  0.5994760000000  0.4591400000000  0.5087250000000 1.0
C      1  0.5579020000000  0.4663170000000  0.5798680000000 1.0
C      1  0.4705040000000  0.4584550000000  0.5952950000000 1.0
C      1  0.4090400000000  0.4675750000000  0.5338820000000 1.0
C      1  0.4154620000000  0.4604820000000  0.4524860000000 1.0
C      1  0.4831610000000  0.4583000000000  0.4024910000000 1.0
C      1  0.5716780000000  0.4631710000000  0.4239220000000 1.0
C      1  0.4362000000000  0.5340000000000  0.5919780000000 1.0
C      1  0.4051700000000  0.5474200000000  0.5222970000000 1.0
C      1  0.4303410000000  0.5356050000000  0.4228100000000 1.0
C      1  0.5110990000000  0.5387200000000  0.3945010000000 1.0
C      1  0.5790760000000  0.5423840000000  0.4401040000000 1.0
C      1  0.5964130000000  0.5347200000000  0.5438330000000 1.0
C      1  0.5080360000000  0.5216420000000  0.5890730000000 1.0
C      1  0.5257020000000  0.5696060000000  0.4344690000000 1.0
C      1  0.5648850000000  0.5762240000000  0.5103200000000 1.0
C      1  0.5591860000000  0.5659290000000  0.5533820000000 1.0
C      1  0.4825030000000  0.5770990000000  0.5608590000000 1.0
C      1  0.4393070000000  0.5719400000000  0.5520220000000 1.0
C      1  0.4484520000000  0.5743920000000  0.4656400000000 1.0
C      1  0.4707620000000  0.5717490000000  0.4274460000000 1.0
C      1  0.4972030000000  0.5811410000000  0.4405960000000 1.0
C      1  0.5425310000000  0.5696850000000  0.4589750000000 1.0
C      1  0.5731820000000  0.5831030000000  0.5361910000000 1.0
C      1  0.5302510000000  0.5723100000000  0.5547150000000 1.0
C      1  0.4570830000000  0.5874040000000  0.5665690000000 1.0
C      1  0.4418140000000  0.5757560000000  0.5225610000000 1.0
C      1  0.4492240000000  0.5844910000000  0.4395820000000 1.0
C      1  0.4333970000000  0.4421880000000  0.5713650000000 1.0
C      1  0.3995420000000  0.4519730000000  0.4927560000000 1.0
C      1  0.4391960000000  0.4382490000000  0.4197030000000 1.0
C      1  0.5270240000000  0.4428070000000  0.4040420000000 1.0
C      1  0.5961480000000  0.4462110000000  0.4582920000000 1.0
C      1  0.5834030000000  0.4452270000000  0.5505380000000 1.0
C      1  0.5230390000000  0.4412390000000  0.5976890000000 1.0
C      1  0.5672540000000  0.4876620000000  0.5608530000000 1.0
C      1  0.4923570000000  0.4783560000000  0.5942850000000 1.0
C      1  0.4271240000000  0.4835530000000  0.5507220000000 1.0
C      1  0.4239980000000  0.4854640000000  0.4670140000000 1.0
C      1  0.4665920000000  0.4794020000000  0.4148660000000 1.0
C      1  0.5490680000000  0.4818470000000  0.4188410000000 1.0
C      1  0.5917130000000  0.4788330000000  0.4878190000000 1.0
C      1  0.5903480000000  0.5069380000000  0.4999650000000 1.0
C      1  0.5545420000000  0.5141200000000  0.5683260000000 1.0
C      1  0.4811930000000  0.5058170000000  0.5898010000000 1.0
C      1  0.4279350000000  0.5079170000000  0.5360990000000 1.0
C      1  0.4027190000000  0.5168290000000  0.4637100000000 1.0
C      1  0.4816680000000  0.5039000000000  0.4164240000000 1.0
C      1  0.5557880000000  0.5053420000000  0.4337630000000 1.0
C      1  0.6000360000000  0.5042540000000  0.4147940000000 1.0
C      1  0.6238330000000  0.4996540000000  0.5276130000000 1.0
C      1  0.5502440000000  0.5047830000000  0.6132060000000 1.0
C      1  0.4405100000000  0.4977130000000  0.6176350000000 1.0
C      1  0.3810230000000  0.5106960000000  0.5334580000000 1.0
C      1  0.3991310000000  0.4961400000000  0.4248790000000 1.0
C      1  0.4920340000000  0.4993870000000  0.3737590000000 1.0
C      1  0.5207580000000  0.5095060000000  0.6159650000000 1.0
C      1  0.4187590000000  0.5087590000000  0.5991800000000 1.0
C      1  0.3852450000000  0.5293560000000  0.5111560000000 1.0
C      1  0.4272160000000  0.5047070000000  0.4221270000000 1.0
C      1  0.5169550000000  0.5132710000000  0.3790820000000 1.0
C      1  0.6009390000000  0.5206830000000  0.4380500000000 1.0
C      1  0.6123740000000  0.5106420000000  0.5520880000000 1.0
C      1  0.5630060000000  0.5487990000000  0.4665250000000 1.0
C      1  0.5573280000000  0.5315780000000  0.5184680000000 1.0
C      1  0.5139740000000  0.5465130000000  0.5534540000000 1.0
C      1  0.4667030000000  0.5309900000000  0.5535080000000 1.0
C      1  0.4296760000000  0.5537230000000  0.5063620000000 1.0
C      1  0.4567160000000  0.5259720000000  0.4567210000000 1.0
C      1  0.5157960000000  0.5239310000000  0.4361130000000 1.0
C      1  0.5631390000000  0.5214930000000  0.5947080000000 1.0
C      1  0.4608540000000  0.5182880000000  0.6084080000000 1.0
C      1  0.4121870000000  0.5300430000000  0.5462270000000 1.0
C      1  0.4153950000000  0.5402280000000  0.4503940000000 1.0
C      1  0.4799660000000  0.5272970000000  0.3982060000000 1.0
C      1  0.5582090000000  0.5322220000000  0.4199550000000 1.0
C      1  0.6045230000000  0.5306180000000  0.5137510000000 1.0
C      1  0.4805380000000  0.4881420000000  0.4743500000000 1.0
C      1  0.5119460000000  0.4874790000000  0.4677780000000 1.0
C      1  0.5325290000000  0.4758730000000  0.4871470000000 1.0
C      1  0.5298430000000  0.4782530000000  0.5171320000000 1.0
C      1  0.5062700000000  0.4764640000000  0.5349330000000 1.0
C      1  0.4780060000000  0.4776280000000  0.5264100000000 1.0
C      1  0.4677530000000  0.4761040000000  0.4986360000000 1.0
C      1  0.3839740000000  0.4774910000000  0.4953430000000 1.0
C      1  0.4236170000000  0.4593860000000  0.4050000000000 1.0
C      1  0.5253300000000  0.4625450000000  0.3811870000000 1.0
C      1  0.6119920000000  0.4711620000000  0.4496940000000 1.0
C      1  0.6075680000000  0.4622970000000  0.5556410000000 1.0
C      1  0.5295620000000  0.4608560000000  0.6190410000000 1.0
C      1  0.4215360000000  0.4595190000000  0.5921920000000 1.0
C      1  0.4877220000000  0.4264840000000  0.5288620000000 1.0
C      1  0.4743920000000  0.4331620000000  0.5060510000000 1.0
C      1  0.4755970000000  0.4282070000000  0.4793190000000 1.0
C      1  0.4997190000000  0.4336570000000  0.4668260000000 1.0
C      1  0.5219030000000  0.4335020000000  0.4825930000000 1.0
C      1  0.5317360000000  0.4269310000000  0.5072840000000 1.0
C      1  0.5155200000000  0.4283450000000  0.5299410000000 1.0
C      1  0.5198540000000  0.5892360000000  0.5294650000000 1.0
C      1  0.4907260000000  0.5795240000000  0.5321080000000 1.0
C      1  0.4678460000000  0.5879330000000  0.5132220000000 1.0
C      1  0.4721150000000  0.5805980000000  0.4829970000000 1.0
C      1  0.4979480000000  0.5649790000000  0.4763820000000 1.0
C      1  0.5251840000000  0.5798420000000  0.4799750000000 1.0
C      1  0.5357490000000  0.5757980000000  0.5072830000000 1.0
C      1  0.5340890000000  0.4897990000000  0.3911200000000 1.0
C      1  0.6062810000000  0.5007490000000  0.4595610000000 1.0
C      1  0.5973150000000  0.4887040000000  0.5652880000000 1.0
C      1  0.5084320000000  0.4819700000000  0.6194980000000 1.0
C      1  0.4141270000000  0.4857130000000  0.5793580000000 1.0
C      1  0.4009590000000  0.5110220000000  0.4936610000000 1.0
C      1  0.4399620000000  0.4848530000000  0.4023710000000 1.0
C      1  0.4983700000000  0.5347270000000  0.4781260000000 1.0
END
