TITL C-3578199-7832-500 -3.85929329327837e-06 125000 -775.643418318598 0 0 123 (C1) n - 1
REM
REM in /home/bkarasulu/work/CARBON/AIRSS/Generating-Clusters/EDIP-Nigel-Params/with-SteepDescent/Higher-Symm/SD-CG/HFTN-CG
REM
REM
REM
REM
REM
REM ./C.cell (12c818d87b63d06a65506943cc24bca4)
REM
REM compiler GCC version 9.2.1 20190827 (Red Hat 9.2.1-1)
REM options -cpp -mtune=generic -march=x86-64 -g -O0 -fpre-include=/usr/include/finclude/math-vector-fortran.h
REM seed -62522744 643952629 711518004 785927002 -1003189194 181248162 -1932600002 -271992971 870534766 -470003923 1134318622 -1278885147 7054169 156982882 -1800624000 664494533 863988420 254115328 -473678058 -1705901959 1438688095 -2066703900 -1948572585 -220741230 -115729138 520306661 -778038197 1327724595 152621638 1707715533 1516732607 1393253801 1059064434
REM
CELL 1.54180   50.00000   50.00000   50.00000   90.00000   90.00000   90.00000
LATT -1
SFAC C  
C      1  0.5836460000000  0.5228560000000  0.5038810000000 1.0
C      1  0.4385820000000  0.5626770000000  0.5083910000000 1.0
C      1  0.4748440000000  0.4201620000000  0.5023700000000 1.0
C      1  0.5831940000000  0.4754660000000  0.5041280000000 1.0
C      1  0.4414040000000  0.4392050000000  0.5041680000000 1.0
C      1  0.4777310000000  0.5818550000000  0.5031020000000 1.0
C      1  0.4264460000000  0.4448650000000  0.5294920000000 1.0
C      1  0.5848980000000  0.4607970000000  0.5283790000000 1.0
C      1  0.4896870000000  0.5915730000000  0.5272620000000 1.0
C      1  0.4246550000000  0.5562490000000  0.5330000000000 1.0
C      1  0.5856220000000  0.5377200000000  0.5279920000000 1.0
C      1  0.4870730000000  0.4097410000000  0.5274160000000 1.0
C      1  0.5007490000000  0.5527190000000  0.5675470000000 1.0
C      1  0.4546020000000  0.4742620000000  0.5688890000000 1.0
C      1  0.5453210000000  0.4728930000000  0.5676380000000 1.0
C      1  0.4999190000000  0.4475690000000  0.5675020000000 1.0
C      1  0.4548380000000  0.5264410000000  0.5690940000000 1.0
C      1  0.5457860000000  0.5264510000000  0.5674270000000 1.0
C      1  0.4719470000000  0.4848340000000  0.4444870000000 1.0
C      1  0.5255620000000  0.4845560000000  0.4465580000000 1.0
C      1  0.5004080000000  0.5300140000000  0.4469620000000 1.0
C      1  0.4733310000000  0.5153080000000  0.4423900000000 1.0
C      1  0.5262660000000  0.5144760000000  0.4463170000000 1.0
C      1  0.4990140000000  0.4694040000000  0.4476140000000 1.0
C      1  0.5611460000000  0.4416660000000  0.4770070000000 1.0
C      1  0.5145560000000  0.5721450000000  0.4749560000000 1.0
C      1  0.4176970000000  0.4755750000000  0.4816120000000 1.0
C      1  0.5627430000000  0.5570070000000  0.4762180000000 1.0
C      1  0.5129540000000  0.4284250000000  0.4763420000000 1.0
C      1  0.4163360000000  0.5275570000000  0.4843700000000 1.0
C      1  0.4715450000000  0.4835790000000  0.5443620000000 1.0
C      1  0.5292920000000  0.4840680000000  0.5436830000000 1.0
C      1  0.4986990000000  0.5330840000000  0.5437650000000 1.0
C      1  0.4710290000000  0.5179360000000  0.5439630000000 1.0
C      1  0.5295730000000  0.5155370000000  0.5435170000000 1.0
C      1  0.4987420000000  0.4675740000000  0.5437030000000 1.0
C      1  0.5826180000000  0.4620220000000  0.4785930000000 1.0
C      1  0.4895020000000  0.5884620000000  0.4769990000000 1.0
C      1  0.4275930000000  0.4475230000000  0.4791000000000 1.0
C      1  0.5835320000000  0.5359880000000  0.4781660000000 1.0
C      1  0.4888560000000  0.4112060000000  0.4768220000000 1.0
C      1  0.4282570000000  0.5548970000000  0.4822810000000 1.0
C      1  0.5919890000000  0.5249850000000  0.5519600000000 1.0
C      1  0.4314560000000  0.5684120000000  0.5572430000000 1.0
C      1  0.4741020000000  0.4085760000000  0.5520900000000 1.0
C      1  0.5916660000000  0.4735000000000  0.5522580000000 1.0
C      1  0.4326920000000  0.4325390000000  0.5536700000000 1.0
C      1  0.4759820000000  0.5916790000000  0.5515600000000 1.0
C      1  0.4743660000000  0.4852850000000  0.5902410000000 1.0
C      1  0.5261970000000  0.4846730000000  0.5891450000000 1.0
C      1  0.5008890000000  0.5301390000000  0.5892860000000 1.0
C      1  0.4746190000000  0.5150690000000  0.5901080000000 1.0
C      1  0.5264040000000  0.5150340000000  0.5889640000000 1.0
C      1  0.5004660000000  0.4698520000000  0.5895670000000 1.0
C      1  0.5035960000000  0.4478530000000  0.4266120000000 1.0
C      1  0.5445930000000  0.5269530000000  0.4253220000000 1.0
C      1  0.4586510000000  0.5249780000000  0.4177460000000 1.0
C      1  0.5048100000000  0.5515250000000  0.4262710000000 1.0
C      1  0.5437970000000  0.4712490000000  0.4257470000000 1.0
C      1  0.4574630000000  0.4742420000000  0.4205650000000 1.0
C      1  0.4987110000000  0.4714860000000  0.4943840000000 1.0
C      1  0.5281160000000  0.5155120000000  0.4936440000000 1.0
C      1  0.4706750000000  0.5172860000000  0.4925350000000 1.0
C      1  0.4987850000000  0.5299980000000  0.4947640000000 1.0
C      1  0.5278430000000  0.4843910000000  0.4936470000000 1.0
C      1  0.4708450000000  0.4865610000000  0.4933580000000 1.0
C      1  0.5001600000000  0.5458050000000  0.4716460000000 1.0
C      1  0.4543300000000  0.4800130000000  0.4690050000000 1.0
C      1  0.5416600000000  0.4741510000000  0.4691960000000 1.0
C      1  0.4986480000000  0.4543270000000  0.4723270000000 1.0
C      1  0.4563390000000  0.5247180000000  0.4650440000000 1.0
C      1  0.5422240000000  0.5250270000000  0.4689520000000 1.0
C      1  0.4177450000000  0.5146980000000  0.5102670000000 1.0
C      1  0.5252220000000  0.4274370000000  0.5041240000000 1.0
C      1  0.5538240000000  0.5651620000000  0.5032850000000 1.0
C      1  0.4144430000000  0.4868580000000  0.5088370000000 1.0
C      1  0.5276330000000  0.5740400000000  0.5026750000000 1.0
C      1  0.5521150000000  0.4339390000000  0.5041920000000 1.0
C      1  0.5714650000000  0.5137620000000  0.4296100000000 1.0
C      1  0.4556440000000  0.5537500000000  0.4208300000000 1.0
C      1  0.4788360000000  0.4301200000000  0.4293090000000 1.0
C      1  0.5710180000000  0.4838350000000  0.4298070000000 1.0
C      1  0.4535130000000  0.4453520000000  0.4288640000000 1.0
C      1  0.4788080000000  0.5681840000000  0.4299340000000 1.0
C      1  0.4483990000000  0.5541850000000  0.4589960000000 1.0
C      1  0.4777180000000  0.4124320000000  0.4512530000000 1.0
C      1  0.5838370000000  0.5181010000000  0.4557910000000 1.0
C      1  0.4395250000000  0.4424290000000  0.4538520000000 1.0
C      1  0.4725550000000  0.5834410000000  0.4542880000000 1.0
C      1  0.5834510000000  0.4795880000000  0.4559710000000 1.0
C      1  0.5165600000000  0.5815860000000  0.5289770000000 1.0
C      1  0.4198300000000  0.4726980000000  0.5333170000000 1.0
C      1  0.5625740000000  0.4429770000000  0.5302590000000 1.0
C      1  0.5147510000000  0.4175620000000  0.5296370000000 1.0
C      1  0.4177170000000  0.5283190000000  0.5356630000000 1.0
C      1  0.5636160000000  0.5559670000000  0.5296490000000 1.0
C      1  0.5480590000000  0.4437050000000  0.5566210000000 1.0
C      1  0.5239330000000  0.5699340000000  0.5559840000000 1.0
C      1  0.4276140000000  0.4855670000000  0.5596130000000 1.0
C      1  0.5491000000000  0.5554270000000  0.5560930000000 1.0
C      1  0.5225690000000  0.4295250000000  0.5565880000000 1.0
C      1  0.4272420000000  0.5149290000000  0.5609470000000 1.0
C      1  0.4758240000000  0.4303640000000  0.5694860000000 1.0
C      1  0.5725610000000  0.5136960000000  0.5683800000000 1.0
C      1  0.4522500000000  0.5560630000000  0.5712190000000 1.0
C      1  0.4768120000000  0.5700740000000  0.5691300000000 1.0
C      1  0.5723340000000  0.4851980000000  0.5685220000000 1.0
C      1  0.4515320000000  0.4446470000000  0.5703390000000 1.0
C      1  0.4578140000000  0.5314010000000  0.5176350000000 1.0
C      1  0.4910860000000  0.4522950000000  0.5170580000000 1.0
C      1  0.5482780000000  0.5166610000000  0.5174390000000 1.0
C      1  0.4608330000000  0.4697970000000  0.5178870000000 1.0
C      1  0.4898250000000  0.5487050000000  0.5175960000000 1.0
C      1  0.5479360000000  0.4824240000000  0.5175570000000 1.0
C      1  0.5293130000000  0.5146020000000  0.4018660000000 1.0
C      1  0.4787090000000  0.5145910000000  0.3980550000000 1.0
C      1  0.5034910000000  0.4675270000000  0.4022950000000 1.0
C      1  0.5287820000000  0.4834440000000  0.4021470000000 1.0
C      1  0.4777590000000  0.4828710000000  0.3990280000000 1.0
C      1  0.5042650000000  0.5304680000000  0.4020040000000 1.0
C      1  0.5358250000000  0.5576270000000  0.4487510000000 1.0
C      1  0.5341710000000  0.4412600000000  0.4496340000000 1.0
C      1  0.4290080000000  0.5086140000000  0.4643180000000 1.0
END
