TITL C-3577080-309-275 -2.44468901641376e-06 125000 -1015.78923430992 0 0 163 (C1) n - 1
REM
REM in /home/bkarasulu/work/CARBON/AIRSS/Generating-Clusters/EDIP-Nigel-Params/with-SteepDescent/Higher-Symm/SD-CG/HFTN-CG
REM
REM
REM
REM
REM
REM ./C.cell (12c818d87b63d06a65506943cc24bca4)
REM
REM compiler GCC version 9.2.1 20190827 (Red Hat 9.2.1-1)
REM options -cpp -mtune=generic -march=x86-64 -g -O0 -fpre-include=/usr/include/finclude/math-vector-fortran.h
REM seed -1975477867 -953380461 1375599508 -1365348541 1409709862 857892094 -690582176 1484316179 -2131828804 1960284879 2113683826 615363729 1839846687 -1146210508 1454981516 1584903795 1676299365 74779430 1459812008 -890136749 2117684722 -424233080 1697279850 -1424636452 1906765498 174382253 -428003287 1626362180 -966113827 -1954976387 -427815347 -414193568 -2068069625
REM
CELL 1.54180   50.00000   50.00000   50.00000   90.00000   90.00000   90.00000
LATT -1
SFAC C  
C      1  0.4700590000000  0.6039950000000  0.4767220000000 1.0
C      1  0.5227220000000  0.5260770000000  0.4594110000000 1.0
C      1  0.4549830000000  0.4535450000000  0.5605020000000 1.0
C      1  0.5762810000000  0.4628780000000  0.5752240000000 1.0
C      1  0.5568400000000  0.4615640000000  0.4762470000000 1.0
C      1  0.4006040000000  0.5306030000000  0.5480120000000 1.0
C      1  0.5502990000000  0.5133820000000  0.4565080000000 1.0
C      1  0.4885070000000  0.4764760000000  0.5285590000000 1.0
C      1  0.6089000000000  0.4704840000000  0.5087220000000 1.0
C      1  0.4453040000000  0.5172050000000  0.4002210000000 1.0
C      1  0.4951940000000  0.4412160000000  0.4455390000000 1.0
C      1  0.4615170000000  0.4067490000000  0.4579120000000 1.0
C      1  0.4625680000000  0.4747410000000  0.5420600000000 1.0
C      1  0.4888660000000  0.5144530000000  0.3777720000000 1.0
C      1  0.4928090000000  0.4564160000000  0.3951720000000 1.0
C      1  0.4640280000000  0.4228780000000  0.5178520000000 1.0
C      1  0.4855860000000  0.4677420000000  0.4993380000000 1.0
C      1  0.5592320000000  0.5238510000000  0.5816720000000 1.0
C      1  0.5284590000000  0.4428020000000  0.5225090000000 1.0
C      1  0.5080110000000  0.5323090000000  0.4345020000000 1.0
C      1  0.4498400000000  0.5778870000000  0.4264610000000 1.0
C      1  0.4617110000000  0.5201890000000  0.3773810000000 1.0
C      1  0.5426300000000  0.5584380000000  0.5363330000000 1.0
C      1  0.5520770000000  0.5335020000000  0.5076070000000 1.0
C      1  0.4828180000000  0.5526670000000  0.4687110000000 1.0
C      1  0.5947320000000  0.4580450000000  0.4850720000000 1.0
C      1  0.4738910000000  0.5540970000000  0.5954080000000 1.0
C      1  0.4592860000000  0.6210420000000  0.4986400000000 1.0
C      1  0.5312610000000  0.4833430000000  0.5679160000000 1.0
C      1  0.4341810000000  0.4763080000000  0.5999490000000 1.0
C      1  0.4861570000000  0.5117880000000  0.4282650000000 1.0
C      1  0.4166030000000  0.5286990000000  0.4938500000000 1.0
C      1  0.4441400000000  0.5021880000000  0.6022780000000 1.0
C      1  0.4810040000000  0.4487210000000  0.5774090000000 1.0
C      1  0.4278680000000  0.4807620000000  0.4322930000000 1.0
C      1  0.5633880000000  0.4729820000000  0.5203790000000 1.0
C      1  0.5823900000000  0.5059850000000  0.5893420000000 1.0
C      1  0.4726790000000  0.6211000000000  0.5243460000000 1.0
C      1  0.4143690000000  0.5112310000000  0.5647960000000 1.0
C      1  0.4866660000000  0.5281800000000  0.6063770000000 1.0
C      1  0.5807650000000  0.4845590000000  0.4332700000000 1.0
C      1  0.4910390000000  0.3938220000000  0.4973430000000 1.0
C      1  0.4454450000000  0.4339030000000  0.5399770000000 1.0
C      1  0.5332920000000  0.4170170000000  0.4716080000000 1.0
C      1  0.4203620000000  0.5219450000000  0.4641520000000 1.0
C      1  0.4203990000000  0.4345280000000  0.4489240000000 1.0
C      1  0.5181040000000  0.4234050000000  0.4480000000000 1.0
C      1  0.5144000000000  0.5489540000000  0.4766320000000 1.0
C      1  0.4761200000000  0.5412330000000  0.5539420000000 1.0
C      1  0.4854880000000  0.4024700000000  0.5255570000000 1.0
C      1  0.5062310000000  0.5375480000000  0.5641600000000 1.0
C      1  0.4456600000000  0.4778280000000  0.4863630000000 1.0
C      1  0.4712540000000  0.5247480000000  0.4815880000000 1.0
C      1  0.5064080000000  0.5907130000000  0.5400290000000 1.0
C      1  0.5730480000000  0.4242900000000  0.5182780000000 1.0
C      1  0.4069290000000  0.4685690000000  0.5303180000000 1.0
C      1  0.6217470000000  0.4951590000000  0.5064980000000 1.0
C      1  0.5113130000000  0.4109200000000  0.5366190000000 1.0
C      1  0.4576830000000  0.5300760000000  0.4245530000000 1.0
C      1  0.5352000000000  0.5780170000000  0.4427010000000 1.0
C      1  0.5903180000000  0.4748540000000  0.5303680000000 1.0
C      1  0.4426540000000  0.4891780000000  0.4084520000000 1.0
C      1  0.4474500000000  0.5481390000000  0.5793810000000 1.0
C      1  0.5674880000000  0.5492560000000  0.4862900000000 1.0
C      1  0.5976080000000  0.5151510000000  0.4706010000000 1.0
C      1  0.4896640000000  0.5967610000000  0.4995300000000 1.0
C      1  0.5327640000000  0.5821770000000  0.4703510000000 1.0
C      1  0.4332390000000  0.4453580000000  0.4938310000000 1.0
C      1  0.5901520000000  0.5615070000000  0.4980930000000 1.0
C      1  0.4909840000000  0.5560560000000  0.4389820000000 1.0
C      1  0.5472830000000  0.5683680000000  0.5654640000000 1.0
C      1  0.5747570000000  0.5088840000000  0.5421180000000 1.0
C      1  0.5607210000000  0.4922750000000  0.4771820000000 1.0
C      1  0.4570400000000  0.5768720000000  0.4730520000000 1.0
C      1  0.5315870000000  0.4406640000000  0.5760890000000 1.0
C      1  0.4346810000000  0.5212970000000  0.5829580000000 1.0
C      1  0.4368390000000  0.4538280000000  0.4351040000000 1.0
C      1  0.4450260000000  0.5737950000000  0.5040420000000 1.0
C      1  0.5233980000000  0.4931240000000  0.5004870000000 1.0
C      1  0.5412230000000  0.4864240000000  0.5983350000000 1.0
C      1  0.4339360000000  0.5668200000000  0.5590520000000 1.0
C      1  0.4669720000000  0.5193090000000  0.5334660000000 1.0
C      1  0.5115730000000  0.4707420000000  0.4848260000000 1.0
C      1  0.4098730000000  0.4448150000000  0.4750800000000 1.0
C      1  0.5065340000000  0.4402570000000  0.5614670000000 1.0
C      1  0.5595080000000  0.4003010000000  0.5208340000000 1.0
C      1  0.5450630000000  0.5615360000000  0.4219400000000 1.0
C      1  0.4305800000000  0.4637590000000  0.5754390000000 1.0
C      1  0.6048180000000  0.5162100000000  0.4988980000000 1.0
C      1  0.5083920000000  0.5190050000000  0.5879630000000 1.0
C      1  0.5824020000000  0.4293220000000  0.4899280000000 1.0
C      1  0.4042440000000  0.4859810000000  0.5049960000000 1.0
C      1  0.5184520000000  0.5884200000000  0.4954940000000 1.0
C      1  0.5417720000000  0.5118990000000  0.4063840000000 1.0
C      1  0.5517200000000  0.4963050000000  0.4313420000000 1.0
C      1  0.4147040000000  0.4813020000000  0.5571940000000 1.0
C      1  0.4921710000000  0.5055350000000  0.5294190000000 1.0
C      1  0.5234960000000  0.5654050000000  0.5834120000000 1.0
C      1  0.5288330000000  0.5379360000000  0.4137620000000 1.0
C      1  0.5032670000000  0.4921170000000  0.5763030000000 1.0
C      1  0.4908990000000  0.5982890000000  0.5637390000000 1.0
C      1  0.5201460000000  0.5396610000000  0.5047920000000 1.0
C      1  0.5061110000000  0.5140950000000  0.5067100000000 1.0
C      1  0.4826920000000  0.4402210000000  0.4169790000000 1.0
C      1  0.3924790000000  0.5132450000000  0.5048490000000 1.0
C      1  0.4588960000000  0.5320790000000  0.5072280000000 1.0
C      1  0.3824530000000  0.5211000000000  0.5292330000000 1.0
C      1  0.5953300000000  0.4874870000000  0.4595820000000 1.0
C      1  0.4765080000000  0.5662080000000  0.5374930000000 1.0
C      1  0.5749410000000  0.5327660000000  0.4622990000000 1.0
C      1  0.5062020000000  0.4698000000000  0.4526310000000 1.0
C      1  0.5199100000000  0.4658650000000  0.3932970000000 1.0
C      1  0.5262660000000  0.5301860000000  0.5425680000000 1.0
C      1  0.5533330000000  0.4497030000000  0.4478060000000 1.0
C      1  0.5708780000000  0.5497700000000  0.5683560000000 1.0
C      1  0.4930610000000  0.5001920000000  0.4016590000000 1.0
C      1  0.5332390000000  0.4708500000000  0.4349210000000 1.0
C      1  0.5814290000000  0.5380070000000  0.5398120000000 1.0
C      1  0.4711840000000  0.4948720000000  0.4749130000000 1.0
C      1  0.4441580000000  0.4970810000000  0.5370350000000 1.0
C      1  0.5831790000000  0.5482860000000  0.4397620000000 1.0
C      1  0.5934350000000  0.4952870000000  0.5633930000000 1.0
C      1  0.4233810000000  0.4450620000000  0.5227550000000 1.0
C      1  0.4762250000000  0.4403630000000  0.4950440000000 1.0
C      1  0.5318110000000  0.3989440000000  0.5181520000000 1.0
C      1  0.5727790000000  0.5600860000000  0.4179240000000 1.0
C      1  0.4447840000000  0.4094050000000  0.4996520000000 1.0
C      1  0.4630690000000  0.3930660000000  0.4834740000000 1.0
C      1  0.4383250000000  0.5383110000000  0.4478040000000 1.0
C      1  0.4842840000000  0.4897630000000  0.4486740000000 1.0
C      1  0.4331810000000  0.4961600000000  0.5075070000000 1.0
C      1  0.4165520000000  0.5532690000000  0.5390860000000 1.0
C      1  0.4686680000000  0.5579180000000  0.4194830000000 1.0
C      1  0.5260750000000  0.5798370000000  0.5225840000000 1.0
C      1  0.5995930000000  0.5410730000000  0.5153560000000 1.0
C      1  0.5563590000000  0.4461120000000  0.5317960000000 1.0
C      1  0.4871490000000  0.4738240000000  0.5917400000000 1.0
C      1  0.5210760000000  0.3961880000000  0.4909530000000 1.0
C      1  0.4514690000000  0.5828610000000  0.5412100000000 1.0
C      1  0.4649940000000  0.6080670000000  0.5497570000000 1.0
C      1  0.5308350000000  0.4498260000000  0.4920190000000 1.0
C      1  0.4029230000000  0.4740810000000  0.4764010000000 1.0
C      1  0.5399670000000  0.4488010000000  0.4043810000000 1.0
C      1  0.4948590000000  0.5749240000000  0.5839780000000 1.0
C      1  0.4560870000000  0.4677620000000  0.3939960000000 1.0
C      1  0.5633450000000  0.4188360000000  0.4688700000000 1.0
C      1  0.5761400000000  0.4560460000000  0.4287500000000 1.0
C      1  0.4342680000000  0.4099700000000  0.4505520000000 1.0
C      1  0.4704020000000  0.5584490000000  0.5106040000000 1.0
C      1  0.5127590000000  0.4622010000000  0.5413600000000 1.0
C      1  0.4386750000000  0.5680970000000  0.4504240000000 1.0
C      1  0.4713890000000  0.5034190000000  0.6096610000000 1.0
C      1  0.4535380000000  0.4452360000000  0.4124620000000 1.0
C      1  0.4209920000000  0.4919590000000  0.4592160000000 1.0
C      1  0.5675910000000  0.4509540000000  0.4024600000000 1.0
C      1  0.5557530000000  0.4470490000000  0.5624100000000 1.0
C      1  0.5462980000000  0.5096150000000  0.5558580000000 1.0
C      1  0.4746240000000  0.4324860000000  0.4659330000000 1.0
C      1  0.5702700000000  0.4803980000000  0.5978110000000 1.0
C      1  0.5359530000000  0.5167750000000  0.6007600000000 1.0
C      1  0.5207360000000  0.4959950000000  0.3902150000000 1.0
C      1  0.5522310000000  0.4991710000000  0.5049240000000 1.0
C      1  0.4213270000000  0.5554260000000  0.5092510000000 1.0
END
