TITL C-3577086-586-309 -1.81639001721643e-06 125000 -422.641173048501 0 0 70 (C1) n - 1
REM
REM in /home/bkarasulu/work/CARBON/AIRSS/Generating-Clusters/EDIP-Nigel-Params/with-SteepDescent/Higher-Symm/SD-CG/HFTN-CG
REM
REM
REM
REM
REM
REM ./C.cell (12c818d87b63d06a65506943cc24bca4)
REM
REM compiler GCC version 9.2.1 20190827 (Red Hat 9.2.1-1)
REM options -cpp -mtune=generic -march=x86-64 -g -O0 -fpre-include=/usr/include/finclude/math-vector-fortran.h
REM seed 939255682 -1108129884 -1915860592 355115565 -1554080570 1997246779 -475823972 1140144481 -241208063 -216129135 1642323902 1532160061 2090965676 -818236210 -998478732 1633608888 -339142037 -763564646 -1861406804 -630797886 722493827 1467044987 -1960427459 765005527 -267208824 -1568498701 2035222534 -1034513303 -500213846 -82283572 320605384 -1959390953 -1005409806
REM
CELL 1.54180   50.00000   50.00000   50.00000   90.00000   90.00000   90.00000
LATT -1
SFAC C  
C      1  0.4801350000000  0.4180720000000  0.4442560000000 1.0
C      1  0.4831770000000  0.5857460000000  0.5498650000000 1.0
C      1  0.5105590000000  0.4147990000000  0.4472120000000 1.0
C      1  0.5137790000000  0.5867060000000  0.5469850000000 1.0
C      1  0.4877890000000  0.4153500000000  0.5558910000000 1.0
C      1  0.4866830000000  0.5859990000000  0.4495060000000 1.0
C      1  0.5185100000000  0.4169650000000  0.5548090000000 1.0
C      1  0.5170240000000  0.5856310000000  0.4543010000000 1.0
C      1  0.5672370000000  0.5212240000000  0.5246160000000 1.0
C      1  0.5670270000000  0.4815350000000  0.4792300000000 1.0
C      1  0.4344010000000  0.5266930000000  0.4989610000000 1.0
C      1  0.4292390000000  0.4770370000000  0.4976690000000 1.0
C      1  0.5699420000000  0.5297490000000  0.4972270000000 1.0
C      1  0.5734330000000  0.4736210000000  0.5058920000000 1.0
C      1  0.4370750000000  0.5166520000000  0.4727280000000 1.0
C      1  0.4354840000000  0.4857440000000  0.5234000000000 1.0
C      1  0.5133250000000  0.5445210000000  0.4785850000000 1.0
C      1  0.5191630000000  0.4479750000000  0.5173900000000 1.0
C      1  0.4836980000000  0.5455670000000  0.4743520000000 1.0
C      1  0.4869640000000  0.4479850000000  0.5199150000000 1.0
C      1  0.5137340000000  0.5453740000000  0.5228600000000 1.0
C      1  0.5099630000000  0.4449220000000  0.4823570000000 1.0
C      1  0.4838710000000  0.5450680000000  0.5252010000000 1.0
C      1  0.4786620000000  0.4481450000000  0.4773500000000 1.0
C      1  0.5292120000000  0.4634030000000  0.5426570000000 1.0
C      1  0.5280900000000  0.5377480000000  0.4527350000000 1.0
C      1  0.4758450000000  0.4623350000000  0.5435870000000 1.0
C      1  0.4756520000000  0.5379180000000  0.4462870000000 1.0
C      1  0.5249870000000  0.4603360000000  0.4599800000000 1.0
C      1  0.5270180000000  0.5397820000000  0.5496420000000 1.0
C      1  0.4718240000000  0.4644220000000  0.4534980000000 1.0
C      1  0.4744510000000  0.5371250000000  0.5528430000000 1.0
C      1  0.5151230000000  0.4436790000000  0.4358280000000 1.0
C      1  0.5168840000000  0.5632160000000  0.5669910000000 1.0
C      1  0.4840440000000  0.4465810000000  0.4318570000000 1.0
C      1  0.4849150000000  0.5618660000000  0.5693330000000 1.0
C      1  0.5180870000000  0.4458440000000  0.5657670000000 1.0
C      1  0.5203680000000  0.5617880000000  0.4347440000000 1.0
C      1  0.4865350000000  0.4447810000000  0.5665680000000 1.0
C      1  0.4885120000000  0.5619500000000  0.4303230000000 1.0
C      1  0.4465630000000  0.5301960000000  0.5468990000000 1.0
C      1  0.4433960000000  0.4704050000000  0.4522070000000 1.0
C      1  0.5555240000000  0.5380570000000  0.5440430000000 1.0
C      1  0.5535880000000  0.4622200000000  0.4638140000000 1.0
C      1  0.4471740000000  0.5322290000000  0.4510250000000 1.0
C      1  0.4473120000000  0.4671870000000  0.5410770000000 1.0
C      1  0.5564230000000  0.5330010000000  0.4611430000000 1.0
C      1  0.5584100000000  0.4679590000000  0.5411080000000 1.0
C      1  0.5185650000000  0.5739160000000  0.4833660000000 1.0
C      1  0.5248920000000  0.4193020000000  0.5261710000000 1.0
C      1  0.4753150000000  0.5749630000000  0.4752610000000 1.0
C      1  0.4884920000000  0.4169080000000  0.5223630000000 1.0
C      1  0.5180760000000  0.5748850000000  0.5180670000000 1.0
C      1  0.5140370000000  0.4151240000000  0.4773150000000 1.0
C      1  0.4743100000000  0.5741150000000  0.5234660000000 1.0
C      1  0.4701220000000  0.4198590000000  0.4731980000000 1.0
C      1  0.4870250000000  0.5122110000000  0.5630800000000 1.0
C      1  0.4853260000000  0.4900720000000  0.4578500000000 1.0
C      1  0.5185250000000  0.5135610000000  0.5611770000000 1.0
C      1  0.5151400000000  0.4882930000000  0.4610740000000 1.0
C      1  0.4876840000000  0.5124390000000  0.4370580000000 1.0
C      1  0.4873900000000  0.4894480000000  0.5421350000000 1.0
C      1  0.5188860000000  0.5120230000000  0.4405600000000 1.0
C      1  0.5172550000000  0.4902210000000  0.5404980000000 1.0
C      1  0.4381740000000  0.5149390000000  0.5243380000000 1.0
C      1  0.4336250000000  0.4876420000000  0.4722460000000 1.0
C      1  0.5598850000000  0.5102450000000  0.4787910000000 1.0
C      1  0.5636390000000  0.4919490000000  0.5255630000000 1.0
C      1  0.4888880000000  0.4049510000000  0.4920860000000 1.0
C      1  0.4866360000000  0.5878310000000  0.4998250000000 1.0
END
