TITL C-3577077-324-289 1.6224119243953e-06 125000 -574.479717270106 0 0 91 (C1) n - 1
REM
REM in /home/bkarasulu/work/CARBON/AIRSS/Generating-Clusters/EDIP-Nigel-Params/with-SteepDescent/Higher-Symm/SD-CG/HFTN-CG
REM
REM
REM
REM
REM
REM ./C.cell (12c818d87b63d06a65506943cc24bca4)
REM
REM compiler GCC version 9.2.1 20190827 (Red Hat 9.2.1-1)
REM options -cpp -mtune=generic -march=x86-64 -g -O0 -fpre-include=/usr/include/finclude/math-vector-fortran.h
REM seed 31010041 -823526488 -127400666 1165910607 -417466352 -131028879 2104562438 962096824 -106423801 -842685030 1076558047 -1312788097 1707959826 -1129543704 -990806152 -1371527950 -426670482 1926236993 -1785803749 1476721515 1644123412 -512270058 -963317071 -1342790914 397316869 -938846809 -2090190831 1231163802 1431744865 565882996 -1202016404 1714714826 -421711576
REM
CELL 1.54180   50.00000   50.00000   50.00000   90.00000   90.00000   90.00000
LATT -1
SFAC C  
C      1  0.5241400000000  0.5098030000000  0.4983860000000 1.0
C      1  0.5024760000000  0.4727730000000  0.4805010000000 1.0
C      1  0.4735190000000  0.5091320000000  0.4729270000000 1.0
C      1  0.4266210000000  0.4964950000000  0.4821850000000 1.0
C      1  0.5308210000000  0.5670420000000  0.4855940000000 1.0
C      1  0.5475270000000  0.4338130000000  0.4863970000000 1.0
C      1  0.5287660000000  0.4565000000000  0.4267690000000 1.0
C      1  0.4437700000000  0.4899870000000  0.4188410000000 1.0
C      1  0.5151980000000  0.5436010000000  0.4249230000000 1.0
C      1  0.5590420000000  0.5004570000000  0.5606290000000 1.0
C      1  0.4712860000000  0.4531890000000  0.5595240000000 1.0
C      1  0.4742640000000  0.5502240000000  0.5612060000000 1.0
C      1  0.5678520000000  0.4830820000000  0.5371080000000 1.0
C      1  0.4510490000000  0.4535120000000  0.5360300000000 1.0
C      1  0.4827190000000  0.5719210000000  0.5409410000000 1.0
C      1  0.4783810000000  0.4886740000000  0.4935210000000 1.0
C      1  0.4995360000000  0.5273440000000  0.4750650000000 1.0
C      1  0.5295900000000  0.4834620000000  0.4867370000000 1.0
C      1  0.4884220000000  0.5566140000000  0.4653220000000 1.0
C      1  0.5533610000000  0.4797250000000  0.4674230000000 1.0
C      1  0.4543690000000  0.4616400000000  0.4565630000000 1.0
C      1  0.5158670000000  0.4756620000000  0.5666240000000 1.0
C      1  0.4731510000000  0.5020610000000  0.5765890000000 1.0
C      1  0.5174740000000  0.5255320000000  0.5693280000000 1.0
C      1  0.4764890000000  0.4920370000000  0.4486860000000 1.0
C      1  0.5186650000000  0.5102220000000  0.4533850000000 1.0
C      1  0.5036600000000  0.4827320000000  0.4508500000000 1.0
C      1  0.5378580000000  0.5429370000000  0.5301920000000 1.0
C      1  0.5211360000000  0.4465290000000  0.5293690000000 1.0
C      1  0.4469590000000  0.5118890000000  0.5258540000000 1.0
C      1  0.4381090000000  0.5605580000000  0.5322140000000 1.0
C      1  0.5856140000000  0.5265130000000  0.5307140000000 1.0
C      1  0.4815800000000  0.4190440000000  0.5272650000000 1.0
C      1  0.5673880000000  0.4531370000000  0.4743490000000 1.0
C      1  0.4283670000000  0.4689440000000  0.4705650000000 1.0
C      1  0.5069440000000  0.5794350000000  0.4743260000000 1.0
C      1  0.4394650000000  0.5217040000000  0.4395950000000 1.0
C      1  0.5366840000000  0.5473550000000  0.4429510000000 1.0
C      1  0.5263810000000  0.4343140000000  0.4434120000000 1.0
C      1  0.5403690000000  0.5445290000000  0.4704810000000 1.0
C      1  0.5221630000000  0.4297050000000  0.4704530000000 1.0
C      1  0.4443980000000  0.5182860000000  0.4699490000000 1.0
C      1  0.5338260000000  0.5483850000000  0.5779060000000 1.0
C      1  0.5262900000000  0.4501890000000  0.5767080000000 1.0
C      1  0.4453140000000  0.5023260000000  0.5769360000000 1.0
C      1  0.5037940000000  0.4663540000000  0.4159780000000 1.0
C      1  0.4697880000000  0.5044700000000  0.4212990000000 1.0
C      1  0.5181370000000  0.5165850000000  0.4160140000000 1.0
C      1  0.4770190000000  0.5011570000000  0.5196770000000 1.0
C      1  0.5147940000000  0.5271910000000  0.5399580000000 1.0
C      1  0.5181390000000  0.4762750000000  0.5367630000000 1.0
C      1  0.5522590000000  0.5499830000000  0.5562400000000 1.0
C      1  0.5180760000000  0.4325340000000  0.5561240000000 1.0
C      1  0.4379670000000  0.5180240000000  0.5548760000000 1.0
C      1  0.4990480000000  0.4369600000000  0.5124070000000 1.0
C      1  0.4445510000000  0.5389780000000  0.5136770000000 1.0
C      1  0.5528750000000  0.5225510000000  0.5116760000000 1.0
C      1  0.5048420000000  0.5820910000000  0.5228900000000 1.0
C      1  0.5703950000000  0.4573370000000  0.5222260000000 1.0
C      1  0.4286180000000  0.4650540000000  0.5191990000000 1.0
C      1  0.4880110000000  0.5514130000000  0.4352810000000 1.0
C      1  0.5455390000000  0.4789610000000  0.4373970000000 1.0
C      1  0.4526290000000  0.4625890000000  0.4261430000000 1.0
C      1  0.4937180000000  0.5940920000000  0.4974450000000 1.0
C      1  0.5860140000000  0.4609080000000  0.4965650000000 1.0
C      1  0.4251030000000  0.4498020000000  0.4933520000000 1.0
C      1  0.4882490000000  0.4276530000000  0.5556190000000 1.0
C      1  0.4447010000000  0.5469070000000  0.5583120000000 1.0
C      1  0.5717580000000  0.5277850000000  0.5563640000000 1.0
C      1  0.4579340000000  0.5823930000000  0.5278700000000 1.0
C      1  0.5878610000000  0.4989340000000  0.5233730000000 1.0
C      1  0.4539140000000  0.4274030000000  0.5221110000000 1.0
C      1  0.4862240000000  0.4764750000000  0.5721750000000 1.0
C      1  0.4882040000000  0.5275410000000  0.5755710000000 1.0
C      1  0.5321320000000  0.4995330000000  0.5752130000000 1.0
C      1  0.5612500000000  0.5291990000000  0.4838090000000 1.0
C      1  0.4976780000000  0.4424030000000  0.4832100000000 1.0
C      1  0.4424720000000  0.5435060000000  0.4853190000000 1.0
C      1  0.5731470000000  0.5030680000000  0.4735210000000 1.0
C      1  0.4685430000000  0.4382230000000  0.4718710000000 1.0
C      1  0.4607480000000  0.5649000000000  0.4769260000000 1.0
C      1  0.4642940000000  0.5875020000000  0.4976870000000 1.0
C      1  0.5920670000000  0.4905370000000  0.4946870000000 1.0
C      1  0.4472680000000  0.4294050000000  0.4923480000000 1.0
C      1  0.5427990000000  0.5042690000000  0.4234700000000 1.0
C      1  0.4778730000000  0.4564250000000  0.4153050000000 1.0
C      1  0.4649130000000  0.5349200000000  0.4241770000000 1.0
C      1  0.5281900000000  0.5663590000000  0.5146750000000 1.0
C      1  0.5471740000000  0.4402490000000  0.5158850000000 1.0
C      1  0.4272560000000  0.4938340000000  0.5119620000000 1.0
C      1  0.5077580000000  0.5027700000000  0.5240520000000 1.0
END
