TITL C-3577085-527-211 1.47133691271081e-07 125000 -663.171323747663 0 0 107 (C1) n - 1
REM
REM in /home/bkarasulu/work/CARBON/AIRSS/Generating-Clusters/EDIP-Nigel-Params/with-SteepDescent/Higher-Symm/SD-CG/HFTN-CG
REM
REM
REM
REM
REM
REM ./C.cell (12c818d87b63d06a65506943cc24bca4)
REM
REM compiler GCC version 9.2.1 20190827 (Red Hat 9.2.1-1)
REM options -cpp -mtune=generic -march=x86-64 -g -O0 -fpre-include=/usr/include/finclude/math-vector-fortran.h
REM seed 285660218 -674055782 1770589502 134806826 1302755329 -337240809 1630527717 754519639 401360794 888261430 1691480783 -1936649348 243314217 -2095923765 478816043 -249398858 2036920530 -1905294600 908719046 -1486693632 1513426655 -2106246769 -1288847625 -545740170 -544637603 -1670895303 -1747317592 -1026860755 1382538708 -99746151 -2143226903 690477894 1884474880
REM
CELL 1.54180   50.00000   50.00000   50.00000   90.00000   90.00000   90.00000
LATT -1
SFAC C  
C      1  0.5550060000000  0.5191690000000  0.5007870000000 1.0
C      1  0.4566090000000  0.5344070000000  0.4984010000000 1.0
C      1  0.5590770000000  0.4808930000000  0.4931710000000 1.0
C      1  0.4650740000000  0.4780210000000  0.4929880000000 1.0
C      1  0.5249270000000  0.5263090000000  0.5724880000000 1.0
C      1  0.4744060000000  0.5270230000000  0.4198440000000 1.0
C      1  0.5178030000000  0.4793070000000  0.5640950000000 1.0
C      1  0.4828890000000  0.4821890000000  0.4349840000000 1.0
C      1  0.5092230000000  0.5492590000000  0.4991830000000 1.0
C      1  0.4792590000000  0.5544310000000  0.4942240000000 1.0
C      1  0.5106830000000  0.4526520000000  0.4976820000000 1.0
C      1  0.4805280000000  0.4528980000000  0.5094330000000 1.0
C      1  0.4848160000000  0.4475220000000  0.5712080000000 1.0
C      1  0.5152040000000  0.4478390000000  0.4254830000000 1.0
C      1  0.4868070000000  0.5523560000000  0.5799720000000 1.0
C      1  0.5119650000000  0.5501370000000  0.4227220000000 1.0
C      1  0.4063220000000  0.4875270000000  0.4959920000000 1.0
C      1  0.5950050000000  0.4870880000000  0.5178460000000 1.0
C      1  0.4075930000000  0.5138190000000  0.4898300000000 1.0
C      1  0.5942830000000  0.5143580000000  0.5192140000000 1.0
C      1  0.4502360000000  0.5157350000000  0.4321460000000 1.0
C      1  0.5467040000000  0.5153150000000  0.5558710000000 1.0
C      1  0.4542650000000  0.4870460000000  0.4366440000000 1.0
C      1  0.5440430000000  0.4868830000000  0.5539060000000 1.0
C      1  0.5465080000000  0.4313270000000  0.5255960000000 1.0
C      1  0.4562750000000  0.4381680000000  0.4760480000000 1.0
C      1  0.5462150000000  0.5722730000000  0.5278610000000 1.0
C      1  0.4481070000000  0.5748160000000  0.4704990000000 1.0
C      1  0.4538090000000  0.5244550000000  0.4612700000000 1.0
C      1  0.5440760000000  0.5280650000000  0.5292360000000 1.0
C      1  0.4426240000000  0.4830590000000  0.4621800000000 1.0
C      1  0.5484100000000  0.4767700000000  0.5259000000000 1.0
C      1  0.4992030000000  0.5860910000000  0.5175470000000 1.0
C      1  0.5056190000000  0.5878970000000  0.4872550000000 1.0
C      1  0.4983820000000  0.4151600000000  0.5159220000000 1.0
C      1  0.5036830000000  0.4170790000000  0.4838060000000 1.0
C      1  0.5131960000000  0.5538330000000  0.5649190000000 1.0
C      1  0.4845010000000  0.5525370000000  0.4326450000000 1.0
C      1  0.5105310000000  0.4498650000000  0.5585180000000 1.0
C      1  0.4969630000000  0.4574730000000  0.4475980000000 1.0
C      1  0.5651230000000  0.5506730000000  0.5369470000000 1.0
C      1  0.4329030000000  0.5487950000000  0.4645110000000 1.0
C      1  0.5647490000000  0.4529370000000  0.5344310000000 1.0
C      1  0.4343650000000  0.4572610000000  0.4699170000000 1.0
C      1  0.4642710000000  0.5183870000000  0.5210160000000 1.0
C      1  0.5316690000000  0.5138490000000  0.4832460000000 1.0
C      1  0.4608160000000  0.4902690000000  0.5203960000000 1.0
C      1  0.5356450000000  0.4870420000000  0.4735500000000 1.0
C      1  0.4690460000000  0.4244730000000  0.5714240000000 1.0
C      1  0.5300450000000  0.4245290000000  0.4296740000000 1.0
C      1  0.4686000000000  0.5713900000000  0.5699620000000 1.0
C      1  0.5301100000000  0.5696150000000  0.4311360000000 1.0
C      1  0.5741080000000  0.4694660000000  0.4379960000000 1.0
C      1  0.4270760000000  0.4703890000000  0.5573100000000 1.0
C      1  0.5697290000000  0.5254610000000  0.4418220000000 1.0
C      1  0.4289110000000  0.5254820000000  0.5551170000000 1.0
C      1  0.5304800000000  0.4678460000000  0.4140530000000 1.0
C      1  0.4737060000000  0.4729090000000  0.5761380000000 1.0
C      1  0.5203890000000  0.5220650000000  0.4244310000000 1.0
C      1  0.4794360000000  0.5230680000000  0.5701620000000 1.0
C      1  0.4687650000000  0.5809410000000  0.5211460000000 1.0
C      1  0.5328900000000  0.5804580000000  0.4791910000000 1.0
C      1  0.4674700000000  0.4178430000000  0.5218220000000 1.0
C      1  0.5333550000000  0.4204250000000  0.4780940000000 1.0
C      1  0.4496150000000  0.5133130000000  0.5728290000000 1.0
C      1  0.5482900000000  0.5119620000000  0.4262210000000 1.0
C      1  0.4476730000000  0.4838490000000  0.5740340000000 1.0
C      1  0.5520680000000  0.4829540000000  0.4229500000000 1.0
C      1  0.5493080000000  0.5680440000000  0.4994440000000 1.0
C      1  0.4436490000000  0.5799320000000  0.5002930000000 1.0
C      1  0.5502540000000  0.4331180000000  0.4973100000000 1.0
C      1  0.4477350000000  0.4247290000000  0.5005300000000 1.0
C      1  0.4546550000000  0.4255220000000  0.5475780000000 1.0
C      1  0.5442790000000  0.4296550000000  0.4532540000000 1.0
C      1  0.4632340000000  0.5605160000000  0.5434190000000 1.0
C      1  0.5369170000000  0.5601910000000  0.4574800000000 1.0
C      1  0.4171710000000  0.4614460000000  0.4932890000000 1.0
C      1  0.5886960000000  0.4592970000000  0.5167390000000 1.0
C      1  0.4141920000000  0.5410370000000  0.4875370000000 1.0
C      1  0.5878680000000  0.5421790000000  0.5178260000000 1.0
C      1  0.5181730000000  0.4305030000000  0.5352860000000 1.0
C      1  0.4836680000000  0.4337920000000  0.4645430000000 1.0
C      1  0.5180330000000  0.5706220000000  0.5369570000000 1.0
C      1  0.4783930000000  0.5700090000000  0.4660740000000 1.0
C      1  0.4330410000000  0.5525060000000  0.5090160000000 1.0
C      1  0.5689050000000  0.5467750000000  0.4907260000000 1.0
C      1  0.4264350000000  0.4412760000000  0.5133220000000 1.0
C      1  0.5717080000000  0.4515970000000  0.4877200000000 1.0
C      1  0.5643360000000  0.5483160000000  0.4593640000000 1.0
C      1  0.4344750000000  0.5507520000000  0.5407140000000 1.0
C      1  0.5682810000000  0.4467640000000  0.4565970000000 1.0
C      1  0.4329250000000  0.4449720000000  0.5422800000000 1.0
C      1  0.5956440000000  0.4860060000000  0.4447520000000 1.0
C      1  0.4046940000000  0.4862790000000  0.5518740000000 1.0
C      1  0.5944780000000  0.5128140000000  0.4444130000000 1.0
C      1  0.4037060000000  0.5132380000000  0.5533390000000 1.0
C      1  0.4809940000000  0.5334490000000  0.5402840000000 1.0
C      1  0.5129300000000  0.5340100000000  0.4730170000000 1.0
C      1  0.4821070000000  0.4765910000000  0.5380240000000 1.0
C      1  0.5101510000000  0.4719710000000  0.4736140000000 1.0
C      1  0.4856740000000  0.5187050000000  0.4692830000000 1.0
C      1  0.5114660000000  0.5291370000000  0.5230370000000 1.0
C      1  0.4902680000000  0.4931700000000  0.4851320000000 1.0
C      1  0.5180880000000  0.4719710000000  0.5212110000000 1.0
C      1  0.4955970000000  0.5057540000000  0.4210640000000 1.0
C      1  0.5047780000000  0.5043730000000  0.5761850000000 1.0
C      1  0.5031680000000  0.4989380000000  0.5133340000000 1.0
END
