TITL C-3577077-324-576 -1.76617924308328e-06 125000 -1034.06621884027 0 0 166 (C1) n - 1
REM
REM in /home/bkarasulu/work/CARBON/AIRSS/Generating-Clusters/EDIP-Nigel-Params/with-SteepDescent/Higher-Symm/SD-CG/HFTN-CG
REM
REM
REM
REM
REM
REM ./C.cell (12c818d87b63d06a65506943cc24bca4)
REM
REM compiler GCC version 9.2.1 20190827 (Red Hat 9.2.1-1)
REM options -cpp -mtune=generic -march=x86-64 -g -O0 -fpre-include=/usr/include/finclude/math-vector-fortran.h
REM seed -2006883930 -862040536 1527764633 2125730156 -485618208 415449888 -578659910 221783964 -22325648 -1403039108 644013841 -1376405771 -1757978037 2030858320 -1876173361 2070077503 1049448366 -1442150986 1852471770 -731040011 1063405649 1268943279 1831506450 1523157616 -431128987 689921381 -782421595 1419870811 382291194 -1866631819 -1997067898 -1848677224 679506032
REM
CELL 1.54180   50.00000   50.00000   50.00000   90.00000   90.00000   90.00000
LATT -1
SFAC C  
C      1  0.5315640000000  0.4754600000000  0.6000260000000 1.0
C      1  0.4470730000000  0.4806050000000  0.5873550000000 1.0
C      1  0.4068920000000  0.4709300000000  0.5071750000000 1.0
C      1  0.4288450000000  0.4730020000000  0.4211470000000 1.0
C      1  0.5131100000000  0.4779890000000  0.4008250000000 1.0
C      1  0.5852280000000  0.4747180000000  0.4505200000000 1.0
C      1  0.5950690000000  0.4769090000000  0.5348110000000 1.0
C      1  0.4853550000000  0.5519890000000  0.3968670000000 1.0
C      1  0.5672330000000  0.5523300000000  0.4254530000000 1.0
C      1  0.6054880000000  0.5453900000000  0.5069430000000 1.0
C      1  0.5625320000000  0.5508530000000  0.5867700000000 1.0
C      1  0.4712900000000  0.5498480000000  0.5993420000000 1.0
C      1  0.4015510000000  0.5465270000000  0.5384210000000 1.0
C      1  0.4119110000000  0.5451180000000  0.4476300000000 1.0
C      1  0.4172920000000  0.5345700000000  0.5812150000000 1.0
C      1  0.3883420000000  0.5296810000000  0.4856880000000 1.0
C      1  0.4434780000000  0.5350650000000  0.4023820000000 1.0
C      1  0.5386920000000  0.5368990000000  0.3936890000000 1.0
C      1  0.6043180000000  0.5319790000000  0.4618970000000 1.0
C      1  0.5995320000000  0.5344910000000  0.5633250000000 1.0
C      1  0.5138060000000  0.5341580000000  0.6106870000000 1.0
C      1  0.4304290000000  0.4623010000000  0.4636670000000 1.0
C      1  0.4773510000000  0.4601090000000  0.4187750000000 1.0
C      1  0.5448980000000  0.4648110000000  0.4382510000000 1.0
C      1  0.5798730000000  0.4605950000000  0.4976430000000 1.0
C      1  0.5535210000000  0.4650790000000  0.5627160000000 1.0
C      1  0.4868160000000  0.4625910000000  0.5849510000000 1.0
C      1  0.4396360000000  0.4674690000000  0.5371310000000 1.0
C      1  0.5213540000000  0.4582150000000  0.4208090000000 1.0
C      1  0.5763180000000  0.4536830000000  0.4678720000000 1.0
C      1  0.5742110000000  0.4572570000000  0.5415490000000 1.0
C      1  0.5159520000000  0.4532350000000  0.5894970000000 1.0
C      1  0.4472740000000  0.4608400000000  0.5657940000000 1.0
C      1  0.4209530000000  0.4515970000000  0.4899100000000 1.0
C      1  0.4487550000000  0.4518140000000  0.4247620000000 1.0
C      1  0.5451960000000  0.5374050000000  0.5378410000000 1.0
C      1  0.4982100000000  0.5329750000000  0.5483790000000 1.0
C      1  0.4536560000000  0.5399610000000  0.5345990000000 1.0
C      1  0.4472880000000  0.5338240000000  0.4871010000000 1.0
C      1  0.4799950000000  0.5275170000000  0.4528830000000 1.0
C      1  0.5091040000000  0.5348310000000  0.4546260000000 1.0
C      1  0.5489370000000  0.5351950000000  0.4922140000000 1.0
C      1  0.4497860000000  0.4189900000000  0.4702640000000 1.0
C      1  0.4854110000000  0.4253940000000  0.4438730000000 1.0
C      1  0.5316460000000  0.4272290000000  0.4574110000000 1.0
C      1  0.5510930000000  0.4280590000000  0.5053050000000 1.0
C      1  0.5231910000000  0.4207730000000  0.5388960000000 1.0
C      1  0.4835010000000  0.4295530000000  0.5563650000000 1.0
C      1  0.4453570000000  0.4202170000000  0.5199040000000 1.0
C      1  0.6072130000000  0.4721910000000  0.5071140000000 1.0
C      1  0.5615750000000  0.4745120000000  0.5914540000000 1.0
C      1  0.4697000000000  0.4761330000000  0.6076200000000 1.0
C      1  0.4088510000000  0.4695780000000  0.5367370000000 1.0
C      1  0.4083300000000  0.4715470000000  0.4435470000000 1.0
C      1  0.4845500000000  0.4740440000000  0.3911580000000 1.0
C      1  0.5708880000000  0.4747670000000  0.4227760000000 1.0
C      1  0.4781780000000  0.5684770000000  0.4793170000000 1.0
C      1  0.4961940000000  0.5834610000000  0.4607120000000 1.0
C      1  0.5261050000000  0.5751250000000  0.4841120000000 1.0
C      1  0.5376400000000  0.5778760000000  0.5126570000000 1.0
C      1  0.5166070000000  0.5754460000000  0.5335910000000 1.0
C      1  0.4851810000000  0.5745990000000  0.5278080000000 1.0
C      1  0.4633820000000  0.5763520000000  0.5048620000000 1.0
C      1  0.4890840000000  0.5725130000000  0.5985970000000 1.0
C      1  0.4122100000000  0.5703870000000  0.5516120000000 1.0
C      1  0.4068530000000  0.5680520000000  0.4644220000000 1.0
C      1  0.4698090000000  0.5741980000000  0.4069600000000 1.0
C      1  0.5547130000000  0.5761370000000  0.4172400000000 1.0
C      1  0.6032730000000  0.5693060000000  0.4902980000000 1.0
C      1  0.5720320000000  0.5729060000000  0.5711310000000 1.0
C      1  0.5599020000000  0.4333330000000  0.4550930000000 1.0
C      1  0.5726910000000  0.4337730000000  0.5240770000000 1.0
C      1  0.5321360000000  0.4441530000000  0.5665770000000 1.0
C      1  0.4613790000000  0.4365560000000  0.5730790000000 1.0
C      1  0.4307710000000  0.4233660000000  0.4935680000000 1.0
C      1  0.4416500000000  0.4309080000000  0.4441220000000 1.0
C      1  0.5047310000000  0.4338290000000  0.4229730000000 1.0
C      1  0.4707780000000  0.5068550000000  0.4342280000000 1.0
C      1  0.5276940000000  0.5155840000000  0.4355700000000 1.0
C      1  0.5703170000000  0.5110600000000  0.4881410000000 1.0
C      1  0.5600750000000  0.5145830000000  0.5497680000000 1.0
C      1  0.4968650000000  0.5117190000000  0.5729060000000 1.0
C      1  0.4420970000000  0.5165350000000  0.5479820000000 1.0
C      1  0.4301300000000  0.5105630000000  0.4805080000000 1.0
C      1  0.5638410000000  0.4861080000000  0.5052130000000 1.0
C      1  0.5398270000000  0.4919040000000  0.5547620000000 1.0
C      1  0.4837480000000  0.4860630000000  0.5643390000000 1.0
C      1  0.4470330000000  0.4955090000000  0.5277450000000 1.0
C      1  0.4471550000000  0.4890630000000  0.4670900000000 1.0
C      1  0.4884060000000  0.4831000000000  0.4368400000000 1.0
C      1  0.5397650000000  0.4929320000000  0.4531840000000 1.0
C      1  0.4005960000000  0.4944440000000  0.5490770000000 1.0
C      1  0.3969930000000  0.4967730000000  0.4489700000000 1.0
C      1  0.4745310000000  0.4999250000000  0.3845460000000 1.0
C      1  0.5709000000000  0.5029070000000  0.4124550000000 1.0
C      1  0.6153200000000  0.4970060000000  0.4961130000000 1.0
C      1  0.5741800000000  0.5001130000000  0.5924130000000 1.0
C      1  0.4774980000000  0.5018930000000  0.6162720000000 1.0
C      1  0.5966340000000  0.5605930000000  0.4635450000000 1.0
C      1  0.5921220000000  0.5616940000000  0.5533990000000 1.0
C      1  0.5158210000000  0.5620630000000  0.6020310000000 1.0
C      1  0.4278010000000  0.5618110000000  0.5746720000000 1.0
C      1  0.3961940000000  0.5580840000000  0.4894720000000 1.0
C      1  0.4456150000000  0.5612820000000  0.4154340000000 1.0
C      1  0.5337050000000  0.5658170000000  0.3998020000000 1.0
C      1  0.5201050000000  0.4002180000000  0.4667230000000 1.0
C      1  0.5419630000000  0.4007290000000  0.4981460000000 1.0
C      1  0.5124760000000  0.3933360000000  0.5365970000000 1.0
C      1  0.4841450000000  0.4007000000000  0.5457390000000 1.0
C      1  0.4675290000000  0.4001790000000  0.5204720000000 1.0
C      1  0.4707670000000  0.3958420000000  0.4733310000000 1.0
C      1  0.4925440000000  0.3978310000000  0.4538100000000 1.0
C      1  0.5450480000000  0.5554740000000  0.4698960000000 1.0
C      1  0.5554680000000  0.5532600000000  0.5163670000000 1.0
C      1  0.5235710000000  0.5516880000000  0.5510570000000 1.0
C      1  0.4746500000000  0.5535070000000  0.5480030000000 1.0
C      1  0.4439180000000  0.5528950000000  0.5098000000000 1.0
C      1  0.4613340000000  0.5467910000000  0.4649580000000 1.0
C      1  0.5101190000000  0.5639620000000  0.4442410000000 1.0
C      1  0.5247730000000  0.5000000000000  0.5813130000000 1.0
C      1  0.4527540000000  0.5085670000000  0.5766410000000 1.0
C      1  0.4155300000000  0.5000660000000  0.5053630000000 1.0
C      1  0.4395220000000  0.4999930000000  0.4301700000000 1.0
C      1  0.5091120000000  0.5057360000000  0.4122070000000 1.0
C      1  0.5698020000000  0.5004120000000  0.4595270000000 1.0
C      1  0.5849160000000  0.5052060000000  0.5333410000000 1.0
C      1  0.4876930000000  0.5240330000000  0.6003290000000 1.0
C      1  0.4125370000000  0.5216800000000  0.5533520000000 1.0
C      1  0.4063950000000  0.5199650000000  0.4636660000000 1.0
C      1  0.4711710000000  0.5249390000000  0.3995510000000 1.0
C      1  0.5520730000000  0.5266990000000  0.4180940000000 1.0
C      1  0.5999010000000  0.5208600000000  0.4897550000000 1.0
C      1  0.5736600000000  0.5242910000000  0.5754770000000 1.0
C      1  0.3910000000000  0.5149790000000  0.5093410000000 1.0
C      1  0.4246710000000  0.5188470000000  0.4144120000000 1.0
C      1  0.5159650000000  0.5214350000000  0.3884860000000 1.0
C      1  0.5876790000000  0.5179630000000  0.4433000000000 1.0
C      1  0.6088390000000  0.5188430000000  0.5421910000000 1.0
C      1  0.5350360000000  0.5193970000000  0.6003460000000 1.0
C      1  0.4367350000000  0.5224000000000  0.5970160000000 1.0
C      1  0.5221550000000  0.4901790000000  0.4777440000000 1.0
C      1  0.5338760000000  0.4790240000000  0.5046230000000 1.0
C      1  0.5212450000000  0.4868250000000  0.5311610000000 1.0
C      1  0.4924550000000  0.4783450000000  0.5361430000000 1.0
C      1  0.4762620000000  0.4955510000000  0.5155630000000 1.0
C      1  0.4720200000000  0.4815620000000  0.4844240000000 1.0
C      1  0.4963110000000  0.4786030000000  0.4667610000000 1.0
C      1  0.4143120000000  0.5615490000000  0.5140910000000 1.0
C      1  0.4393690000000  0.5593400000000  0.4453560000000 1.0
C      1  0.5070990000000  0.5683080000000  0.4139470000000 1.0
C      1  0.5678460000000  0.5659280000000  0.4523460000000 1.0
C      1  0.5848150000000  0.5613410000000  0.5232090000000 1.0
C      1  0.5351550000000  0.5631490000000  0.5783970000000 1.0
C      1  0.4601410000000  0.5638830000000  0.5743640000000 1.0
C      1  0.4891770000000  0.4358400000000  0.4759920000000 1.0
C      1  0.5173090000000  0.4468840000000  0.4743860000000 1.0
C      1  0.5291200000000  0.4484390000000  0.5013870000000 1.0
C      1  0.5090230000000  0.4361430000000  0.5184020000000 1.0
C      1  0.4860620000000  0.4481410000000  0.5322160000000 1.0
C      1  0.4586730000000  0.4474340000000  0.5182990000000 1.0
C      1  0.4647570000000  0.4527020000000  0.4878540000000 1.0
C      1  0.5143830000000  0.3892840000000  0.5048720000000 1.0
C      1  0.5127370000000  0.5295880000000  0.4923690000000 1.0
C      1  0.4959010000000  0.5202810000000  0.5181850000000 1.0
C      1  0.5022550000000  0.5581090000000  0.4960460000000 1.0
C      1  0.4869540000000  0.4038000000000  0.4976970000000 1.0
END
