TITL C-3577079-311-221 1.12839882250423e-06 125000 -1022.91847502219 0 0 162 (C1) n - 1
REM
REM in /home/bkarasulu/work/CARBON/AIRSS/Generating-Clusters/EDIP-Nigel-Params/with-SteepDescent/Higher-Symm/SD-CG/HFTN-CG
REM
REM
REM
REM
REM
REM ./C.cell (12c818d87b63d06a65506943cc24bca4)
REM
REM compiler GCC version 9.2.1 20190827 (Red Hat 9.2.1-1)
REM options -cpp -mtune=generic -march=x86-64 -g -O0 -fpre-include=/usr/include/finclude/math-vector-fortran.h
REM seed 254907801 -1804237657 -1130245063 1369173356 1780611157 -88532825 940509418 1649766025 1904905293 2022520983 1008548898 1572516067 1543390059 1611738930 -1488193722 2045807771 -171325050 1450432107 1495577336 637300158 359223687 1138973499 -582359056 -2044682513 -1757134282 -1423004119 976820289 18617493 -818016589 -578644689 -444752946 -276722518 1109671717
REM
CELL 1.54180   50.00000   50.00000   50.00000   90.00000   90.00000   90.00000
LATT -1
SFAC C  
C      1  0.5156520000000  0.4601840000000  0.5977390000000 1.0
C      1  0.5214710000000  0.5833110000000  0.5722940000000 1.0
C      1  0.5219240000000  0.5919550000000  0.4447020000000 1.0
C      1  0.5196140000000  0.4703380000000  0.3904220000000 1.0
C      1  0.5215390000000  0.3900690000000  0.4943280000000 1.0
C      1  0.5574080000000  0.5551360000000  0.4708740000000 1.0
C      1  0.5626990000000  0.4862640000000  0.4207920000000 1.0
C      1  0.5594240000000  0.4354920000000  0.4897580000000 1.0
C      1  0.5587820000000  0.4735010000000  0.5560570000000 1.0
C      1  0.5607320000000  0.5484880000000  0.5477460000000 1.0
C      1  0.4509910000000  0.5818070000000  0.4635120000000 1.0
C      1  0.4518600000000  0.4910940000000  0.4063640000000 1.0
C      1  0.4514260000000  0.3991950000000  0.4765900000000 1.0
C      1  0.4445320000000  0.4521320000000  0.5761070000000 1.0
C      1  0.4503490000000  0.5589520000000  0.5678100000000 1.0
C      1  0.6170230000000  0.5050760000000  0.4733670000000 1.0
C      1  0.6164370000000  0.4793820000000  0.4883050000000 1.0
C      1  0.6173890000000  0.4842110000000  0.5174400000000 1.0
C      1  0.6170360000000  0.5128990000000  0.5210420000000 1.0
C      1  0.6160280000000  0.5253740000000  0.4943500000000 1.0
C      1  0.5337290000000  0.4711130000000  0.4913600000000 1.0
C      1  0.5334260000000  0.4797440000000  0.5204270000000 1.0
C      1  0.5340600000000  0.5113870000000  0.5227020000000 1.0
C      1  0.5297190000000  0.5260650000000  0.4968960000000 1.0
C      1  0.5359950000000  0.5110320000000  0.4723430000000 1.0
C      1  0.5156510000000  0.4279010000000  0.4630720000000 1.0
C      1  0.5147810000000  0.4452880000000  0.5528520000000 1.0
C      1  0.5169390000000  0.5343620000000  0.5728290000000 1.0
C      1  0.5151990000000  0.5778050000000  0.4908210000000 1.0
C      1  0.5174890000000  0.5144150000000  0.4132030000000 1.0
C      1  0.4190350000000  0.4265810000000  0.5015510000000 1.0
C      1  0.4161350000000  0.4884410000000  0.5686480000000 1.0
C      1  0.4262610000000  0.5559020000000  0.5310370000000 1.0
C      1  0.4248730000000  0.5481580000000  0.4511310000000 1.0
C      1  0.4352420000000  0.4750670000000  0.4439600000000 1.0
C      1  0.4771470000000  0.4035430000000  0.4890980000000 1.0
C      1  0.4718830000000  0.4673640000000  0.5772080000000 1.0
C      1  0.4778830000000  0.5688140000000  0.5631580000000 1.0
C      1  0.4784560000000  0.5780490000000  0.4536360000000 1.0
C      1  0.4784540000000  0.4794080000000  0.4098440000000 1.0
C      1  0.5041490000000  0.4181360000000  0.5447300000000 1.0
C      1  0.5058070000000  0.5183890000000  0.5972690000000 1.0
C      1  0.5051360000000  0.5976040000000  0.5120700000000 1.0
C      1  0.5052330000000  0.5407170000000  0.4041980000000 1.0
C      1  0.5038190000000  0.4255360000000  0.4353910000000 1.0
C      1  0.5032980000000  0.4909770000000  0.3996830000000 1.0
C      1  0.5041210000000  0.4033330000000  0.4774940000000 1.0
C      1  0.4987840000000  0.4521570000000  0.5774640000000 1.0
C      1  0.5038900000000  0.5620020000000  0.5751380000000 1.0
C      1  0.5034000000000  0.5880550000000  0.4648670000000 1.0
C      1  0.4508220000000  0.4730410000000  0.4901030000000 1.0
C      1  0.4269640000000  0.4788770000000  0.5420080000000 1.0
C      1  0.4502180000000  0.4947970000000  0.5347380000000 1.0
C      1  0.4438870000000  0.5224750000000  0.5209990000000 1.0
C      1  0.4449260000000  0.5183850000000  0.4772380000000 1.0
C      1  0.4471100000000  0.5995240000000  0.5447440000000 1.0
C      1  0.4489520000000  0.5735710000000  0.4169780000000 1.0
C      1  0.4474920000000  0.4434550000000  0.4073490000000 1.0
C      1  0.4466130000000  0.3932570000000  0.5229010000000 1.0
C      1  0.4452610000000  0.4903940000000  0.6090340000000 1.0
C      1  0.4612660000000  0.4672900000000  0.4614580000000 1.0
C      1  0.4664000000000  0.4536250000000  0.5082410000000 1.0
C      1  0.4713650000000  0.4910480000000  0.5554580000000 1.0
C      1  0.4648580000000  0.5464510000000  0.5279480000000 1.0
C      1  0.4609220000000  0.5392420000000  0.4610970000000 1.0
C      1  0.3999820000000  0.4640020000000  0.4755370000000 1.0
C      1  0.3899990000000  0.4574470000000  0.5245230000000 1.0
C      1  0.3965280000000  0.5228640000000  0.5486360000000 1.0
C      1  0.3971850000000  0.5524310000000  0.4957500000000 1.0
C      1  0.4017830000000  0.5097780000000  0.4540220000000 1.0
C      1  0.4751170000000  0.5954550000000  0.5511620000000 1.0
C      1  0.4768810000000  0.5761580000000  0.4243700000000 1.0
C      1  0.4750680000000  0.4505700000000  0.4062400000000 1.0
C      1  0.4745000000000  0.3937510000000  0.5164040000000 1.0
C      1  0.4717810000000  0.4825230000000  0.6032610000000 1.0
C      1  0.5736310000000  0.4867140000000  0.5220980000000 1.0
C      1  0.5644050000000  0.5188650000000  0.5226810000000 1.0
C      1  0.5721660000000  0.5268060000000  0.4923660000000 1.0
C      1  0.5651890000000  0.5013850000000  0.4740450000000 1.0
C      1  0.5646790000000  0.4746180000000  0.4918460000000 1.0
C      1  0.5487070000000  0.4610900000000  0.4244210000000 1.0
C      1  0.5469770000000  0.4236610000000  0.5142780000000 1.0
C      1  0.5459250000000  0.4909700000000  0.5765090000000 1.0
C      1  0.5470060000000  0.5711500000000  0.5351640000000 1.0
C      1  0.5422790000000  0.5486860000000  0.4448490000000 1.0
C      1  0.4162990000000  0.5092340000000  0.4797180000000 1.0
C      1  0.4176900000000  0.4804900000000  0.4914930000000 1.0
C      1  0.4057860000000  0.4818220000000  0.5204730000000 1.0
C      1  0.3941150000000  0.5101160000000  0.5236450000000 1.0
C      1  0.4042410000000  0.5255700000000  0.5012510000000 1.0
C      1  0.4766940000000  0.5465090000000  0.4131100000000 1.0
C      1  0.4743570000000  0.4294140000000  0.4315650000000 1.0
C      1  0.4742860000000  0.4146730000000  0.5399040000000 1.0
C      1  0.4758970000000  0.5122390000000  0.5978700000000 1.0
C      1  0.4760380000000  0.5954440000000  0.5191150000000 1.0
C      1  0.5872860000000  0.4446400000000  0.5245110000000 1.0
C      1  0.5894530000000  0.5064840000000  0.5650970000000 1.0
C      1  0.5877310000000  0.5622460000000  0.5135060000000 1.0
C      1  0.5891260000000  0.5358770000000  0.4413970000000 1.0
C      1  0.5835240000000  0.4612890000000  0.4542060000000 1.0
C      1  0.4181040000000  0.5244470000000  0.4366060000000 1.0
C      1  0.4164770000000  0.4540330000000  0.4558080000000 1.0
C      1  0.4107210000000  0.4379520000000  0.5271420000000 1.0
C      1  0.4160300000000  0.5183490000000  0.5686930000000 1.0
C      1  0.4192060000000  0.5670480000000  0.5049350000000 1.0
C      1  0.5058510000000  0.5447780000000  0.4961360000000 1.0
C      1  0.5206650000000  0.5260160000000  0.4503580000000 1.0
C      1  0.5081840000000  0.4576710000000  0.4792310000000 1.0
C      1  0.5085050000000  0.4671930000000  0.5311650000000 1.0
C      1  0.5098050000000  0.5195870000000  0.5417090000000 1.0
C      1  0.4321220000000  0.5758680000000  0.5524760000000 1.0
C      1  0.4329560000000  0.5740310000000  0.4412750000000 1.0
C      1  0.4348560000000  0.4685360000000  0.4137440000000 1.0
C      1  0.4323920000000  0.4012050000000  0.4987980000000 1.0
C      1  0.4294660000000  0.4738370000000  0.5909180000000 1.0
C      1  0.5892860000000  0.4767690000000  0.5614820000000 1.0
C      1  0.5898130000000  0.5498870000000  0.5406290000000 1.0
C      1  0.5866130000000  0.5560390000000  0.4635790000000 1.0
C      1  0.5856140000000  0.4851330000000  0.4386280000000 1.0
C      1  0.5888630000000  0.4380590000000  0.4957160000000 1.0
C      1  0.5219970000000  0.5039210000000  0.6151000000000 1.0
C      1  0.5213050000000  0.6089170000000  0.5319420000000 1.0
C      1  0.5209760000000  0.5636460000000  0.4060090000000 1.0
C      1  0.5191480000000  0.4278660000000  0.4123550000000 1.0
C      1  0.5205460000000  0.3955120000000  0.5418660000000 1.0
C      1  0.5463340000000  0.4464540000000  0.5565680000000 1.0
C      1  0.5482660000000  0.5381550000000  0.5728770000000 1.0
C      1  0.5462110000000  0.5774470000000  0.4872800000000 1.0
C      1  0.5491500000000  0.5119700000000  0.4150390000000 1.0
C      1  0.5471060000000  0.4278650000000  0.4631920000000 1.0
C      1  0.4600340000000  0.4415050000000  0.5335350000000 1.0
C      1  0.4681130000000  0.5156240000000  0.5698180000000 1.0
C      1  0.4668650000000  0.5689760000000  0.5074170000000 1.0
C      1  0.4673030000000  0.5271450000000  0.4343850000000 1.0
C      1  0.4617110000000  0.4378980000000  0.4581920000000 1.0
C      1  0.5623430000000  0.5780640000000  0.5117770000000 1.0
C      1  0.5624100000000  0.5357830000000  0.4271740000000 1.0
C      1  0.5623340000000  0.4441010000000  0.4436030000000 1.0
C      1  0.5627030000000  0.4326010000000  0.5365130000000 1.0
C      1  0.5633530000000  0.5138630000000  0.5793290000000 1.0
C      1  0.4968130000000  0.4923330000000  0.5430010000000 1.0
C      1  0.4932790000000  0.5372110000000  0.5232000000000 1.0
C      1  0.4936700000000  0.5303440000000  0.4698990000000 1.0
C      1  0.4907110000000  0.4779570000000  0.4638890000000 1.0
C      1  0.4951070000000  0.4546700000000  0.5064130000000 1.0
C      1  0.5331870000000  0.5720050000000  0.4294570000000 1.0
C      1  0.5329870000000  0.4502120000000  0.4038520000000 1.0
C      1  0.5335630000000  0.3987580000000  0.5174500000000 1.0
C      1  0.5317940000000  0.4825280000000  0.6001630000000 1.0
C      1  0.5345930000000  0.5921480000000  0.5496130000000 1.0
C      1  0.4438970000000  0.5304660000000  0.5612660000000 1.0
C      1  0.4442260000000  0.5690910000000  0.4891440000000 1.0
C      1  0.4436600000000  0.5098740000000  0.4286670000000 1.0
C      1  0.4326000000000  0.4306750000000  0.4656080000000 1.0
C      1  0.4338930000000  0.4487800000000  0.5460210000000 1.0
C      1  0.5962370000000  0.5088660000000  0.4520050000000 1.0
C      1  0.6015580000000  0.4563920000000  0.4767300000000 1.0
C      1  0.6035350000000  0.4660670000000  0.5370710000000 1.0
C      1  0.6023110000000  0.5237290000000  0.5440860000000 1.0
C      1  0.6020980000000  0.5513790000000  0.4893760000000 1.0
C      1  0.4619030000000  0.5009760000000  0.4932010000000 1.0
C      1  0.4885340000000  0.5023420000000  0.4806500000000 1.0
END
