TITL C-3577079-311-224 -1.97590439023141e-06 125000 -955.700292470829 0 0 153 (C1) n - 1
REM
REM in /home/bkarasulu/work/CARBON/AIRSS/Generating-Clusters/EDIP-Nigel-Params/with-SteepDescent/Higher-Symm/SD-CG/HFTN-CG
REM
REM
REM
REM
REM
REM ./C.cell (12c818d87b63d06a65506943cc24bca4)
REM
REM compiler GCC version 9.2.1 20190827 (Red Hat 9.2.1-1)
REM options -cpp -mtune=generic -march=x86-64 -g -O0 -fpre-include=/usr/include/finclude/math-vector-fortran.h
REM seed 315881928 376089824 -744274284 -179522480 -173251323 -1337905294 390064563 1881141858 15360947 866579315 1885441682 438466898 -1028410620 -1510609441 1787198546 1893943197 1770465531 1142488699 -1931916568 -2127498871 -812264939 143194995 1687287059 -576790879 513076713 1753972313 -2006998247 1293056050 -1064381537 -856742410 1925424702 -1578284803 -1011126834
REM
CELL 1.54180   50.00000   50.00000   50.00000   90.00000   90.00000   90.00000
LATT -1
SFAC C  
C      1  0.5686730000000  0.4644230000000  0.5941190000000 1.0
C      1  0.3882430000000  0.4704290000000  0.5122010000000 1.0
C      1  0.5482470000000  0.4777220000000  0.4002980000000 1.0
C      1  0.5677790000000  0.5360390000000  0.5942830000000 1.0
C      1  0.3945350000000  0.5222720000000  0.5095930000000 1.0
C      1  0.5452610000000  0.5218760000000  0.3961840000000 1.0
C      1  0.5701260000000  0.4609870000000  0.4038050000000 1.0
C      1  0.4015780000000  0.4819800000000  0.4912720000000 1.0
C      1  0.5461900000000  0.4778970000000  0.6027070000000 1.0
C      1  0.5680590000000  0.5366520000000  0.4045340000000 1.0
C      1  0.3866120000000  0.5392580000000  0.4889640000000 1.0
C      1  0.5457760000000  0.5221970000000  0.6036450000000 1.0
C      1  0.5518640000000  0.5133770000000  0.5268390000000 1.0
C      1  0.4388980000000  0.5164040000000  0.5334510000000 1.0
C      1  0.5036170000000  0.5147680000000  0.4263440000000 1.0
C      1  0.5525990000000  0.4856430000000  0.5234510000000 1.0
C      1  0.4382360000000  0.4835180000000  0.5323600000000 1.0
C      1  0.5045280000000  0.4827030000000  0.4263350000000 1.0
C      1  0.5574230000000  0.5142020000000  0.4624870000000 1.0
C      1  0.4410940000000  0.5149320000000  0.4706270000000 1.0
C      1  0.5021170000000  0.5153530000000  0.5722530000000 1.0
C      1  0.5580720000000  0.4838750000000  0.4621420000000 1.0
C      1  0.4435200000000  0.4832960000000  0.4677010000000 1.0
C      1  0.5020770000000  0.4833910000000  0.5717480000000 1.0
C      1  0.5821460000000  0.4738930000000  0.4797780000000 1.0
C      1  0.4730660000000  0.4754070000000  0.5833970000000 1.0
C      1  0.4458740000000  0.4754180000000  0.4365400000000 1.0
C      1  0.5808820000000  0.5246450000000  0.4803300000000 1.0
C      1  0.4729960000000  0.5231720000000  0.5840600000000 1.0
C      1  0.4431010000000  0.5242780000000  0.4394900000000 1.0
C      1  0.5793500000000  0.4750590000000  0.5141520000000 1.0
C      1  0.4754090000000  0.4747100000000  0.4157170000000 1.0
C      1  0.4421060000000  0.4756700000000  0.5643000000000 1.0
C      1  0.5777930000000  0.5246520000000  0.5154050000000 1.0
C      1  0.4738100000000  0.5218660000000  0.4172630000000 1.0
C      1  0.4424260000000  0.5236540000000  0.5650990000000 1.0
C      1  0.4718150000000  0.5138490000000  0.6122590000000 1.0
C      1  0.4188210000000  0.5143280000000  0.4261710000000 1.0
C      1  0.6061950000000  0.5147940000000  0.4675700000000 1.0
C      1  0.4720330000000  0.4842110000000  0.6117890000000 1.0
C      1  0.4203190000000  0.4853080000000  0.4242700000000 1.0
C      1  0.6068410000000  0.4849920000000  0.4671710000000 1.0
C      1  0.4722010000000  0.5132670000000  0.3885320000000 1.0
C      1  0.4179510000000  0.5143930000000  0.5792210000000 1.0
C      1  0.6010560000000  0.5151010000000  0.5312460000000 1.0
C      1  0.4736700000000  0.4836110000000  0.3874690000000 1.0
C      1  0.4178430000000  0.4848520000000  0.5788890000000 1.0
C      1  0.6017560000000  0.4859030000000  0.5309260000000 1.0
C      1  0.5581420000000  0.5599650000000  0.5566090000000 1.0
C      1  0.4167750000000  0.5611510000000  0.5296670000000 1.0
C      1  0.5167490000000  0.5597810000000  0.4092880000000 1.0
C      1  0.5618790000000  0.4380920000000  0.5579200000000 1.0
C      1  0.4162420000000  0.4382100000000  0.5299630000000 1.0
C      1  0.5184110000000  0.4389510000000  0.4088560000000 1.0
C      1  0.5607110000000  0.5618650000000  0.4407820000000 1.0
C      1  0.4223620000000  0.5618010000000  0.4758540000000 1.0
C      1  0.5162300000000  0.5596220000000  0.5900560000000 1.0
C      1  0.5622500000000  0.4364760000000  0.4406720000000 1.0
C      1  0.4209670000000  0.4391860000000  0.4755910000000 1.0
C      1  0.5175670000000  0.4395380000000  0.5890820000000 1.0
C      1  0.4007590000000  0.4789170000000  0.4451640000000 1.0
C      1  0.5998250000000  0.4824360000000  0.4381170000000 1.0
C      1  0.5014690000000  0.4824100000000  0.6198990000000 1.0
C      1  0.3993140000000  0.5169180000000  0.4472590000000 1.0
C      1  0.5997140000000  0.5177810000000  0.4384360000000 1.0
C      1  0.5011880000000  0.5158360000000  0.6204510000000 1.0
C      1  0.3960720000000  0.4829410000000  0.5578070000000 1.0
C      1  0.5962730000000  0.4808570000000  0.5589570000000 1.0
C      1  0.5031030000000  0.4835440000000  0.3787390000000 1.0
C      1  0.3965730000000  0.5168040000000  0.5575890000000 1.0
C      1  0.5951110000000  0.5194710000000  0.5591510000000 1.0
C      1  0.5011010000000  0.5167030000000  0.3788430000000 1.0
C      1  0.5266960000000  0.5274240000000  0.5257710000000 1.0
C      1  0.4589790000000  0.5318740000000  0.5161720000000 1.0
C      1  0.5099590000000  0.5289280000000  0.4519650000000 1.0
C      1  0.5309960000000  0.4679790000000  0.5299610000000 1.0
C      1  0.4579870000000  0.4674060000000  0.5150790000000 1.0
C      1  0.5113530000000  0.4675060000000  0.4516390000000 1.0
C      1  0.5313090000000  0.5250350000000  0.4705150000000 1.0
C      1  0.4621910000000  0.5289870000000  0.4870250000000 1.0
C      1  0.5068740000000  0.5308830000000  0.5467050000000 1.0
C      1  0.5326780000000  0.4718780000000  0.4704850000000 1.0
C      1  0.4630760000000  0.4696440000000  0.4861120000000 1.0
C      1  0.5067200000000  0.4686240000000  0.5455080000000 1.0
C      1  0.4938930000000  0.4313380000000  0.4243990000000 1.0
C      1  0.5617220000000  0.4297230000000  0.5288540000000 1.0
C      1  0.4411750000000  0.4309960000000  0.5444780000000 1.0
C      1  0.4929210000000  0.5660850000000  0.4258660000000 1.0
C      1  0.5566360000000  0.5674870000000  0.5272120000000 1.0
C      1  0.4416030000000  0.5683800000000  0.5447230000000 1.0
C      1  0.4924450000000  0.4314010000000  0.5746980000000 1.0
C      1  0.5606970000000  0.4290220000000  0.4697920000000 1.0
C      1  0.4456710000000  0.4297360000000  0.4603660000000 1.0
C      1  0.4913020000000  0.5675850000000  0.5755620000000 1.0
C      1  0.5575550000000  0.5678230000000  0.4700410000000 1.0
C      1  0.4470340000000  0.5695150000000  0.4606670000000 1.0
C      1  0.5377160000000  0.4430700000000  0.5154430000000 1.0
C      1  0.4644030000000  0.4411750000000  0.5286940000000 1.0
C      1  0.4978400000000  0.4406870000000  0.4526310000000 1.0
C      1  0.5320230000000  0.5530300000000  0.5128240000000 1.0
C      1  0.4655350000000  0.5584370000000  0.5293620000000 1.0
C      1  0.4982040000000  0.5565150000000  0.4539420000000 1.0
C      1  0.5401310000000  0.4472750000000  0.4849790000000 1.0
C      1  0.4705500000000  0.4448670000000  0.4701500000000 1.0
C      1  0.4936350000000  0.4415350000000  0.5464510000000 1.0
C      1  0.5326510000000  0.5523710000000  0.4818930000000 1.0
C      1  0.4710090000000  0.5535080000000  0.4710310000000 1.0
C      1  0.4937320000000  0.5579610000000  0.5472330000000 1.0
C      1  0.4755440000000  0.4164720000000  0.4826090000000 1.0
C      1  0.5297760000000  0.4101300000000  0.4834170000000 1.0
C      1  0.5025490000000  0.4182590000000  0.5268060000000 1.0
C      1  0.4767190000000  0.5822210000000  0.4832490000000 1.0
C      1  0.5309730000000  0.5913900000000  0.4843410000000 1.0
C      1  0.5038150000000  0.5825150000000  0.5270740000000 1.0
C      1  0.4769900000000  0.4187380000000  0.5120010000000 1.0
C      1  0.5289970000000  0.4135870000000  0.5145380000000 1.0
C      1  0.5040380000000  0.4141810000000  0.4693910000000 1.0
C      1  0.4779330000000  0.5807700000000  0.5125410000000 1.0
C      1  0.5299440000000  0.5919290000000  0.5148960000000 1.0
C      1  0.5052240000000  0.5843510000000  0.4706680000000 1.0
C      1  0.5179070000000  0.4700490000000  0.5963460000000 1.0
C      1  0.4155010000000  0.4689760000000  0.4698390000000 1.0
C      1  0.5749810000000  0.4631930000000  0.4323040000000 1.0
C      1  0.5173440000000  0.5290210000000  0.5972140000000 1.0
C      1  0.4042730000000  0.5394410000000  0.4666690000000 1.0
C      1  0.5737810000000  0.5351270000000  0.4332160000000 1.0
C      1  0.5195530000000  0.4697170000000  0.4021280000000 1.0
C      1  0.4083770000000  0.4683620000000  0.5330220000000 1.0
C      1  0.5784180000000  0.4599250000000  0.5688090000000 1.0
C      1  0.5173330000000  0.5295500000000  0.4017700000000 1.0
C      1  0.4101930000000  0.5305750000000  0.5329270000000 1.0
C      1  0.5763870000000  0.5399560000000  0.5684080000000 1.0
C      1  0.5807900000000  0.5556220000000  0.4837000000000 1.0
C      1  0.4682130000000  0.5533360000000  0.5861000000000 1.0
C      1  0.4452410000000  0.5545370000000  0.4348730000000 1.0
C      1  0.5836160000000  0.4427310000000  0.4835960000000 1.0
C      1  0.4689770000000  0.4451680000000  0.5854210000000 1.0
C      1  0.4456500000000  0.4442100000000  0.4334870000000 1.0
C      1  0.5795360000000  0.5551050000000  0.5132900000000 1.0
C      1  0.4689430000000  0.5520910000000  0.4168570000000 1.0
C      1  0.4425190000000  0.5539060000000  0.5702150000000 1.0
C      1  0.5823720000000  0.4444450000000  0.5135590000000 1.0
C      1  0.4698510000000  0.4447670000000  0.4152240000000 1.0
C      1  0.4430200000000  0.4455380000000  0.5697340000000 1.0
C      1  0.5405530000000  0.4308150000000  0.5748870000000 1.0
C      1  0.5411510000000  0.4296550000000  0.4232370000000 1.0
C      1  0.5398620000000  0.5686040000000  0.4231650000000 1.0
C      1  0.4176740000000  0.4311390000000  0.5024650000000 1.0
C      1  0.5383640000000  0.5682040000000  0.5746840000000 1.0
C      1  0.4183420000000  0.5697550000000  0.5026160000000 1.0
C      1  0.5533980000000  0.5015390000000  0.4129400000000 1.0
C      1  0.5503720000000  0.4997610000000  0.6191680000000 1.0
C      1  0.4127330000000  0.5068510000000  0.4952320000000 1.0
END
