TITL C-3578194-7807-459 -4.48630546206266e-07 125000 -1094.59020296831 0 0 175 (C1) n - 1
REM
REM in /home/bkarasulu/work/CARBON/AIRSS/Generating-Clusters/EDIP-Nigel-Params/with-SteepDescent/Higher-Symm/SD-CG/HFTN-CG
REM
REM
REM
REM
REM
REM ./C.cell (12c818d87b63d06a65506943cc24bca4)
REM
REM compiler GCC version 9.2.1 20190827 (Red Hat 9.2.1-1)
REM options -cpp -mtune=generic -march=x86-64 -g -O0 -fpre-include=/usr/include/finclude/math-vector-fortran.h
REM seed 1446784922 262483037 -640067617 781485474 154892271 -313628526 -807431403 613170918 67091359 1595840036 -1093367698 1146478941 -521580785 846186866 -2143900986 1433955091 -1160970662 1002745940 759963519 -1488927676 -526616829 969019484 782580352 1751949885 -438605605 -666442000 639528247 -1755315072 -1965527066 -1212209766 -1859628672 -1383599696 1014072563
REM
CELL 1.54180   50.00000   50.00000   50.00000   90.00000   90.00000   90.00000
LATT -1
SFAC C  
C      1  0.5743680000000  0.4310460000000  0.5226380000000 1.0
C      1  0.4454570000000  0.4353500000000  0.5504800000000 1.0
C      1  0.4841320000000  0.4254560000000  0.4254850000000 1.0
C      1  0.4512670000000  0.5504350000000  0.4892570000000 1.0
C      1  0.5253220000000  0.5414880000000  0.4658120000000 1.0
C      1  0.5054640000000  0.5294020000000  0.5504780000000 1.0
C      1  0.5794540000000  0.4730950000000  0.5481340000000 1.0
C      1  0.4236090000000  0.4667650000000  0.5441360000000 1.0
C      1  0.4991690000000  0.4732340000000  0.4100280000000 1.0
C      1  0.5611870000000  0.5466410000000  0.5015720000000 1.0
C      1  0.4619510000000  0.5500930000000  0.5597170000000 1.0
C      1  0.4659070000000  0.5510190000000  0.4470750000000 1.0
C      1  0.4381040000000  0.5538530000000  0.5176900000000 1.0
C      1  0.5127490000000  0.5473140000000  0.4379060000000 1.0
C      1  0.5372820000000  0.5444520000000  0.5461250000000 1.0
C      1  0.5818340000000  0.4834500000000  0.4978300000000 1.0
C      1  0.4584990000000  0.4875000000000  0.5646860000000 1.0
C      1  0.4546430000000  0.4755970000000  0.4319180000000 1.0
C      1  0.4841700000000  0.5896680000000  0.5511140000000 1.0
C      1  0.4644010000000  0.5983570000000  0.4546000000000 1.0
C      1  0.5594280000000  0.5900580000000  0.4875210000000 1.0
C      1  0.4819490000000  0.3932680000000  0.4565480000000 1.0
C      1  0.5517120000000  0.3975780000000  0.5037660000000 1.0
C      1  0.4734000000000  0.3982970000000  0.5409960000000 1.0
C      1  0.5342250000000  0.5401330000000  0.4189290000000 1.0
C      1  0.5479820000000  0.5405490000000  0.5739150000000 1.0
C      1  0.4097520000000  0.5514030000000  0.5093950000000 1.0
C      1  0.4892530000000  0.5261690000000  0.5246310000000 1.0
C      1  0.4781480000000  0.5401100000000  0.4826750000000 1.0
C      1  0.5234750000000  0.5380430000000  0.4964330000000 1.0
C      1  0.5242360000000  0.5013580000000  0.4470050000000 1.0
C      1  0.5360960000000  0.4984940000000  0.5533520000000 1.0
C      1  0.4373900000000  0.5099600000000  0.4997470000000 1.0
C      1  0.4808370000000  0.5081120000000  0.4801000000000 1.0
C      1  0.5245740000000  0.5084200000000  0.5042360000000 1.0
C      1  0.4957690000000  0.5022210000000  0.5069350000000 1.0
C      1  0.4392320000000  0.4248100000000  0.5236520000000 1.0
C      1  0.5110950000000  0.4170790000000  0.4291470000000 1.0
C      1  0.5569220000000  0.4207450000000  0.5427140000000 1.0
C      1  0.4380890000000  0.5808790000000  0.5320010000000 1.0
C      1  0.5019070000000  0.5750310000000  0.4266340000000 1.0
C      1  0.5687330000000  0.5802760000000  0.5366330000000 1.0
C      1  0.4927630000000  0.4856420000000  0.6157090000000 1.0
C      1  0.4069300000000  0.4877370000000  0.4320740000000 1.0
C      1  0.6064770000000  0.4909100000000  0.4505500000000 1.0
C      1  0.4572850000000  0.5785420000000  0.5547660000000 1.0
C      1  0.4735010000000  0.5773930000000  0.4358060000000 1.0
C      1  0.5733570000000  0.5737420000000  0.5079170000000 1.0
C      1  0.4392840000000  0.4864670000000  0.5864880000000 1.0
C      1  0.4491610000000  0.4876940000000  0.4046390000000 1.0
C      1  0.6112920000000  0.4895020000000  0.5029520000000 1.0
C      1  0.5635530000000  0.4771230000000  0.5216760000000 1.0
C      1  0.4519730000000  0.4795130000000  0.5380400000000 1.0
C      1  0.4850130000000  0.4743700000000  0.4374450000000 1.0
C      1  0.5764960000000  0.5003270000000  0.5893260000000 1.0
C      1  0.3926610000000  0.5053900000000  0.5169530000000 1.0
C      1  0.5377620000000  0.5014920000000  0.3973620000000 1.0
C      1  0.4650420000000  0.3945010000000  0.4973230000000 1.0
C      1  0.5247220000000  0.3962950000000  0.4691000000000 1.0
C      1  0.5170650000000  0.3951380000000  0.5338020000000 1.0
C      1  0.5319160000000  0.4390520000000  0.4333160000000 1.0
C      1  0.5453150000000  0.4399800000000  0.5632400000000 1.0
C      1  0.4285990000000  0.4442760000000  0.5018960000000 1.0
C      1  0.4970560000000  0.5648280000000  0.3984130000000 1.0
C      1  0.5865930000000  0.5647580000000  0.5525540000000 1.0
C      1  0.4112990000000  0.5827540000000  0.5432380000000 1.0
C      1  0.5652170000000  0.4737150000000  0.5957790000000 1.0
C      1  0.3924090000000  0.4778660000000  0.5053670000000 1.0
C      1  0.5488810000000  0.4752830000000  0.4019050000000 1.0
C      1  0.4899470000000  0.5166370000000  0.3849960000000 1.0
C      1  0.6024970000000  0.5169860000000  0.5478160000000 1.0
C      1  0.3955000000000  0.5347310000000  0.5567740000000 1.0
C      1  0.4468230000000  0.4301040000000  0.4562170000000 1.0
C      1  0.5630900000000  0.4352200000000  0.4752400000000 1.0
C      1  0.4929930000000  0.4328190000000  0.5688450000000 1.0
C      1  0.4833210000000  0.4563830000000  0.5840450000000 1.0
C      1  0.4398650000000  0.4501060000000  0.4345810000000 1.0
C      1  0.5790400000000  0.4615310000000  0.4755740000000 1.0
C      1  0.6156160000000  0.5035830000000  0.5268870000000 1.0
C      1  0.4103400000000  0.4867400000000  0.5619490000000 1.0
C      1  0.4737040000000  0.4905190000000  0.3873090000000 1.0
C      1  0.5229720000000  0.4299970000000  0.5820620000000 1.0
C      1  0.4210870000000  0.4306560000000  0.4755140000000 1.0
C      1  0.5608100000000  0.4323170000000  0.4434100000000 1.0
C      1  0.5295120000000  0.5811980000000  0.5700560000000 1.0
C      1  0.4246460000000  0.5957370000000  0.4879320000000 1.0
C      1  0.5496270000000  0.5857660000000  0.4390380000000 1.0
C      1  0.5865250000000  0.5396390000000  0.5392720000000 1.0
C      1  0.3986070000000  0.5614340000000  0.5544360000000 1.0
C      1  0.4837430000000  0.5392580000000  0.4024110000000 1.0
C      1  0.4640570000000  0.4096640000000  0.4392610000000 1.0
C      1  0.5741250000000  0.4166080000000  0.4974920000000 1.0
C      1  0.4664880000000  0.4169460000000  0.5632890000000 1.0
C      1  0.5557300000000  0.5451060000000  0.4685170000000 1.0
C      1  0.4902160000000  0.5475850000000  0.5709990000000 1.0
C      1  0.4392440000000  0.5577860000000  0.4628770000000 1.0
C      1  0.4946200000000  0.4489930000000  0.4544370000000 1.0
C      1  0.5431130000000  0.4530500000000  0.5163250000000 1.0
C      1  0.4712160000000  0.4546370000000  0.5276970000000 1.0
C      1  0.4700830000000  0.5173190000000  0.5953150000000 1.0
C      1  0.4367370000000  0.5200160000000  0.4354510000000 1.0
C      1  0.5947470000000  0.5278500000000  0.4795500000000 1.0
C      1  0.4091030000000  0.5232090000000  0.4980890000000 1.0
C      1  0.5436860000000  0.5132630000000  0.4248380000000 1.0
C      1  0.5478720000000  0.5112450000000  0.5784420000000 1.0
C      1  0.5314300000000  0.5525090000000  0.5935680000000 1.0
C      1  0.4049240000000  0.5757700000000  0.4949450000000 1.0
C      1  0.5594950000000  0.5517930000000  0.4249100000000 1.0
C      1  0.4112760000000  0.4574530000000  0.4352660000000 1.0
C      1  0.6012990000000  0.4610430000000  0.4544310000000 1.0
C      1  0.4936990000000  0.4553960000000  0.6122640000000 1.0
C      1  0.5126900000000  0.5969260000000  0.4706470000000 1.0
C      1  0.5216670000000  0.5880720000000  0.5201090000000 1.0
C      1  0.4749840000000  0.5990080000000  0.5035880000000 1.0
C      1  0.5811270000000  0.5336570000000  0.4343700000000 1.0
C      1  0.5154460000000  0.5289220000000  0.6020380000000 1.0
C      1  0.4008010000000  0.5232940000000  0.4684990000000 1.0
C      1  0.4455630000000  0.5995020000000  0.5096670000000 1.0
C      1  0.5214790000000  0.5934180000000  0.4424610000000 1.0
C      1  0.5391080000000  0.5753560000000  0.5419820000000 1.0
C      1  0.5241980000000  0.4727490000000  0.5585370000000 1.0
C      1  0.4482630000000  0.4675090000000  0.4920580000000 1.0
C      1  0.5339250000000  0.4741810000000  0.4516510000000 1.0
C      1  0.4188260000000  0.5387100000000  0.4500320000000 1.0
C      1  0.5956990000000  0.5439530000000  0.4560500000000 1.0
C      1  0.4884640000000  0.5356710000000  0.6075790000000 1.0
C      1  0.4081230000000  0.4581310000000  0.5195730000000 1.0
C      1  0.5265610000000  0.4586960000000  0.4110990000000 1.0
C      1  0.5694240000000  0.4564710000000  0.5714600000000 1.0
C      1  0.4406380000000  0.4947930000000  0.4508380000000 1.0
C      1  0.5706230000000  0.5092130000000  0.4818280000000 1.0
C      1  0.4826040000000  0.5048850000000  0.5697040000000 1.0
C      1  0.5824770000000  0.4510560000000  0.4323970000000 1.0
C      1  0.5222340000000  0.4488880000000  0.6055970000000 1.0
C      1  0.4015680000000  0.4493570000000  0.4625100000000 1.0
C      1  0.3937470000000  0.4967940000000  0.4575630000000 1.0
C      1  0.5856430000000  0.5038700000000  0.4308850000000 1.0
C      1  0.5204410000000  0.4996070000000  0.6100340000000 1.0
C      1  0.4851510000000  0.4083910000000  0.4831840000000 1.0
C      1  0.5251950000000  0.4107630000000  0.4936650000000 1.0
C      1  0.4960260000000  0.4108020000000  0.5235710000000 1.0
C      1  0.4841160000000  0.5977770000000  0.4763660000000 1.0
C      1  0.5307660000000  0.5906480000000  0.4926890000000 1.0
C      1  0.4926560000000  0.5840630000000  0.5228010000000 1.0
C      1  0.4747890000000  0.4365330000000  0.4744280000000 1.0
C      1  0.5354610000000  0.4402510000000  0.4882360000000 1.0
C      1  0.4963120000000  0.4395550000000  0.5377190000000 1.0
C      1  0.4551130000000  0.5084100000000  0.5238720000000 1.0
C      1  0.4941500000000  0.5026590000000  0.4492670000000 1.0
C      1  0.5462280000000  0.5028650000000  0.5258860000000 1.0
C      1  0.4524890000000  0.3991310000000  0.5209570000000 1.0
C      1  0.5094510000000  0.3939040000000  0.4466300000000 1.0
C      1  0.5443250000000  0.3971630000000  0.5318300000000 1.0
C      1  0.5189340000000  0.4581050000000  0.5334020000000 1.0
C      1  0.4727250000000  0.4557110000000  0.4977380000000 1.0
C      1  0.5186100000000  0.4579400000000  0.4705540000000 1.0
C      1  0.5649580000000  0.5753220000000  0.4618160000000 1.0
C      1  0.5005830000000  0.5763710000000  0.5720340000000 1.0
C      1  0.4361110000000  0.5883350000000  0.4613690000000 1.0
C      1  0.5000890000000  0.4807780000000  0.5771470000000 1.0
C      1  0.4518540000000  0.4949190000000  0.4796060000000 1.0
C      1  0.5622820000000  0.4812470000000  0.4581930000000 1.0
C      1  0.5082240000000  0.5023310000000  0.4056990000000 1.0
C      1  0.5797360000000  0.5006580000000  0.5588120000000 1.0
C      1  0.3978280000000  0.5086190000000  0.5465790000000 1.0
C      1  0.6144780000000  0.5056080000000  0.4770870000000 1.0
C      1  0.4565150000000  0.4958190000000  0.6090140000000 1.0
C      1  0.4292780000000  0.5090770000000  0.4094200000000 1.0
C      1  0.5593820000000  0.5313560000000  0.5284190000000 1.0
C      1  0.4483110000000  0.5343100000000  0.5380320000000 1.0
C      1  0.4869390000000  0.5309050000000  0.4322120000000 1.0
C      1  0.3966800000000  0.4750470000000  0.4764370000000 1.0
C      1  0.5722950000000  0.4771200000000  0.4204920000000 1.0
C      1  0.5362250000000  0.4751610000000  0.6011810000000 1.0
C      1  0.4959920000000  0.5488280000000  0.5059660000000 1.0
END
