TITL C-3578203-1966-532 -3.84895614360822e-06 125000 -854.409234443753 0 0 135 (C1) n - 1
REM
REM in /home/bkarasulu/work/CARBON/AIRSS/Generating-Clusters/EDIP-Nigel-Params/with-SteepDescent/Higher-Symm/SD-CG/HFTN-CG
REM
REM
REM
REM
REM
REM ./C.cell (12c818d87b63d06a65506943cc24bca4)
REM
REM compiler GCC version 9.2.1 20190827 (Red Hat 9.2.1-1)
REM options -cpp -mtune=generic -march=x86-64 -g -O0 -fpre-include=/usr/include/finclude/math-vector-fortran.h
REM seed -2028821064 1396087218 -2143198271 -1664635852 870801831 -449407387 -1702010709 513095895 1953637496 -229263978 673892105 343165211 -1398724603 -1155997436 -1143108896 -2027927579 -346374199 2119010296 -61573681 981180655 468712047 1821827220 -1745715048 -739975123 -1859399715 -784530010 657183354 -1177794275 -270663648 1558730283 213132508 -1584074666 -876438468
REM
CELL 1.54180   50.00000   50.00000   50.00000   90.00000   90.00000   90.00000
LATT -1
SFAC C  
C      1  0.5743870000000  0.5583870000000  0.4705910000000 1.0
C      1  0.5652920000000  0.5453720000000  0.5451940000000 1.0
C      1  0.5582730000000  0.4744930000000  0.5551300000000 1.0
C      1  0.5570610000000  0.4416590000000  0.4922820000000 1.0
C      1  0.5579670000000  0.4882910000000  0.4383070000000 1.0
C      1  0.4390260000000  0.5549230000000  0.4705300000000 1.0
C      1  0.4405550000000  0.5433050000000  0.5444600000000 1.0
C      1  0.4384130000000  0.4696260000000  0.5551470000000 1.0
C      1  0.4407340000000  0.4381420000000  0.4890930000000 1.0
C      1  0.4383120000000  0.4908180000000  0.4381930000000 1.0
C      1  0.5492540000000  0.5150840000000  0.5821110000000 1.0
C      1  0.5547390000000  0.4273500000000  0.5425500000000 1.0
C      1  0.5491300000000  0.4377470000000  0.4437770000000 1.0
C      1  0.5573610000000  0.5346050000000  0.4203810000000 1.0
C      1  0.5580490000000  0.5845290000000  0.5100370000000 1.0
C      1  0.4466690000000  0.5159510000000  0.5828310000000 1.0
C      1  0.4416380000000  0.4234320000000  0.5411350000000 1.0
C      1  0.4459710000000  0.4366350000000  0.4422140000000 1.0
C      1  0.4443380000000  0.5361920000000  0.4230970000000 1.0
C      1  0.4431490000000  0.5836920000000  0.5105630000000 1.0
C      1  0.4020350000000  0.5242150000000  0.4990770000000 1.0
C      1  0.4055180000000  0.5081950000000  0.5237260000000 1.0
C      1  0.4053060000000  0.4799230000000  0.5159200000000 1.0
C      1  0.4039320000000  0.4775170000000  0.4864740000000 1.0
C      1  0.4012430000000  0.5052450000000  0.4754970000000 1.0
C      1  0.5999790000000  0.5246070000000  0.4987090000000 1.0
C      1  0.5999740000000  0.5094810000000  0.5246620000000 1.0
C      1  0.5982970000000  0.4803280000000  0.5171800000000 1.0
C      1  0.5968160000000  0.4778720000000  0.4869970000000 1.0
C      1  0.5975900000000  0.5053660000000  0.4760800000000 1.0
C      1  0.4693690000000  0.4724290000000  0.5531700000000 1.0
C      1  0.4716790000000  0.4421490000000  0.4921720000000 1.0
C      1  0.4691690000000  0.4886150000000  0.4451790000000 1.0
C      1  0.4702130000000  0.5456610000000  0.4673350000000 1.0
C      1  0.4711860000000  0.5442970000000  0.5387560000000 1.0
C      1  0.5268110000000  0.4837550000000  0.5506920000000 1.0
C      1  0.5258790000000  0.4484240000000  0.4986360000000 1.0
C      1  0.5266120000000  0.4842970000000  0.4447240000000 1.0
C      1  0.5281460000000  0.5324740000000  0.4532810000000 1.0
C      1  0.5277510000000  0.5439730000000  0.5358640000000 1.0
C      1  0.5287740000000  0.5824000000000  0.4700820000000 1.0
C      1  0.5303030000000  0.5672100000000  0.5734440000000 1.0
C      1  0.5268180000000  0.4466580000000  0.5776750000000 1.0
C      1  0.5299290000000  0.4040920000000  0.4832920000000 1.0
C      1  0.5280390000000  0.5013340000000  0.4007990000000 1.0
C      1  0.4713190000000  0.5896350000000  0.4700900000000 1.0
C      1  0.4655990000000  0.5652790000000  0.5787420000000 1.0
C      1  0.4688470000000  0.4421120000000  0.5779600000000 1.0
C      1  0.4665300000000  0.4011770000000  0.4756950000000 1.0
C      1  0.4712210000000  0.5013650000000  0.4037060000000 1.0
C      1  0.5144140000000  0.5285990000000  0.3985930000000 1.0
C      1  0.5141170000000  0.5855300000000  0.4951890000000 1.0
C      1  0.5123590000000  0.5651220000000  0.5944170000000 1.0
C      1  0.5124310000000  0.4309370000000  0.5571910000000 1.0
C      1  0.5131400000000  0.3930190000000  0.4642810000000 1.0
C      1  0.4858750000000  0.5266070000000  0.4070430000000 1.0
C      1  0.4859820000000  0.5883080000000  0.4953060000000 1.0
C      1  0.4901920000000  0.5517000000000  0.5842860000000 1.0
C      1  0.4852030000000  0.4240550000000  0.5613490000000 1.0
C      1  0.4907840000000  0.4095200000000  0.4632730000000 1.0
C      1  0.4706640000000  0.4169200000000  0.5362850000000 1.0
C      1  0.4743860000000  0.4455670000000  0.4392780000000 1.0
C      1  0.4721420000000  0.5476760000000  0.4231210000000 1.0
C      1  0.4712380000000  0.5850150000000  0.5199020000000 1.0
C      1  0.4750090000000  0.5073400000000  0.5795650000000 1.0
C      1  0.5273270000000  0.4177080000000  0.5356840000000 1.0
C      1  0.5277080000000  0.4441090000000  0.4255400000000 1.0
C      1  0.5304460000000  0.5470070000000  0.4170560000000 1.0
C      1  0.5294840000000  0.5862550000000  0.5201700000000 1.0
C      1  0.5305660000000  0.4967890000000  0.5943100000000 1.0
C      1  0.4297870000000  0.4656270000000  0.5253510000000 1.0
C      1  0.4291590000000  0.4637580000000  0.4748680000000 1.0
C      1  0.4261100000000  0.5114460000000  0.4588120000000 1.0
C      1  0.4261700000000  0.5426140000000  0.4991710000000 1.0
C      1  0.4308240000000  0.5134960000000  0.5405520000000 1.0
C      1  0.5717240000000  0.4683660000000  0.5267870000000 1.0
C      1  0.5700850000000  0.4654030000000  0.4765750000000 1.0
C      1  0.5730370000000  0.5110220000000  0.4582510000000 1.0
C      1  0.5771740000000  0.5445780000000  0.4976470000000 1.0
C      1  0.5742510000000  0.5161130000000  0.5408220000000 1.0
C      1  0.5513190000000  0.4209330000000  0.4711340000000 1.0
C      1  0.5550840000000  0.5052850000000  0.4125050000000 1.0
C      1  0.5575080000000  0.5818890000000  0.4786940000000 1.0
C      1  0.5511780000000  0.5453650000000  0.5730010000000 1.0
C      1  0.5544010000000  0.4464880000000  0.5669320000000 1.0
C      1  0.4427380000000  0.4169120000000  0.4677320000000 1.0
C      1  0.4443720000000  0.5072830000000  0.4133790000000 1.0
C      1  0.4433610000000  0.5840870000000  0.4791360000000 1.0
C      1  0.4426170000000  0.5469250000000  0.5744790000000 1.0
C      1  0.4408240000000  0.4412820000000  0.5662680000000 1.0
C      1  0.4568220000000  0.5046470000000  0.5250160000000 1.0
C      1  0.4550740000000  0.4771140000000  0.5120790000000 1.0
C      1  0.4541380000000  0.4803330000000  0.4812170000000 1.0
C      1  0.4484060000000  0.5087880000000  0.4780210000000 1.0
C      1  0.4514440000000  0.5251290000000  0.5021930000000 1.0
C      1  0.5522130000000  0.5099350000000  0.5220450000000 1.0
C      1  0.5495830000000  0.4832420000000  0.5126030000000 1.0
C      1  0.5474900000000  0.4841940000000  0.4834780000000 1.0
C      1  0.5475600000000  0.5130890000000  0.4747950000000 1.0
C      1  0.5507600000000  0.5287590000000  0.4997750000000 1.0
C      1  0.5132320000000  0.5184060000000  0.5473090000000 1.0
C      1  0.5124890000000  0.4634640000000  0.5271890000000 1.0
C      1  0.5118700000000  0.4613430000000  0.4720490000000 1.0
C      1  0.5138290000000  0.5114450000000  0.4374200000000 1.0
C      1  0.5257690000000  0.5442760000000  0.5060160000000 1.0
C      1  0.4890920000000  0.5288850000000  0.5643410000000 1.0
C      1  0.4816980000000  0.4544330000000  0.5297390000000 1.0
C      1  0.4890250000000  0.4399550000000  0.4648910000000 1.0
C      1  0.4843680000000  0.5151450000000  0.4496530000000 1.0
C      1  0.4756200000000  0.5458660000000  0.5005850000000 1.0
C      1  0.5683280000000  0.4603730000000  0.4466610000000 1.0
C      1  0.5712360000000  0.5384430000000  0.4470040000000 1.0
C      1  0.5756500000000  0.5630590000000  0.5216670000000 1.0
C      1  0.5693800000000  0.5003570000000  0.5663030000000 1.0
C      1  0.5699820000000  0.4392110000000  0.5198210000000 1.0
C      1  0.4278860000000  0.4610190000000  0.4446500000000 1.0
C      1  0.4269030000000  0.5393900000000  0.4472810000000 1.0
C      1  0.4272560000000  0.5612220000000  0.5226440000000 1.0
C      1  0.4289370000000  0.4978460000000  0.5663280000000 1.0
C      1  0.4284920000000  0.4366910000000  0.5178610000000 1.0
C      1  0.4846350000000  0.4777680000000  0.5799870000000 1.0
C      1  0.4836050000000  0.4171750000000  0.5064280000000 1.0
C      1  0.4833330000000  0.4704030000000  0.4225440000000 1.0
C      1  0.4842930000000  0.5663190000000  0.4479700000000 1.0
C      1  0.4830090000000  0.5721200000000  0.5455360000000 1.0
C      1  0.5164470000000  0.4761540000000  0.5784410000000 1.0
C      1  0.5161670000000  0.4195330000000  0.5063180000000 1.0
C      1  0.5151140000000  0.4700220000000  0.4207470000000 1.0
C      1  0.5162120000000  0.5632230000000  0.4491930000000 1.0
C      1  0.5165700000000  0.5710080000000  0.5454690000000 1.0
C      1  0.5056370000000  0.4867720000000  0.5120990000000 1.0
C      1  0.4997150000000  0.5296470000000  0.5011050000000 1.0
C      1  0.4977120000000  0.4840990000000  0.4852020000000 1.0
C      1  0.4971910000000  0.5120860000000  0.4771680000000 1.0
C      1  0.4952690000000  0.5106450000000  0.5239820000000 1.0
END
