TITL C-3578195-8548-260 -2.27313102269912e-06 125000 -346.827295792217 0 0 57 (C1) n - 1
REM
REM in /home/bkarasulu/work/CARBON/AIRSS/Generating-Clusters/EDIP-Nigel-Params/with-SteepDescent/Higher-Symm/SD-CG/HFTN-CG
REM
REM
REM
REM
REM
REM ./C.cell (12c818d87b63d06a65506943cc24bca4)
REM
REM compiler GCC version 9.2.1 20190827 (Red Hat 9.2.1-1)
REM options -cpp -mtune=generic -march=x86-64 -g -O0 -fpre-include=/usr/include/finclude/math-vector-fortran.h
REM seed -1051345901 322154634 222151998 120552302 686724200 1872019415 -155468042 -1874133240 -861362941 1963440027 1306305050 -557798926 1100675398 -1478914273 -302060575 -1293208263 1011569154 490798113 2103334271 -1058883267 663526787 -1168647123 -1189769931 -897365708 738925371 104653957 2036438630 1788073925 1472726240 -1508032414 -983386378 344045450 -485365629
REM
CELL 1.54180   50.00000   50.00000   50.00000   90.00000   90.00000   90.00000
LATT -1
SFAC C  
C      1  0.5128450000000  0.4959210000000  0.4018810000000 1.0
C      1  0.5061790000000  0.5230460000000  0.4007520000000 1.0
C      1  0.4846260000000  0.4971640000000  0.4280220000000 1.0
C      1  0.5046690000000  0.4967050000000  0.5929920000000 1.0
C      1  0.5083150000000  0.5237090000000  0.6001200000000 1.0
C      1  0.4856510000000  0.4968640000000  0.5693740000000 1.0
C      1  0.5255440000000  0.4821510000000  0.4242390000000 1.0
C      1  0.5039300000000  0.5383720000000  0.4242070000000 1.0
C      1  0.4565300000000  0.4854220000000  0.4291880000000 1.0
C      1  0.5259210000000  0.4826710000000  0.5761170000000 1.0
C      1  0.5053190000000  0.5379590000000  0.5759430000000 1.0
C      1  0.4569360000000  0.4851820000000  0.5703320000000 1.0
C      1  0.4864640000000  0.5228290000000  0.4437120000000 1.0
C      1  0.4708340000000  0.4689560000000  0.4507610000000 1.0
C      1  0.5325300000000  0.4961030000000  0.4492130000000 1.0
C      1  0.4870170000000  0.5234480000000  0.5555410000000 1.0
C      1  0.4706140000000  0.4680310000000  0.5484370000000 1.0
C      1  0.5322460000000  0.4963720000000  0.5503630000000 1.0
C      1  0.4682560000000  0.5544740000000  0.5136900000000 1.0
C      1  0.4794720000000  0.4321980000000  0.5137470000000 1.0
C      1  0.5749500000000  0.5203280000000  0.5135560000000 1.0
C      1  0.4682550000000  0.5544700000000  0.4859580000000 1.0
C      1  0.4795570000000  0.4320700000000  0.4860260000000 1.0
C      1  0.5746640000000  0.5201540000000  0.4854750000000 1.0
C      1  0.4737260000000  0.4862280000000  0.5232780000000 1.0
C      1  0.5388680000000  0.4804900000000  0.5256250000000 1.0
C      1  0.4999010000000  0.5157030000000  0.5269510000000 1.0
C      1  0.4734510000000  0.4862610000000  0.4762860000000 1.0
C      1  0.5387530000000  0.4807320000000  0.4742810000000 1.0
C      1  0.4998090000000  0.5151880000000  0.4722800000000 1.0
C      1  0.4503250000000  0.5356740000000  0.4739450000000 1.0
C      1  0.5018180000000  0.4425250000000  0.4714790000000 1.0
C      1  0.5513840000000  0.5314870000000  0.4725370000000 1.0
C      1  0.4504610000000  0.5356340000000  0.5258060000000 1.0
C      1  0.5017880000000  0.4426310000000  0.5281560000000 1.0
C      1  0.5515300000000  0.5312400000000  0.5266220000000 1.0
C      1  0.5300340000000  0.5420670000000  0.4331240000000 1.0
C      1  0.4413520000000  0.5049830000000  0.4434890000000 1.0
C      1  0.5149760000000  0.4569270000000  0.4282850000000 1.0
C      1  0.5311360000000  0.5423040000000  0.5665080000000 1.0
C      1  0.4416490000000  0.5048770000000  0.5562280000000 1.0
C      1  0.5160160000000  0.4571580000000  0.5708560000000 1.0
C      1  0.5458600000000  0.5224040000000  0.5534030000000 1.0
C      1  0.4569700000000  0.5293680000000  0.5531610000000 1.0
C      1  0.4942410000000  0.4491110000000  0.5552910000000 1.0
C      1  0.5454380000000  0.5224250000000  0.4458620000000 1.0
C      1  0.4567160000000  0.5293000000000  0.4465900000000 1.0
C      1  0.4936760000000  0.4492550000000  0.4444940000000 1.0
C      1  0.5251730000000  0.5274570000000  0.5140330000000 1.0
C      1  0.4480490000000  0.5047010000000  0.5174550000000 1.0
C      1  0.5199060000000  0.4612460000000  0.5142620000000 1.0
C      1  0.5251240000000  0.5272630000000  0.4852790000000 1.0
C      1  0.4478870000000  0.5047490000000  0.4823760000000 1.0
C      1  0.5199280000000  0.4612620000000  0.4853970000000 1.0
C      1  0.4791760000000  0.4681780000000  0.4997360000000 1.0
C      1  0.4834730000000  0.5219740000000  0.4997610000000 1.0
C      1  0.5500830000000  0.4946010000000  0.4999800000000 1.0
END
