TITL C-3578199-7832-102 -1.84905327442357e-06 125000 -598.104710418483 0 0 95 (Cs) n - 1
REM
REM in /home/bkarasulu/work/CARBON/AIRSS/Generating-Clusters/EDIP-Nigel-Params/with-SteepDescent/Higher-Symm/SD-CG/HFTN-CG
REM
REM
REM
REM
REM
REM ./C.cell (12c818d87b63d06a65506943cc24bca4)
REM
REM compiler GCC version 9.2.1 20190827 (Red Hat 9.2.1-1)
REM options -cpp -mtune=generic -march=x86-64 -g -O0 -fpre-include=/usr/include/finclude/math-vector-fortran.h
REM seed -1404187216 1916692978 1463269391 -966784814 1459617934 -526387213 249304517 -459520371 707029669 940972556 -1511724766 648016184 -1493546955 368966353 -267664125 402070146 -2067932736 -677004080 779935807 976941081 -1421299085 -668608214 222934982 630950347 729415383 1362200606 -2118709999 1390195066 -25909166 -732432667 568172635 -1304631095 266373529
REM
CELL 1.54180   50.00000   50.00000   50.00000   90.00000   90.00000   90.00000
LATT -1
SFAC C  
C      1  0.5099840000000  0.5603320000000  0.4364620000000 1.0
C      1  0.5574430000000  0.5106110000000  0.4347460000000 1.0
C      1  0.5280300000000  0.4480590000000  0.4344250000000 1.0
C      1  0.4561960000000  0.4576890000000  0.4363440000000 1.0
C      1  0.4472360000000  0.5260160000000  0.4353700000000 1.0
C      1  0.5100850000000  0.5599140000000  0.5652310000000 1.0
C      1  0.5577970000000  0.5099860000000  0.5674180000000 1.0
C      1  0.5280210000000  0.4496850000000  0.5671140000000 1.0
C      1  0.4562090000000  0.4579450000000  0.5654610000000 1.0
C      1  0.4472100000000  0.5262720000000  0.5665780000000 1.0
C      1  0.5285790000000  0.5461820000000  0.5187840000000 1.0
C      1  0.5588120000000  0.4797510000000  0.5291520000000 1.0
C      1  0.4997600000000  0.4381760000000  0.5296770000000 1.0
C      1  0.4502290000000  0.4793720000000  0.5188510000000 1.0
C      1  0.4657180000000  0.5486490000000  0.5282140000000 1.0
C      1  0.5283020000000  0.5462050000000  0.4828800000000 1.0
C      1  0.5586030000000  0.4793300000000  0.4721080000000 1.0
C      1  0.4997210000000  0.4379720000000  0.4722900000000 1.0
C      1  0.4503800000000  0.4791800000000  0.4828900000000 1.0
C      1  0.4658470000000  0.5487270000000  0.4733740000000 1.0
C      1  0.4999840000000  0.4744080000000  0.4850740000000 1.0
C      1  0.4770490000000  0.4913880000000  0.4759870000000 1.0
C      1  0.4859940000000  0.5186740000000  0.4852040000000 1.0
C      1  0.5146880000000  0.5201890000000  0.4760760000000 1.0
C      1  0.5253300000000  0.4935670000000  0.4851480000000 1.0
C      1  0.4999490000000  0.4744900000000  0.5165680000000 1.0
C      1  0.4770000000000  0.4915270000000  0.5256360000000 1.0
C      1  0.4860330000000  0.5187430000000  0.5163630000000 1.0
C      1  0.5148040000000  0.5201930000000  0.5254140000000 1.0
C      1  0.5253290000000  0.4936030000000  0.5162800000000 1.0
C      1  0.4549710000000  0.4840100000000  0.4233580000000 1.0
C      1  0.4692520000000  0.5376810000000  0.4205570000000 1.0
C      1  0.5262530000000  0.5400080000000  0.4231660000000 1.0
C      1  0.5467520000000  0.4886930000000  0.4189080000000 1.0
C      1  0.5027120000000  0.4533550000000  0.4214470000000 1.0
C      1  0.4548990000000  0.4842190000000  0.5784790000000 1.0
C      1  0.4693980000000  0.5377030000000  0.5812930000000 1.0
C      1  0.5261790000000  0.5392910000000  0.5783120000000 1.0
C      1  0.5454890000000  0.4879080000000  0.5818130000000 1.0
C      1  0.5028620000000  0.4534140000000  0.5810180000000 1.0
C      1  0.5134230000000  0.5224440000000  0.4031620000000 1.0
C      1  0.5240620000000  0.4947550000000  0.4014110000000 1.0
C      1  0.5010620000000  0.4757260000000  0.4028270000000 1.0
C      1  0.4758230000000  0.4912790000000  0.4037220000000 1.0
C      1  0.4836840000000  0.5199520000000  0.4026580000000 1.0
C      1  0.5133960000000  0.5221030000000  0.5986220000000 1.0
C      1  0.5239560000000  0.4943880000000  0.6004930000000 1.0
C      1  0.5007860000000  0.4756020000000  0.5998460000000 1.0
C      1  0.4755620000000  0.4913540000000  0.5983900000000 1.0
C      1  0.4836630000000  0.5199390000000  0.5992830000000 1.0
C      1  0.4415460000000  0.5395940000000  0.4602710000000 1.0
C      1  0.5177850000000  0.5690170000000  0.4641040000000 1.0
C      1  0.5700540000000  0.5029010000000  0.4597080000000 1.0
C      1  0.5257940000000  0.4346260000000  0.4601720000000 1.0
C      1  0.4446880000000  0.4548390000000  0.4639620000000 1.0
C      1  0.4414610000000  0.5399380000000  0.5417240000000 1.0
C      1  0.5177110000000  0.5687460000000  0.5375980000000 1.0
C      1  0.5705170000000  0.5027170000000  0.5423690000000 1.0
C      1  0.5258060000000  0.4352900000000  0.5419380000000 1.0
C      1  0.4447560000000  0.4549990000000  0.5378410000000 1.0
C      1  0.5539250000000  0.5374360000000  0.4273050000000 1.0
C      1  0.5509010000000  0.4615320000000  0.4254680000000 1.0
C      1  0.4783500000000  0.4417590000000  0.4293580000000 1.0
C      1  0.4340830000000  0.5024150000000  0.4274980000000 1.0
C      1  0.4828940000000  0.5608850000000  0.4288640000000 1.0
C      1  0.5538320000000  0.5368130000000  0.5745400000000 1.0
C      1  0.5517320000000  0.4607770000000  0.5770380000000 1.0
C      1  0.4785150000000  0.4422770000000  0.5724040000000 1.0
C      1  0.4340260000000  0.5026410000000  0.5743400000000 1.0
C      1  0.4830970000000  0.5608960000000  0.5730880000000 1.0
C      1  0.5784910000000  0.5238020000000  0.4790900000000 1.0
C      1  0.5489830000000  0.4305410000000  0.4786970000000 1.0
C      1  0.4497230000000  0.4286540000000  0.4780280000000 1.0
C      1  0.4218510000000  0.5271850000000  0.4788950000000 1.0
C      1  0.4985910000000  0.5872760000000  0.4783920000000 1.0
C      1  0.5796220000000  0.5240040000000  0.5236260000000 1.0
C      1  0.5488460000000  0.4310150000000  0.5233260000000 1.0
C      1  0.4497520000000  0.4287490000000  0.5239250000000 1.0
C      1  0.4213280000000  0.5276630000000  0.5234320000000 1.0
C      1  0.4985660000000  0.5871350000000  0.5234200000000 1.0
C      1  0.4254410000000  0.4986910000000  0.5162410000000 1.0
C      1  0.4727850000000  0.5738240000000  0.5156110000000 1.0
C      1  0.5601410000000  0.5459030000000  0.5164630000000 1.0
C      1  0.5650540000000  0.4548820000000  0.5157070000000 1.0
C      1  0.4782440000000  0.4248990000000  0.5156630000000 1.0
C      1  0.4260350000000  0.4984150000000  0.4867170000000 1.0
C      1  0.4728430000000  0.5738560000000  0.4861060000000 1.0
C      1  0.5593250000000  0.5456540000000  0.4866880000000 1.0
C      1  0.5650460000000  0.4546790000000  0.4859610000000 1.0
C      1  0.4782010000000  0.4248450000000  0.4863670000000 1.0
C      1  0.4139310000000  0.5433950000000  0.5008830000000 1.0
C      1  0.5942150000000  0.5148830000000  0.5009790000000 1.0
C      1  0.4332650000000  0.4249440000000  0.5009900000000 1.0
C      1  0.5438460000000  0.4140400000000  0.5011840000000 1.0
C      1  0.5098960000000  0.6003070000000  0.5009510000000 1.0
END
