TITL C-3578196-9646-681 8.140959443655e-07 125000 -675.270498804985 0 0 108 (C1) n - 1
REM
REM in /home/bkarasulu/work/CARBON/AIRSS/Generating-Clusters/EDIP-Nigel-Params/with-SteepDescent/Higher-Symm/SD-CG/HFTN-CG
REM
REM
REM
REM
REM
REM ./C.cell (12c818d87b63d06a65506943cc24bca4)
REM
REM compiler GCC version 9.2.1 20190827 (Red Hat 9.2.1-1)
REM options -cpp -mtune=generic -march=x86-64 -g -O0 -fpre-include=/usr/include/finclude/math-vector-fortran.h
REM seed 1180779655 -1056700627 901817078 -364469828 -17945127 129277918 488804606 -1941458054 -957128224 -795180170 -676017673 -748200243 -2030090857 1243757475 2021755246 -1383342605 2005107286 1572675512 -1039687280 175548735 -1881301481 1648980271 2120725919 1669977755 95445435 1123668670 1904208194 -1732261418 1066481134 1916040415 646987811 -656907498 1684324170
REM
CELL 1.54180   50.00000   50.00000   50.00000   90.00000   90.00000   90.00000
LATT -1
SFAC C  
C      1  0.5439380000000  0.5041930000000  0.5323400000000 1.0
C      1  0.4994640000000  0.4960640000000  0.5552410000000 1.0
C      1  0.5042800000000  0.5102610000000  0.4501140000000 1.0
C      1  0.4249830000000  0.4491940000000  0.5076940000000 1.0
C      1  0.5390910000000  0.5353760000000  0.5177780000000 1.0
C      1  0.4350650000000  0.5383010000000  0.4449490000000 1.0
C      1  0.4389560000000  0.5457430000000  0.4913050000000 1.0
C      1  0.5687030000000  0.4949060000000  0.5719170000000 1.0
C      1  0.5359470000000  0.4417440000000  0.5078380000000 1.0
C      1  0.5346390000000  0.4541350000000  0.5582540000000 1.0
C      1  0.4491100000000  0.5175540000000  0.4935080000000 1.0
C      1  0.5411490000000  0.4985150000000  0.5824090000000 1.0
C      1  0.5544700000000  0.4768340000000  0.4333540000000 1.0
C      1  0.4883350000000  0.5507790000000  0.4922250000000 1.0
C      1  0.4532840000000  0.4375830000000  0.5009500000000 1.0
C      1  0.4543330000000  0.5168850000000  0.4427990000000 1.0
C      1  0.4107090000000  0.5450000000000  0.4976050000000 1.0
C      1  0.4879470000000  0.5804990000000  0.5298760000000 1.0
C      1  0.4235890000000  0.5137860000000  0.5341970000000 1.0
C      1  0.4590630000000  0.4698980000000  0.5552630000000 1.0
C      1  0.5097730000000  0.4593540000000  0.4279310000000 1.0
C      1  0.5683440000000  0.5437770000000  0.5686640000000 1.0
C      1  0.4701880000000  0.5570680000000  0.5314840000000 1.0
C      1  0.4601570000000  0.4293110000000  0.4720300000000 1.0
C      1  0.4985660000000  0.5717110000000  0.4468090000000 1.0
C      1  0.4632200000000  0.4817340000000  0.5256180000000 1.0
C      1  0.5337040000000  0.4594120000000  0.4436510000000 1.0
C      1  0.4161070000000  0.4456170000000  0.4475080000000 1.0
C      1  0.4988780000000  0.5871890000000  0.4827770000000 1.0
C      1  0.5706270000000  0.4900670000000  0.4538140000000 1.0
C      1  0.4991130000000  0.4829330000000  0.4157790000000 1.0
C      1  0.5247620000000  0.5555500000000  0.4472170000000 1.0
C      1  0.5062370000000  0.4436260000000  0.5532490000000 1.0
C      1  0.4926940000000  0.4655460000000  0.4869700000000 1.0
C      1  0.4637040000000  0.4171250000000  0.5203250000000 1.0
C      1  0.4142210000000  0.4711450000000  0.4581500000000 1.0
C      1  0.5224660000000  0.5776620000000  0.4974910000000 1.0
C      1  0.5381980000000  0.4368590000000  0.4620370000000 1.0
C      1  0.4515450000000  0.5645010000000  0.5106160000000 1.0
C      1  0.4386160000000  0.4976110000000  0.5131260000000 1.0
C      1  0.4868970000000  0.5350610000000  0.5719490000000 1.0
C      1  0.5181730000000  0.5040890000000  0.4158100000000 1.0
C      1  0.5836520000000  0.4681800000000  0.5322410000000 1.0
C      1  0.5939400000000  0.5423470000000  0.4700450000000 1.0
C      1  0.4445450000000  0.4407820000000  0.4482150000000 1.0
C      1  0.5885080000000  0.4813780000000  0.5062580000000 1.0
C      1  0.5464280000000  0.4920270000000  0.4846340000000 1.0
C      1  0.5694630000000  0.4720920000000  0.4834270000000 1.0
C      1  0.4516870000000  0.4218240000000  0.5453490000000 1.0
C      1  0.5559680000000  0.4440510000000  0.4849920000000 1.0
C      1  0.4530320000000  0.4967580000000  0.5712690000000 1.0
C      1  0.4877150000000  0.4450020000000  0.4381760000000 1.0
C      1  0.4071690000000  0.5343800000000  0.5230030000000 1.0
C      1  0.5937900000000  0.5172580000000  0.5382530000000 1.0
C      1  0.4701980000000  0.4833080000000  0.4183790000000 1.0
C      1  0.5258870000000  0.5095210000000  0.5579990000000 1.0
C      1  0.5633210000000  0.5509180000000  0.5067670000000 1.0
C      1  0.5167980000000  0.5763080000000  0.5259510000000 1.0
C      1  0.5172160000000  0.5336050000000  0.4932860000000 1.0
C      1  0.4548550000000  0.5043850000000  0.4064600000000 1.0
C      1  0.5155430000000  0.5372490000000  0.5610480000000 1.0
C      1  0.5561780000000  0.5198980000000  0.4592490000000 1.0
C      1  0.4166320000000  0.4511650000000  0.5361420000000 1.0
C      1  0.4850730000000  0.4571840000000  0.5680160000000 1.0
C      1  0.4428460000000  0.5204540000000  0.5566320000000 1.0
C      1  0.5747490000000  0.5664870000000  0.5286580000000 1.0
C      1  0.4846060000000  0.5423390000000  0.4164930000000 1.0
C      1  0.5257530000000  0.5290040000000  0.4628280000000 1.0
C      1  0.4888900000000  0.4393480000000  0.4671540000000 1.0
C      1  0.4565550000000  0.5014590000000  0.4696320000000 1.0
C      1  0.4384760000000  0.4779860000000  0.4713960000000 1.0
C      1  0.5819320000000  0.5315230000000  0.4933260000000 1.0
C      1  0.5290920000000  0.4716490000000  0.5845310000000 1.0
C      1  0.5168730000000  0.4184610000000  0.5017380000000 1.0
C      1  0.4215540000000  0.4766020000000  0.4961110000000 1.0
C      1  0.4624150000000  0.4563420000000  0.4292130000000 1.0
C      1  0.4937850000000  0.4151880000000  0.5217600000000 1.0
C      1  0.5174080000000  0.4662720000000  0.5063170000000 1.0
C      1  0.4635220000000  0.5424660000000  0.5555920000000 1.0
C      1  0.4707410000000  0.4609290000000  0.5060440000000 1.0
C      1  0.4013410000000  0.4736050000000  0.5426440000000 1.0
C      1  0.4770330000000  0.5903940000000  0.5032260000000 1.0
C      1  0.5577520000000  0.5620970000000  0.5505760000000 1.0
C      1  0.5305970000000  0.5542930000000  0.5407130000000 1.0
C      1  0.4775950000000  0.5535190000000  0.4629330000000 1.0
C      1  0.4394580000000  0.4459380000000  0.5537570000000 1.0
C      1  0.4815250000000  0.5300640000000  0.4430240000000 1.0
C      1  0.5513150000000  0.5655720000000  0.4578820000000 1.0
C      1  0.4667400000000  0.5288090000000  0.3996990000000 1.0
C      1  0.5130540000000  0.4220340000000  0.4723790000000 1.0
C      1  0.5722990000000  0.5442890000000  0.4522040000000 1.0
C      1  0.4467860000000  0.5551650000000  0.4638520000000 1.0
C      1  0.4996380000000  0.4738050000000  0.5874740000000 1.0
C      1  0.5780850000000  0.4407580000000  0.5317240000000 1.0
C      1  0.5820990000000  0.5198600000000  0.5635860000000 1.0
C      1  0.5486140000000  0.5691250000000  0.4874690000000 1.0
C      1  0.4880090000000  0.5702650000000  0.4193940000000 1.0
C      1  0.4863230000000  0.4999780000000  0.5273750000000 1.0
C      1  0.5301230000000  0.4926410000000  0.5082380000000 1.0
C      1  0.4924610000000  0.5131820000000  0.4996990000000 1.0
C      1  0.5936100000000  0.5106340000000  0.5109370000000 1.0
C      1  0.5030630000000  0.4160670000000  0.5483340000000 1.0
C      1  0.5500360000000  0.4396250000000  0.5344990000000 1.0
C      1  0.4871510000000  0.4951690000000  0.4748560000000 1.0
C      1  0.4001610000000  0.5006930000000  0.5425770000000 1.0
C      1  0.5445130000000  0.4955700000000  0.4152470000000 1.0
C      1  0.5602290000000  0.4803500000000  0.5467580000000 1.0
C      1  0.4803460000000  0.5061700000000  0.5797330000000 1.0
END
