TITL C-3577078-809-476 2.12036143000825e-07 125000 -305.486699191041 0 0 50 (C1) n - 1
REM
REM in /home/bkarasulu/work/CARBON/AIRSS/Generating-Clusters/EDIP-Nigel-Params/with-SteepDescent/Higher-Symm/SD-CG/HFTN-CG
REM
REM
REM
REM
REM
REM ./C.cell (12c818d87b63d06a65506943cc24bca4)
REM
REM compiler GCC version 9.2.1 20190827 (Red Hat 9.2.1-1)
REM options -cpp -mtune=generic -march=x86-64 -g -O0 -fpre-include=/usr/include/finclude/math-vector-fortran.h
REM seed 345384390 -748865839 -1715350279 -171310164 -2146569244 880459222 167326006 1514005219 1189857230 -988340831 44751520 -1649108869 -360083694 152389438 -1506919634 -33844921 -731330468 258774048 2132585372 -512671913 -1021116544 1071159597 405011287 1507533336 -1725741080 -966568805 -79918775 896065547 -78366731 1956822645 413994737 972474491 -753938088
REM
CELL 1.54180   50.00000   50.00000   50.00000   90.00000   90.00000   90.00000
LATT -1
SFAC C  
C      1  0.5481790000000  0.5072450000000  0.5486730000000 1.0
C      1  0.5557360000000  0.5140770000000  0.4611800000000 1.0
C      1  0.4869320000000  0.5000690000000  0.4281390000000 1.0
C      1  0.4335070000000  0.5110480000000  0.4960080000000 1.0
C      1  0.4722500000000  0.5055280000000  0.5638860000000 1.0
C      1  0.5001490000000  0.5005220000000  0.5744090000000 1.0
C      1  0.5673970000000  0.5040550000000  0.5244010000000 1.0
C      1  0.5363850000000  0.5058460000000  0.4401050000000 1.0
C      1  0.4596110000000  0.5034230000000  0.4400080000000 1.0
C      1  0.4339540000000  0.5060250000000  0.5254380000000 1.0
C      1  0.5500920000000  0.4868360000000  0.4835590000000 1.0
C      1  0.4980870000000  0.4743890000000  0.4388610000000 1.0
C      1  0.4505490000000  0.4873860000000  0.4844810000000 1.0
C      1  0.4695160000000  0.4822570000000  0.5441800000000 1.0
C      1  0.5298710000000  0.4833380000000  0.5437650000000 1.0
C      1  0.5222540000000  0.4469310000000  0.5126910000000 1.0
C      1  0.5183870000000  0.4484650000000  0.4830960000000 1.0
C      1  0.4891510000000  0.4513140000000  0.4789660000000 1.0
C      1  0.4741710000000  0.4480870000000  0.5036310000000 1.0
C      1  0.4947410000000  0.4461610000000  0.5254410000000 1.0
C      1  0.4630450000000  0.5275940000000  0.4586760000000 1.0
C      1  0.4587510000000  0.5228930000000  0.5320090000000 1.0
C      1  0.5129270000000  0.5217650000000  0.5583780000000 1.0
C      1  0.5535750000000  0.5259190000000  0.5096400000000 1.0
C      1  0.5061340000000  0.5177120000000  0.4443600000000 1.0
C      1  0.4430510000000  0.4775060000000  0.5309820000000 1.0
C      1  0.5104710000000  0.4742460000000  0.5645880000000 1.0
C      1  0.5627780000000  0.4783630000000  0.5100080000000 1.0
C      1  0.5288040000000  0.4762350000000  0.4423620000000 1.0
C      1  0.4527840000000  0.4782260000000  0.4554750000000 1.0
C      1  0.5388060000000  0.4640740000000  0.4676490000000 1.0
C      1  0.4769620000000  0.4597450000000  0.4538790000000 1.0
C      1  0.4493300000000  0.4648020000000  0.5047470000000 1.0
C      1  0.4878970000000  0.4600520000000  0.5509450000000 1.0
C      1  0.5430980000000  0.4630110000000  0.5268030000000 1.0
C      1  0.4950560000000  0.5527340000000  0.4771360000000 1.0
C      1  0.4756380000000  0.5462700000000  0.4986800000000 1.0
C      1  0.4925000000000  0.5496720000000  0.5235460000000 1.0
C      1  0.5202410000000  0.5541770000000  0.5159130000000 1.0
C      1  0.5225530000000  0.5486930000000  0.4872170000000 1.0
C      1  0.5409900000000  0.5416060000000  0.5313670000000 1.0
C      1  0.5476130000000  0.5392220000000  0.4742130000000 1.0
C      1  0.4883320000000  0.5415100000000  0.4516040000000 1.0
C      1  0.4476520000000  0.5371480000000  0.4917360000000 1.0
C      1  0.4886630000000  0.5388890000000  0.5510400000000 1.0
C      1  0.5023300000000  0.4978130000000  0.4700120000000 1.0
C      1  0.4764750000000  0.5041170000000  0.4866240000000 1.0
C      1  0.4831350000000  0.5069260000000  0.5170310000000 1.0
C      1  0.5140200000000  0.5109500000000  0.5214270000000 1.0
C      1  0.5254660000000  0.5051250000000  0.4910360000000 1.0
END
