TITL C-3578202-4305-415 4.94178583575033e-07 125000 -77.0015221731821 0 0 14 (D2) n - 1
REM
REM in /home/bkarasulu/work/CARBON/AIRSS/Generating-Clusters/EDIP-Nigel-Params/with-SteepDescent/Higher-Symm/SD-CG/HFTN-CG
REM
REM
REM
REM
REM
REM ./C.cell (12c818d87b63d06a65506943cc24bca4)
REM
REM compiler GCC version 9.2.1 20190827 (Red Hat 9.2.1-1)
REM options -cpp -mtune=generic -march=x86-64 -g -O0 -fpre-include=/usr/include/finclude/math-vector-fortran.h
REM seed 2019253387 2083272600 -626298626 654075401 37242656 -120531601 -520064960 1186308536 -1788325457 1294271168 -2043315009 -1874975329 309843879 314390691 -1912851990 -428935743 1246876423 -1491291218 2042946219 -1012984050 1990172805 -493852990 1230004786 -89392555 660884964 1572028749 -1735033567 -1529745619 -471893639 1595437162 -2057511279 -1379066578 1999693229
REM
CELL 1.54180   50.00000   50.00000   50.00000   90.00000   90.00000   90.00000
LATT -1
SFAC C  
C      1  0.5093790000000  0.5325320000000  0.4751200000000 1.0
C      1  0.4813310000000  0.5256600000000  0.4750600000000 1.0
C      1  0.4934250000000  0.5325430000000  0.5273680000000 1.0
C      1  0.5214730000000  0.5256720000000  0.5274310000000 1.0
C      1  0.5093740000000  0.4754510000000  0.5273820000000 1.0
C      1  0.4813260000000  0.4823220000000  0.5274360000000 1.0
C      1  0.4934320000000  0.4754400000000  0.4751310000000 1.0
C      1  0.5214800000000  0.4823110000000  0.4750740000000 1.0
C      1  0.4771510000000  0.5096520000000  0.5265430000000 1.0
C      1  0.4771570000000  0.4983300000000  0.4759510000000 1.0
C      1  0.5256480000000  0.4983420000000  0.5265510000000 1.0
C      1  0.5256540000000  0.5096420000000  0.4759550000000 1.0
C      1  0.5014020000000  0.5463230000000  0.5012410000000 1.0
C      1  0.5014030000000  0.4616590000000  0.5012590000000 1.0
END
