TITL C-3578204-4308-247 -1.10636639290687e-06 125000 -911.097827044653 0 0 143 (C1) n - 1
REM
REM in /home/bkarasulu/work/CARBON/AIRSS/Generating-Clusters/EDIP-Nigel-Params/with-SteepDescent/Higher-Symm/SD-CG/HFTN-CG
REM
REM
REM
REM
REM
REM ./C.cell (12c818d87b63d06a65506943cc24bca4)
REM
REM compiler GCC version 9.2.1 20190827 (Red Hat 9.2.1-1)
REM options -cpp -mtune=generic -march=x86-64 -g -O0 -fpre-include=/usr/include/finclude/math-vector-fortran.h
REM seed -316270455 1037512760 115171521 1968981997 -1938767188 361014139 -1879384455 715740615 1111723288 -1201028475 421348715 -2116579434 484167437 -390240113 -669913827 1559010109 -1629470743 1299541599 1357412038 1854507172 1624348908 391932611 -279011594 -1298486139 -1002124827 -1193184326 1437826655 -355420516 692658590 703623665 319528228 -1968844347 1968244318
REM
CELL 1.54180   50.00000   50.00000   50.00000   90.00000   90.00000   90.00000
LATT -1
SFAC C  
C      1  0.5509720000000  0.5869340000000  0.5148390000000 1.0
C      1  0.4481800000000  0.5875800000000  0.4847070000000 1.0
C      1  0.5513880000000  0.4147860000000  0.5144490000000 1.0
C      1  0.4482320000000  0.4136420000000  0.4844470000000 1.0
C      1  0.4480020000000  0.5872330000000  0.5148190000000 1.0
C      1  0.5511320000000  0.5874320000000  0.4847740000000 1.0
C      1  0.4484600000000  0.4143370000000  0.5145710000000 1.0
C      1  0.5514720000000  0.4141430000000  0.4843770000000 1.0
C      1  0.4425070000000  0.5260930000000  0.4332010000000 1.0
C      1  0.5584380000000  0.5265550000000  0.5680470000000 1.0
C      1  0.4411490000000  0.4745400000000  0.4314880000000 1.0
C      1  0.5589740000000  0.4746860000000  0.5686770000000 1.0
C      1  0.5581580000000  0.5267630000000  0.4315280000000 1.0
C      1  0.4403080000000  0.5270250000000  0.5690140000000 1.0
C      1  0.5581800000000  0.4752140000000  0.4319370000000 1.0
C      1  0.4410750000000  0.4749980000000  0.5678730000000 1.0
C      1  0.5310200000000  0.5158100000000  0.5760110000000 1.0
C      1  0.4703980000000  0.5152840000000  0.4266320000000 1.0
C      1  0.5312840000000  0.4846690000000  0.5763690000000 1.0
C      1  0.4695960000000  0.4841800000000  0.4256770000000 1.0
C      1  0.4680390000000  0.5170710000000  0.5767370000000 1.0
C      1  0.5298640000000  0.5165810000000  0.4257730000000 1.0
C      1  0.4684000000000  0.4858590000000  0.5761190000000 1.0
C      1  0.5297060000000  0.4850470000000  0.4255560000000 1.0
C      1  0.4853650000000  0.4752410000000  0.4496490000000 1.0
C      1  0.5136950000000  0.4769330000000  0.5521700000000 1.0
C      1  0.4869840000000  0.5195740000000  0.4508430000000 1.0
C      1  0.5143570000000  0.5170630000000  0.5508380000000 1.0
C      1  0.5138930000000  0.4757060000000  0.4488980000000 1.0
C      1  0.4851170000000  0.4849940000000  0.5509960000000 1.0
C      1  0.5141800000000  0.5262370000000  0.4489970000000 1.0
C      1  0.4857310000000  0.5250260000000  0.5525900000000 1.0
C      1  0.5987430000000  0.4729240000000  0.5152280000000 1.0
C      1  0.4009560000000  0.4722840000000  0.4833930000000 1.0
C      1  0.5980770000000  0.5287120000000  0.5152370000000 1.0
C      1  0.4020380000000  0.5283200000000  0.4836780000000 1.0
C      1  0.4015660000000  0.4726620000000  0.5151260000000 1.0
C      1  0.5976230000000  0.4732150000000  0.4835020000000 1.0
C      1  0.4004820000000  0.5288990000000  0.5153420000000 1.0
C      1  0.5986140000000  0.5290240000000  0.4834680000000 1.0
C      1  0.5160380000000  0.4722850000000  0.4010750000000 1.0
C      1  0.4835450000000  0.4718060000000  0.5988460000000 1.0
C      1  0.5162250000000  0.5292120000000  0.4015730000000 1.0
C      1  0.4827920000000  0.5300910000000  0.6000690000000 1.0
C      1  0.4834840000000  0.4720280000000  0.4011220000000 1.0
C      1  0.5166430000000  0.4715400000000  0.5997320000000 1.0
C      1  0.4839240000000  0.5287600000000  0.4024650000000 1.0
C      1  0.5159140000000  0.5296860000000  0.5989430000000 1.0
C      1  0.4781480000000  0.5269250000000  0.4772570000000 1.0
C      1  0.5243920000000  0.5274420000000  0.5255510000000 1.0
C      1  0.4756170000000  0.4668780000000  0.4761610000000 1.0
C      1  0.5218250000000  0.4696120000000  0.5250800000000 1.0
C      1  0.5224760000000  0.5264310000000  0.4767320000000 1.0
C      1  0.4772970000000  0.5332760000000  0.5259330000000 1.0
C      1  0.5257930000000  0.4687860000000  0.4734740000000 1.0
C      1  0.4747180000000  0.4753290000000  0.5258080000000 1.0
C      1  0.5149640000000  0.5587910000000  0.5904390000000 1.0
C      1  0.4842350000000  0.5587300000000  0.4090870000000 1.0
C      1  0.5153660000000  0.4423710000000  0.5905150000000 1.0
C      1  0.4844030000000  0.4422530000000  0.4081450000000 1.0
C      1  0.4841460000000  0.5592860000000  0.5909540000000 1.0
C      1  0.5153030000000  0.5591880000000  0.4086860000000 1.0
C      1  0.4845520000000  0.4427450000000  0.5901220000000 1.0
C      1  0.5154550000000  0.4423810000000  0.4081070000000 1.0
C      1  0.5272960000000  0.5651430000000  0.5642260000000 1.0
C      1  0.4719810000000  0.5661020000000  0.4351800000000 1.0
C      1  0.5275510000000  0.4367360000000  0.5639540000000 1.0
C      1  0.4721130000000  0.4356060000000  0.4346800000000 1.0
C      1  0.4717650000000  0.5651610000000  0.5644950000000 1.0
C      1  0.5275860000000  0.5660620000000  0.4350470000000 1.0
C      1  0.4722070000000  0.4364480000000  0.5638970000000 1.0
C      1  0.5275630000000  0.4358570000000  0.4347000000000 1.0
C      1  0.4091300000000  0.5581590000000  0.4834720000000 1.0
C      1  0.5901810000000  0.5581170000000  0.5155740000000 1.0
C      1  0.4084770000000  0.4424480000000  0.4837010000000 1.0
C      1  0.5907230000000  0.4434050000000  0.5152350000000 1.0
C      1  0.5906990000000  0.5587640000000  0.4838100000000 1.0
C      1  0.4085380000000  0.5584460000000  0.5152410000000 1.0
C      1  0.5906550000000  0.4433980000000  0.4834510000000 1.0
C      1  0.4092060000000  0.4431710000000  0.5155260000000 1.0
C      1  0.5548990000000  0.4467220000000  0.5557290000000 1.0
C      1  0.4444920000000  0.4454380000000  0.4428460000000 1.0
C      1  0.5543390000000  0.5548800000000  0.5558430000000 1.0
C      1  0.4452050000000  0.5554000000000  0.4436830000000 1.0
C      1  0.4451800000000  0.4466610000000  0.5555750000000 1.0
C      1  0.5552220000000  0.4457630000000  0.4427750000000 1.0
C      1  0.4443540000000  0.5551410000000  0.5562100000000 1.0
C      1  0.5548930000000  0.5557720000000  0.4432230000000 1.0
C      1  0.5145150000000  0.5879170000000  0.5512940000000 1.0
C      1  0.4847040000000  0.5890630000000  0.4480210000000 1.0
C      1  0.5149470000000  0.4137790000000  0.5509400000000 1.0
C      1  0.4848380000000  0.4125040000000  0.4475760000000 1.0
C      1  0.4845200000000  0.5880520000000  0.5514250000000 1.0
C      1  0.5148110000000  0.5890940000000  0.4479660000000 1.0
C      1  0.4849980000000  0.4137180000000  0.5508940000000 1.0
C      1  0.5149750000000  0.4126140000000  0.4475510000000 1.0
C      1  0.4252620000000  0.4858660000000  0.5289180000000 1.0
C      1  0.5731500000000  0.4861250000000  0.4708850000000 1.0
C      1  0.4242790000000  0.5173270000000  0.5296650000000 1.0
C      1  0.5740850000000  0.5171650000000  0.4704490000000 1.0
C      1  0.5747830000000  0.4845230000000  0.5293160000000 1.0
C      1  0.4256960000000  0.4839010000000  0.4706520000000 1.0
C      1  0.5742020000000  0.5160280000000  0.5289710000000 1.0
C      1  0.4266790000000  0.5151540000000  0.4717330000000 1.0
C      1  0.4354280000000  0.5648730000000  0.4710470000000 1.0
C      1  0.5639020000000  0.5641460000000  0.5282740000000 1.0
C      1  0.4349090000000  0.4361780000000  0.4707570000000 1.0
C      1  0.5643050000000  0.4377290000000  0.5278240000000 1.0
C      1  0.5641910000000  0.5647250000000  0.4711640000000 1.0
C      1  0.4347410000000  0.5645220000000  0.5283450000000 1.0
C      1  0.5645060000000  0.4367030000000  0.4707060000000 1.0
C      1  0.4355320000000  0.4371240000000  0.5280990000000 1.0
C      1  0.5257960000000  0.5973280000000  0.4737610000000 1.0
C      1  0.4733980000000  0.5968410000000  0.5258880000000 1.0
C      1  0.5260760000000  0.4043630000000  0.4733370000000 1.0
C      1  0.4739130000000  0.4048390000000  0.5254340000000 1.0
C      1  0.4735760000000  0.5973980000000  0.4737500000000 1.0
C      1  0.5256150000000  0.5966510000000  0.5257950000000 1.0
C      1  0.4737410000000  0.4041120000000  0.4733470000000 1.0
C      1  0.5260350000000  0.4050850000000  0.5254010000000 1.0
C      1  0.4840020000000  0.6222200000000  0.5155320000000 1.0
C      1  0.5153010000000  0.6225430000000  0.4845510000000 1.0
C      1  0.4844510000000  0.3794300000000  0.5151670000000 1.0
C      1  0.5156700000000  0.3791390000000  0.4841170000000 1.0
C      1  0.5152480000000  0.6221300000000  0.5155560000000 1.0
C      1  0.4840340000000  0.6226040000000  0.4845070000000 1.0
C      1  0.5156860000000  0.3795820000000  0.5151390000000 1.0
C      1  0.4844150000000  0.3789900000000  0.4841410000000 1.0
C      1  0.5483910000000  0.4765030000000  0.5143950000000 1.0
C      1  0.4493920000000  0.4750470000000  0.4861790000000 1.0
C      1  0.5481500000000  0.5157710000000  0.5130180000000 1.0
C      1  0.4515210000000  0.5223110000000  0.4867350000000 1.0
C      1  0.4512590000000  0.4865610000000  0.5128710000000 1.0
C      1  0.5478800000000  0.4809300000000  0.4857570000000 1.0
C      1  0.4507970000000  0.5257210000000  0.5153090000000 1.0
C      1  0.5499710000000  0.5254600000000  0.4857710000000 1.0
C      1  0.4244760000000  0.5007610000000  0.4359120000000 1.0
C      1  0.5755420000000  0.5010350000000  0.4353580000000 1.0
C      1  0.4235480000000  0.5008750000000  0.5645340000000 1.0
C      1  0.5758860000000  0.5006710000000  0.5643750000000 1.0
C      1  0.5010490000000  0.5332800000000  0.5083240000000 1.0
C      1  0.4975100000000  0.4713260000000  0.5077050000000 1.0
C      1  0.5003460000000  0.4956230000000  0.4858330000000 1.0
END
