TITL C-3578194-7807-393 -3.59957044528711e-07 125000 -444.240799254056 0 0 75 (C1) n - 1
REM
REM in /home/bkarasulu/work/CARBON/AIRSS/Generating-Clusters/EDIP-Nigel-Params/with-SteepDescent/Higher-Symm/SD-CG/HFTN-CG
REM
REM
REM
REM
REM
REM ./C.cell (12c818d87b63d06a65506943cc24bca4)
REM
REM compiler GCC version 9.2.1 20190827 (Red Hat 9.2.1-1)
REM options -cpp -mtune=generic -march=x86-64 -g -O0 -fpre-include=/usr/include/finclude/math-vector-fortran.h
REM seed -2060213702 99361103 -1145330280 -1347236969 -2141419941 -247618165 1909652316 -1344935307 -2085242269 -419236892 1126645315 -1136535600 942080310 529025792 -1210830651 -1086329144 1371952405 1184326528 -1944479542 -460744906 -832735035 713898584 -600443488 -1354711954 -2068329533 -739190548 -703138577 1109589752 755329362 -1192558646 -1515711562 936843271 2009269365
REM
CELL 1.54180   50.00000   50.00000   50.00000   90.00000   90.00000   90.00000
LATT -1
SFAC C  
C      1  0.5327150000000  0.4356200000000  0.5421210000000 1.0
C      1  0.5074870000000  0.4037840000000  0.5175140000000 1.0
C      1  0.5222430000000  0.4181890000000  0.4708510000000 1.0
C      1  0.5275770000000  0.4534450000000  0.4318720000000 1.0
C      1  0.5274380000000  0.5041740000000  0.4191370000000 1.0
C      1  0.5263380000000  0.5490080000000  0.4344000000000 1.0
C      1  0.5100030000000  0.5926810000000  0.4591200000000 1.0
C      1  0.5301130000000  0.5804800000000  0.5005370000000 1.0
C      1  0.5186380000000  0.5667690000000  0.5555380000000 1.0
C      1  0.5374880000000  0.5236160000000  0.5783260000000 1.0
C      1  0.5174560000000  0.4747700000000  0.5794340000000 1.0
C      1  0.5493070000000  0.4962440000000  0.4345550000000 1.0
C      1  0.5391050000000  0.5537480000000  0.4591190000000 1.0
C      1  0.5321760000000  0.5795580000000  0.4711540000000 1.0
C      1  0.5464190000000  0.5632950000000  0.5167380000000 1.0
C      1  0.5437720000000  0.5607710000000  0.5449960000000 1.0
C      1  0.5532540000000  0.5040810000000  0.5658640000000 1.0
C      1  0.5420110000000  0.4776540000000  0.5662380000000 1.0
C      1  0.5490220000000  0.4599620000000  0.5447110000000 1.0
C      1  0.5322670000000  0.4179220000000  0.5175790000000 1.0
C      1  0.5370910000000  0.4303880000000  0.4916760000000 1.0
C      1  0.5452540000000  0.4701840000000  0.4462540000000 1.0
C      1  0.4912690000000  0.4813270000000  0.5755250000000 1.0
C      1  0.5037220000000  0.4416680000000  0.5458900000000 1.0
C      1  0.4891560000000  0.4236700000000  0.5261020000000 1.0
C      1  0.4951550000000  0.4220800000000  0.4675780000000 1.0
C      1  0.5001450000000  0.4558450000000  0.4312690000000 1.0
C      1  0.5001780000000  0.5028800000000  0.4209090000000 1.0
C      1  0.4990100000000  0.5460170000000  0.4324310000000 1.0
C      1  0.4882370000000  0.5774990000000  0.4652820000000 1.0
C      1  0.5033820000000  0.5819710000000  0.5097720000000 1.0
C      1  0.4916240000000  0.5626920000000  0.5524100000000 1.0
C      1  0.5134280000000  0.5237970000000  0.5652110000000 1.0
C      1  0.5629420000000  0.4410700000000  0.4854320000000 1.0
C      1  0.5638700000000  0.4573680000000  0.4627700000000 1.0
C      1  0.5647360000000  0.5159060000000  0.4474430000000 1.0
C      1  0.5641480000000  0.5399020000000  0.4621330000000 1.0
C      1  0.5775830000000  0.5419350000000  0.4867340000000 1.0
C      1  0.5726370000000  0.5526310000000  0.5123680000000 1.0
C      1  0.5757330000000  0.5391770000000  0.5390170000000 1.0
C      1  0.5700160000000  0.5113600000000  0.5436200000000 1.0
C      1  0.5840510000000  0.4905650000000  0.5290240000000 1.0
C      1  0.5737930000000  0.4633500000000  0.5305720000000 1.0
C      1  0.5780340000000  0.4478970000000  0.5077460000000 1.0
C      1  0.4840910000000  0.4891540000000  0.5483940000000 1.0
C      1  0.4961010000000  0.4672200000000  0.5308700000000 1.0
C      1  0.4826770000000  0.4491420000000  0.5077030000000 1.0
C      1  0.4984490000000  0.4483350000000  0.4796890000000 1.0
C      1  0.5021660000000  0.4703820000000  0.4565520000000 1.0
C      1  0.4901510000000  0.5014710000000  0.4484020000000 1.0
C      1  0.5006280000000  0.5316210000000  0.4584030000000 1.0
C      1  0.4842530000000  0.5516220000000  0.4775500000000 1.0
C      1  0.4943920000000  0.5549530000000  0.5063080000000 1.0
C      1  0.4836360000000  0.5427890000000  0.5325140000000 1.0
C      1  0.4967610000000  0.5169490000000  0.5435570000000 1.0
C      1  0.4541750000000  0.4898060000000  0.5450510000000 1.0
C      1  0.4446050000000  0.4698420000000  0.5272650000000 1.0
C      1  0.4531580000000  0.4534970000000  0.5056120000000 1.0
C      1  0.4450850000000  0.4605900000000  0.4793660000000 1.0
C      1  0.4486510000000  0.4774010000000  0.4580490000000 1.0
C      1  0.4599840000000  0.5012880000000  0.4483790000000 1.0
C      1  0.4492910000000  0.5251510000000  0.4588680000000 1.0
C      1  0.4553130000000  0.5454060000000  0.4774170000000 1.0
C      1  0.4450680000000  0.5452160000000  0.5036680000000 1.0
C      1  0.4538720000000  0.5396010000000  0.5298330000000 1.0
C      1  0.4446600000000  0.5159290000000  0.5415360000000 1.0
C      1  0.5944010000000  0.4970810000000  0.5035690000000 1.0
C      1  0.3910410000000  0.4838500000000  0.5011230000000 1.0
C      1  0.5189210000000  0.5050620000000  0.4883650000000 1.0
C      1  0.5452040000000  0.5000950000000  0.4900070000000 1.0
C      1  0.5723260000000  0.4979260000000  0.4870280000000 1.0
C      1  0.4925910000000  0.5043610000000  0.4930060000000 1.0
C      1  0.4674550000000  0.4949260000000  0.4979900000000 1.0
C      1  0.4163400000000  0.4883940000000  0.4988360000000 1.0
C      1  0.4400780000000  0.5019830000000  0.4954810000000 1.0
END
