TITL C-3577085-527-621 -2.42219464644656e-06 125000 -1160.51693545055 0 0 187 (C1) n - 1
REM
REM in /home/bkarasulu/work/CARBON/AIRSS/Generating-Clusters/EDIP-Nigel-Params/with-SteepDescent/Higher-Symm/SD-CG/HFTN-CG
REM
REM
REM
REM
REM
REM ./C.cell (12c818d87b63d06a65506943cc24bca4)
REM
REM compiler GCC version 9.2.1 20190827 (Red Hat 9.2.1-1)
REM options -cpp -mtune=generic -march=x86-64 -g -O0 -fpre-include=/usr/include/finclude/math-vector-fortran.h
REM seed 825335656 -1288896542 -647771360 -973006853 58913617 1308631098 -2595313 -635646287 1128618167 -1953735321 1250413089 -612011735 -402681631 -300808239 40909879 751409745 -63823680 -2077196063 -2108866454 1963346083 -1145992639 1424819531 2108674606 274983830 -868857354 1835241002 -742571123 -474331287 -2042188113 -1349778457 1705084283 -397315093 1856820976
REM
CELL 1.54180   50.00000   50.00000   50.00000   90.00000   90.00000   90.00000
LATT -1
SFAC C  
C      1  0.4333420000000  0.5300150000000  0.5704920000000 1.0
C      1  0.5365050000000  0.6001480000000  0.4464180000000 1.0
C      1  0.5680460000000  0.4351460000000  0.5273730000000 1.0
C      1  0.4460280000000  0.4735930000000  0.4123410000000 1.0
C      1  0.5783560000000  0.5157530000000  0.4037820000000 1.0
C      1  0.5651740000000  0.4981880000000  0.5644820000000 1.0
C      1  0.5277900000000  0.4275080000000  0.5580000000000 1.0
C      1  0.4828900000000  0.5993100000000  0.5828920000000 1.0
C      1  0.4680290000000  0.4227320000000  0.4212910000000 1.0
C      1  0.5767400000000  0.5662870000000  0.4762810000000 1.0
C      1  0.4096480000000  0.4318490000000  0.4656320000000 1.0
C      1  0.4201300000000  0.5582440000000  0.5283580000000 1.0
C      1  0.4489870000000  0.4119830000000  0.4828610000000 1.0
C      1  0.4158940000000  0.4774480000000  0.4479340000000 1.0
C      1  0.4813460000000  0.4394480000000  0.4009330000000 1.0
C      1  0.4281700000000  0.5858610000000  0.5197400000000 1.0
C      1  0.5263000000000  0.4106450000000  0.5116710000000 1.0
C      1  0.5248290000000  0.6144460000000  0.5064920000000 1.0
C      1  0.4009140000000  0.5064560000000  0.5512350000000 1.0
C      1  0.6197290000000  0.5020070000000  0.5576930000000 1.0
C      1  0.6003260000000  0.5059240000000  0.4427800000000 1.0
C      1  0.4887610000000  0.5531850000000  0.5923730000000 1.0
C      1  0.5193970000000  0.4380220000000  0.5851040000000 1.0
C      1  0.5293930000000  0.5454390000000  0.4194730000000 1.0
C      1  0.5828570000000  0.4598090000000  0.4521970000000 1.0
C      1  0.4722570000000  0.4513350000000  0.5643390000000 1.0
C      1  0.4494980000000  0.5730360000000  0.4734530000000 1.0
C      1  0.5801350000000  0.5307760000000  0.5387250000000 1.0
C      1  0.4114110000000  0.4594830000000  0.5583370000000 1.0
C      1  0.4220370000000  0.5264880000000  0.4531710000000 1.0
C      1  0.4836680000000  0.5488860000000  0.4444110000000 1.0
C      1  0.5312890000000  0.4431900000000  0.4159230000000 1.0
C      1  0.5336980000000  0.5472200000000  0.5703910000000 1.0
C      1  0.4451060000000  0.4372240000000  0.5283570000000 1.0
C      1  0.5471550000000  0.5767040000000  0.5180570000000 1.0
C      1  0.5465240000000  0.4409680000000  0.4792060000000 1.0
C      1  0.5607350000000  0.5714070000000  0.4510630000000 1.0
C      1  0.5787730000000  0.4728480000000  0.5550020000000 1.0
C      1  0.4682240000000  0.5751830000000  0.5852060000000 1.0
C      1  0.5582560000000  0.4289240000000  0.5559140000000 1.0
C      1  0.4503430000000  0.5736740000000  0.5605250000000 1.0
C      1  0.4343260000000  0.4180630000000  0.4587690000000 1.0
C      1  0.5830030000000  0.5277350000000  0.4285670000000 1.0
C      1  0.4315140000000  0.4577650000000  0.4316490000000 1.0
C      1  0.4261760000000  0.5564190000000  0.5591900000000 1.0
C      1  0.4503710000000  0.4366340000000  0.4422530000000 1.0
C      1  0.5547310000000  0.5444030000000  0.4369860000000 1.0
C      1  0.5648610000000  0.4517550000000  0.5740320000000 1.0
C      1  0.6011880000000  0.5523160000000  0.4748330000000 1.0
C      1  0.5637190000000  0.5039710000000  0.5920030000000 1.0
C      1  0.4984110000000  0.5952090000000  0.5596230000000 1.0
C      1  0.5958870000000  0.4291280000000  0.5214690000000 1.0
C      1  0.3943660000000  0.5502490000000  0.5185550000000 1.0
C      1  0.3930530000000  0.4288430000000  0.4882160000000 1.0
C      1  0.5679480000000  0.5015330000000  0.3835470000000 1.0
C      1  0.4489860000000  0.5013540000000  0.4222640000000 1.0
C      1  0.4324890000000  0.5202920000000  0.5978510000000 1.0
C      1  0.4862230000000  0.4054810000000  0.4331650000000 1.0
C      1  0.5156620000000  0.6187890000000  0.4452310000000 1.0
C      1  0.5159840000000  0.4000140000000  0.5527380000000 1.0
C      1  0.5577880000000  0.5744020000000  0.5448450000000 1.0
C      1  0.5777390000000  0.5557300000000  0.5535480000000 1.0
C      1  0.5614260000000  0.5521130000000  0.5769040000000 1.0
C      1  0.5553550000000  0.4224830000000  0.4567940000000 1.0
C      1  0.4356420000000  0.5742010000000  0.4492300000000 1.0
C      1  0.4390380000000  0.4189000000000  0.5506210000000 1.0
C      1  0.5764130000000  0.4343760000000  0.4414000000000 1.0
C      1  0.4314410000000  0.5497720000000  0.4350250000000 1.0
C      1  0.4239780000000  0.4428090000000  0.5776030000000 1.0
C      1  0.5407950000000  0.4215700000000  0.4318570000000 1.0
C      1  0.4598440000000  0.5527550000000  0.4272290000000 1.0
C      1  0.4503950000000  0.4322900000000  0.5733710000000 1.0
C      1  0.4776120000000  0.5623700000000  0.4722330000000 1.0
C      1  0.5666860000000  0.4647560000000  0.4780450000000 1.0
C      1  0.4672660000000  0.4831950000000  0.5561180000000 1.0
C      1  0.4757210000000  0.4431300000000  0.5262260000000 1.0
C      1  0.5166630000000  0.5700490000000  0.5200650000000 1.0
C      1  0.5159900000000  0.4520120000000  0.4743190000000 1.0
C      1  0.5674590000000  0.5282590000000  0.5108790000000 1.0
C      1  0.4276250000000  0.4627130000000  0.5335340000000 1.0
C      1  0.4338250000000  0.5179960000000  0.4818830000000 1.0
C      1  0.4909880000000  0.5181000000000  0.4434270000000 1.0
C      1  0.5323900000000  0.4705590000000  0.4289700000000 1.0
C      1  0.5203100000000  0.5206440000000  0.5626270000000 1.0
C      1  0.5277310000000  0.4958820000000  0.4107870000000 1.0
C      1  0.4902950000000  0.4203110000000  0.5103450000000 1.0
C      1  0.4119840000000  0.5059550000000  0.5022530000000 1.0
C      1  0.5050990000000  0.5124680000000  0.5872490000000 1.0
C      1  0.4723550000000  0.5059470000000  0.5773070000000 1.0
C      1  0.4987500000000  0.5137890000000  0.4151900000000 1.0
C      1  0.4984150000000  0.5863230000000  0.4751250000000 1.0
C      1  0.4924250000000  0.4301380000000  0.4754910000000 1.0
C      1  0.5042960000000  0.5937040000000  0.5065270000000 1.0
C      1  0.4112530000000  0.4697850000000  0.5072870000000 1.0
C      1  0.5850280000000  0.5102260000000  0.4925280000000 1.0
C      1  0.5842300000000  0.4730940000000  0.5022840000000 1.0
C      1  0.5386850000000  0.5054720000000  0.6042160000000 1.0
C      1  0.4936930000000  0.6131500000000  0.5382290000000 1.0
C      1  0.6073380000000  0.5303310000000  0.4915950000000 1.0
C      1  0.5408170000000  0.4956840000000  0.3835090000000 1.0
C      1  0.4716490000000  0.5117770000000  0.4012200000000 1.0
C      1  0.4546870000000  0.5020070000000  0.6014570000000 1.0
C      1  0.4966500000000  0.4044400000000  0.4590270000000 1.0
C      1  0.4928920000000  0.6126430000000  0.4609840000000 1.0
C      1  0.4883330000000  0.3959520000000  0.5300530000000 1.0
C      1  0.6056710000000  0.4518460000000  0.5073550000000 1.0
C      1  0.3895500000000  0.5277020000000  0.5021670000000 1.0
C      1  0.3862770000000  0.4531940000000  0.5013000000000 1.0
C      1  0.5309420000000  0.3872220000000  0.5295060000000 1.0
C      1  0.3757970000000  0.5071980000000  0.5387500000000 1.0
C      1  0.5263400000000  0.5375150000000  0.3919630000000 1.0
C      1  0.5152430000000  0.6374730000000  0.4935350000000 1.0
C      1  0.4611840000000  0.3871090000000  0.4853120000000 1.0
C      1  0.4481530000000  0.5946670000000  0.5387370000000 1.0
C      1  0.3907890000000  0.4739830000000  0.4601280000000 1.0
C      1  0.6243550000000  0.5073570000000  0.4578320000000 1.0
C      1  0.6104290000000  0.4767440000000  0.5494950000000 1.0
C      1  0.5385280000000  0.4591890000000  0.5903610000000 1.0
C      1  0.4879570000000  0.5338120000000  0.6148240000000 1.0
C      1  0.4741850000000  0.4676490000000  0.4045780000000 1.0
C      1  0.4934610000000  0.4512430000000  0.5851630000000 1.0
C      1  0.4380230000000  0.5877480000000  0.4938950000000 1.0
C      1  0.5945370000000  0.4788920000000  0.4337950000000 1.0
C      1  0.5090810000000  0.5616590000000  0.4335350000000 1.0
C      1  0.5091480000000  0.4367700000000  0.4002600000000 1.0
C      1  0.5149750000000  0.5629060000000  0.5851260000000 1.0
C      1  0.4351730000000  0.4284810000000  0.5019530000000 1.0
C      1  0.5505880000000  0.6039020000000  0.5079770000000 1.0
C      1  0.5491190000000  0.4266230000000  0.5052980000000 1.0
C      1  0.6053590000000  0.5199660000000  0.5434220000000 1.0
C      1  0.4018880000000  0.4838660000000  0.5675510000000 1.0
C      1  0.4217880000000  0.5031860000000  0.4357050000000 1.0
C      1  0.5587310000000  0.5554210000000  0.4977520000000 1.0
C      1  0.5365900000000  0.4965600000000  0.5557060000000 1.0
C      1  0.5020570000000  0.5666570000000  0.5486460000000 1.0
C      1  0.5677640000000  0.4650010000000  0.5267790000000 1.0
C      1  0.4388640000000  0.5381560000000  0.5146950000000 1.0
C      1  0.4298020000000  0.4551760000000  0.4886530000000 1.0
C      1  0.5591650000000  0.4919480000000  0.4338610000000 1.0
C      1  0.4684600000000  0.4982870000000  0.4465990000000 1.0
C      1  0.4620270000000  0.5309270000000  0.5653520000000 1.0
C      1  0.4705570000000  0.4509280000000  0.4615320000000 1.0
C      1  0.5222220000000  0.5762080000000  0.4561820000000 1.0
C      1  0.5168080000000  0.4493250000000  0.5407170000000 1.0
C      1  0.6290070000000  0.5120330000000  0.4852920000000 1.0
C      1  0.5259520000000  0.4806960000000  0.6087710000000 1.0
C      1  0.4689950000000  0.6109200000000  0.5253840000000 1.0
C      1  0.6233110000000  0.4700910000000  0.5223830000000 1.0
C      1  0.3673630000000  0.5126240000000  0.5125280000000 1.0
C      1  0.3731110000000  0.4702610000000  0.4818640000000 1.0
C      1  0.5245660000000  0.5169560000000  0.3719910000000 1.0
C      1  0.4796580000000  0.4905400000000  0.3825480000000 1.0
C      1  0.4779120000000  0.5061990000000  0.6212260000000 1.0
C      1  0.4861960000000  0.3810660000000  0.4739510000000 1.0
C      1  0.4892400000000  0.6321390000000  0.4826750000000 1.0
C      1  0.5059560000000  0.3721640000000  0.5199630000000 1.0
C      1  0.5433770000000  0.5072800000000  0.5039970000000 1.0
C      1  0.4997110000000  0.5193430000000  0.5408170000000 1.0
C      1  0.5122620000000  0.5471950000000  0.5021110000000 1.0
C      1  0.5497560000000  0.4886850000000  0.4794320000000 1.0
C      1  0.4817410000000  0.5126470000000  0.4899640000000 1.0
C      1  0.4443570000000  0.4864430000000  0.5369550000000 1.0
C      1  0.5124970000000  0.4738680000000  0.4511030000000 1.0
C      1  0.5142000000000  0.5057700000000  0.4590020000000 1.0
C      1  0.4913270000000  0.4892460000000  0.5393660000000 1.0
C      1  0.5083250000000  0.4704520000000  0.4973040000000 1.0
C      1  0.4840800000000  0.5417590000000  0.4948460000000 1.0
C      1  0.4796050000000  0.4677340000000  0.5092400000000 1.0
C      1  0.4833270000000  0.4713260000000  0.4423680000000 1.0
C      1  0.4582700000000  0.4687240000000  0.4848300000000 1.0
C      1  0.4587730000000  0.4994410000000  0.4761470000000 1.0
C      1  0.4805190000000  0.5419670000000  0.5436570000000 1.0
C      1  0.5108380000000  0.4721460000000  0.5583050000000 1.0
C      1  0.5391680000000  0.5280430000000  0.4593990000000 1.0
C      1  0.4669420000000  0.5463260000000  0.5179810000000 1.0
C      1  0.5299040000000  0.4641070000000  0.5187540000000 1.0
C      1  0.5349440000000  0.5454320000000  0.4840420000000 1.0
C      1  0.4254070000000  0.5094390000000  0.5322200000000 1.0
C      1  0.5339730000000  0.4921920000000  0.5265530000000 1.0
C      1  0.5605320000000  0.5075990000000  0.4613940000000 1.0
C      1  0.4989520000000  0.4853620000000  0.6190820000000 1.0
C      1  0.5000410000000  0.5036910000000  0.3680220000000 1.0
C      1  0.5041580000000  0.3699320000000  0.4921150000000 1.0
C      1  0.4687610000000  0.6243530000000  0.5007410000000 1.0
C      1  0.6316500000000  0.4914570000000  0.5049830000000 1.0
C      1  0.3616320000000  0.4919510000000  0.4949110000000 1.0
C      1  0.5082420000000  0.5007310000000  0.4880640000000 1.0
END
