TITL C-3578208-4450-337 -9.36522772478513e-07 125000 -464.433815135414 0 0 73 (C1) n - 1
REM
REM in /home/bkarasulu/work/CARBON/AIRSS/Generating-Clusters/EDIP-Nigel-Params/with-SteepDescent/Higher-Symm/SD-CG/HFTN-CG
REM
REM
REM
REM
REM
REM ./C.cell (12c818d87b63d06a65506943cc24bca4)
REM
REM compiler GCC version 9.2.1 20190827 (Red Hat 9.2.1-1)
REM options -cpp -mtune=generic -march=x86-64 -g -O0 -fpre-include=/usr/include/finclude/math-vector-fortran.h
REM seed 671138954 1384769098 71442175 -1049375236 455816921 287379230 -244125289 228275261 -498335477 380628935 -1617695113 513999153 -1809677330 1939597404 -648371337 109617231 -1820620183 953897904 -486676539 -333771873 -1319972194 -1051009175 216001 -532203152 948775818 985034481 763580089 -881952700 -1493525518 596267224 -401562010 -797747966 -1285502448
REM
CELL 1.54180   50.00000   50.00000   50.00000   90.00000   90.00000   90.00000
LATT -1
SFAC C  
C      1  0.5552820000000  0.5364540000000  0.5395680000000 1.0
C      1  0.4837250000000  0.5448390000000  0.5309380000000 1.0
C      1  0.4481870000000  0.4957760000000  0.5330310000000 1.0
C      1  0.4850780000000  0.4459330000000  0.5335470000000 1.0
C      1  0.5425820000000  0.4667700000000  0.5338350000000 1.0
C      1  0.5200710000000  0.4163740000000  0.5192880000000 1.0
C      1  0.5791820000000  0.4914510000000  0.5207870000000 1.0
C      1  0.5308310000000  0.5682290000000  0.5152060000000 1.0
C      1  0.4387530000000  0.5508070000000  0.5178060000000 1.0
C      1  0.4309190000000  0.4548170000000  0.5180720000000 1.0
C      1  0.5549870000000  0.4962310000000  0.4397690000000 1.0
C      1  0.5114390000000  0.5363180000000  0.4452740000000 1.0
C      1  0.4639270000000  0.5305500000000  0.4397170000000 1.0
C      1  0.4626200000000  0.4752270000000  0.4418280000000 1.0
C      1  0.5087470000000  0.4646350000000  0.4497710000000 1.0
C      1  0.5772430000000  0.5155680000000  0.4772470000000 1.0
C      1  0.5143150000000  0.5776290000000  0.4716990000000 1.0
C      1  0.4285680000000  0.5372110000000  0.4721840000000 1.0
C      1  0.4409010000000  0.4438390000000  0.4717330000000 1.0
C      1  0.5335640000000  0.4321360000000  0.4745780000000 1.0
C      1  0.4748660000000  0.4945650000000  0.5179380000000 1.0
C      1  0.4929750000000  0.4708990000000  0.5174260000000 1.0
C      1  0.5209670000000  0.4806040000000  0.5172680000000 1.0
C      1  0.5406300000000  0.5251450000000  0.5144550000000 1.0
C      1  0.4917090000000  0.5182180000000  0.5188220000000 1.0
C      1  0.5098550000000  0.4321230000000  0.5440880000000 1.0
C      1  0.5633660000000  0.4866840000000  0.5454720000000 1.0
C      1  0.5319340000000  0.5576830000000  0.5429820000000 1.0
C      1  0.4557020000000  0.5437410000000  0.5421600000000 1.0
C      1  0.4417730000000  0.4681580000000  0.5436280000000 1.0
C      1  0.4252400000000  0.4703370000000  0.4713460000000 1.0
C      1  0.5050710000000  0.4225920000000  0.4731250000000 1.0
C      1  0.5807510000000  0.4770710000000  0.4749190000000 1.0
C      1  0.5417600000000  0.5640020000000  0.4703600000000 1.0
C      1  0.4449070000000  0.5633810000000  0.4708220000000 1.0
C      1  0.4825590000000  0.5640390000000  0.5079220000000 1.0
C      1  0.4269930000000  0.5022420000000  0.5128220000000 1.0
C      1  0.4723610000000  0.4270090000000  0.5136080000000 1.0
C      1  0.5583640000000  0.4499800000000  0.5148020000000 1.0
C      1  0.5740780000000  0.5428150000000  0.5047080000000 1.0
C      1  0.5221650000000  0.5053120000000  0.5577730000000 1.0
C      1  0.5032670000000  0.5253270000000  0.5704340000000 1.0
C      1  0.4762290000000  0.5085320000000  0.5716630000000 1.0
C      1  0.4834280000000  0.4781880000000  0.5710890000000 1.0
C      1  0.5135830000000  0.4769190000000  0.5685910000000 1.0
C      1  0.4307150000000  0.5284880000000  0.5003690000000 1.0
C      1  0.4499760000000  0.4410800000000  0.5001750000000 1.0
C      1  0.5434930000000  0.4272200000000  0.5024430000000 1.0
C      1  0.5609820000000  0.5059240000000  0.5015950000000 1.0
C      1  0.5070710000000  0.5786190000000  0.5010590000000 1.0
C      1  0.4909280000000  0.4449180000000  0.4609220000000 1.0
C      1  0.5590350000000  0.4736970000000  0.4558830000000 1.0
C      1  0.5372440000000  0.5371460000000  0.4589750000000 1.0
C      1  0.4675150000000  0.5580120000000  0.4506130000000 1.0
C      1  0.4434260000000  0.4896080000000  0.4581720000000 1.0
C      1  0.4179010000000  0.4761500000000  0.5006110000000 1.0
C      1  0.4962050000000  0.4126730000000  0.5004310000000 1.0
C      1  0.5811470000000  0.4666020000000  0.5028780000000 1.0
C      1  0.5536360000000  0.5640820000000  0.4974470000000 1.0
C      1  0.4543880000000  0.5697430000000  0.4999430000000 1.0
C      1  0.5599020000000  0.5201330000000  0.4535900000000 1.0
C      1  0.4967580000000  0.5588920000000  0.4563600000000 1.0
C      1  0.4397930000000  0.5179970000000  0.4519060000000 1.0
C      1  0.4634140000000  0.4470250000000  0.4515350000000 1.0
C      1  0.5347580000000  0.4593990000000  0.4626470000000 1.0
C      1  0.4516050000000  0.5167580000000  0.5549510000000 1.0
C      1  0.4670030000000  0.4566170000000  0.5557950000000 1.0
C      1  0.5280840000000  0.4527450000000  0.5561110000000 1.0
C      1  0.5518940000000  0.5117840000000  0.5580450000000 1.0
C      1  0.5039310000000  0.5501950000000  0.5533850000000 1.0
C      1  0.4900460000000  0.5161790000000  0.4412820000000 1.0
C      1  0.4900030000000  0.4865440000000  0.4414980000000 1.0
C      1  0.5183760000000  0.5080580000000  0.5265400000000 1.0
END
