TITL C-3578194-7807-289 -1.92030729420701e-06 125000 -298.566340438746 0 0 51 (C1) n - 1
REM
REM in /home/bkarasulu/work/CARBON/AIRSS/Generating-Clusters/EDIP-Nigel-Params/with-SteepDescent/Higher-Symm/SD-CG/HFTN-CG
REM
REM
REM
REM
REM
REM ./C.cell (12c818d87b63d06a65506943cc24bca4)
REM
REM compiler GCC version 9.2.1 20190827 (Red Hat 9.2.1-1)
REM options -cpp -mtune=generic -march=x86-64 -g -O0 -fpre-include=/usr/include/finclude/math-vector-fortran.h
REM seed -365902037 1431014152 1577453940 1038418323 -1741295428 -1259256935 1582851216 1257795767 -1250702779 -1368513653 -1127725978 249443608 -146053630 533129740 1312456114 1804366964 1794109314 -1407339638 408537707 -305031719 -1622591950 -1480728934 629961622 -1373895634 -1780888454 -1202877333 -11323166 1590652534 1948562113 -2069123265 -1353264652 -1611083606 653637153
REM
CELL 1.54180   50.00000   50.00000   50.00000   90.00000   90.00000   90.00000
LATT -1
SFAC C  
C      1  0.4582650000000  0.5477110000000  0.5470230000000 1.0
C      1  0.4800660000000  0.5457750000000  0.4446400000000 1.0
C      1  0.5636400000000  0.5464750000000  0.5123360000000 1.0
C      1  0.4938790000000  0.5259360000000  0.5282840000000 1.0
C      1  0.4784650000000  0.5268770000000  0.4805290000000 1.0
C      1  0.5285080000000  0.5263750000000  0.4909340000000 1.0
C      1  0.4661770000000  0.5527930000000  0.4689420000000 1.0
C      1  0.5461510000000  0.5507320000000  0.4903520000000 1.0
C      1  0.4860930000000  0.5512220000000  0.5425820000000 1.0
C      1  0.4560540000000  0.5196020000000  0.5503260000000 1.0
C      1  0.4782930000000  0.5182940000000  0.4369330000000 1.0
C      1  0.5661520000000  0.5181960000000  0.5128490000000 1.0
C      1  0.5612810000000  0.5057640000000  0.4858520000000 1.0
C      1  0.4816300000000  0.5070700000000  0.5601980000000 1.0
C      1  0.4566550000000  0.5051800000000  0.4515160000000 1.0
C      1  0.5396880000000  0.4505150000000  0.5187140000000 1.0
C      1  0.4627520000000  0.4530410000000  0.5248300000000 1.0
C      1  0.4956710000000  0.4510590000000  0.4560580000000 1.0
C      1  0.4368490000000  0.5195400000000  0.4676180000000 1.0
C      1  0.5604560000000  0.5214530000000  0.4604840000000 1.0
C      1  0.5043710000000  0.5229780000000  0.5712930000000 1.0
C      1  0.4340170000000  0.5047300000000  0.4923380000000 1.0
C      1  0.5405450000000  0.5060290000000  0.4461100000000 1.0
C      1  0.5263170000000  0.5067550000000  0.5613710000000 1.0
C      1  0.4872930000000  0.4491350000000  0.5406260000000 1.0
C      1  0.4695690000000  0.4472330000000  0.4690630000000 1.0
C      1  0.5408340000000  0.4477160000000  0.4894330000000 1.0
C      1  0.5120440000000  0.4440630000000  0.4809490000000 1.0
C      1  0.5091350000000  0.4438600000000  0.5201200000000 1.0
C      1  0.4760870000000  0.4435500000000  0.4983220000000 1.0
C      1  0.5538470000000  0.5012860000000  0.5345640000000 1.0
C      1  0.4427480000000  0.5022080000000  0.5298100000000 1.0
C      1  0.5032660000000  0.5014850000000  0.4361230000000 1.0
C      1  0.4385420000000  0.5479580000000  0.4680490000000 1.0
C      1  0.5578130000000  0.5493970000000  0.4646830000000 1.0
C      1  0.5024710000000  0.5507260000000  0.5655640000000 1.0
C      1  0.4729500000000  0.5155690000000  0.5092500000000 1.0
C      1  0.5061400000000  0.5180130000000  0.4712290000000 1.0
C      1  0.5221250000000  0.5171990000000  0.5188040000000 1.0
C      1  0.4820280000000  0.4865470000000  0.5036900000000 1.0
C      1  0.5074350000000  0.4875850000000  0.4779890000000 1.0
C      1  0.5152040000000  0.4870430000000  0.5162420000000 1.0
C      1  0.4967750000000  0.4735750000000  0.4385890000000 1.0
C      1  0.5544030000000  0.4731680000000  0.5281450000000 1.0
C      1  0.4465260000000  0.4742870000000  0.5348720000000 1.0
C      1  0.5337090000000  0.4815990000000  0.4612380000000 1.0
C      1  0.5161420000000  0.4824720000000  0.5478520000000 1.0
C      1  0.4514140000000  0.4806250000000  0.4919710000000 1.0
C      1  0.4522910000000  0.4697550000000  0.4651230000000 1.0
C      1  0.5548300000000  0.4693150000000  0.4765990000000 1.0
C      1  0.4924020000000  0.4705280000000  0.5589880000000 1.0
END
