TITL C-3578204-4308-486 1.03723670122874e-07 125000 -21.8093223926393 0 0 5 (D(inf)h) n - 1
REM
REM in /home/bkarasulu/work/CARBON/AIRSS/Generating-Clusters/EDIP-Nigel-Params/with-SteepDescent/Higher-Symm/SD-CG/HFTN-CG
REM
REM
REM
REM
REM
REM ./C.cell (12c818d87b63d06a65506943cc24bca4)
REM
REM compiler GCC version 9.2.1 20190827 (Red Hat 9.2.1-1)
REM options -cpp -mtune=generic -march=x86-64 -g -O0 -fpre-include=/usr/include/finclude/math-vector-fortran.h
REM seed 201841964 2035675410 1410313272 -1808899408 680905863 727396790 -1812305721 1695275184 -1696077194 -428597193 -2012015109 -1381755445 -675717594 421987806 113129844 905748859 2030014603 -1697696598 2098142055 -1236854446 255303012 -1894863378 -1940283674 870440156 -504302639 -1795151200 -1810437087 -1199679647 -486323630 10101369 -872273284 -1694258936 -778085731
REM
CELL 1.54180   50.00000   50.00000   50.00000   90.00000   90.00000   90.00000
LATT -1
SFAC C  
C      1  0.5002810000000  0.4736150000000  0.4991510000000 1.0
C      1  0.5002810000000  0.5000000000000  0.4991510000000 1.0
C      1  0.5002810000000  0.4480440000000  0.4991510000000 1.0
C      1  0.5002810000000  0.5263850000000  0.4991510000000 1.0
C      1  0.5002810000000  0.5519560000000  0.4991510000000 1.0
END
