TITL C-3577091-527-714 5.25417459125666e-07 125000 -1156.84364504441 0 0 185 (C1) n - 1
REM
REM in /home/bkarasulu/work/CARBON/AIRSS/Generating-Clusters/EDIP-Nigel-Params/with-SteepDescent/Higher-Symm/SD-CG/HFTN-CG
REM
REM
REM
REM
REM
REM ./C.cell (12c818d87b63d06a65506943cc24bca4)
REM
REM compiler GCC version 9.2.1 20190827 (Red Hat 9.2.1-1)
REM options -cpp -mtune=generic -march=x86-64 -g -O0 -fpre-include=/usr/include/finclude/math-vector-fortran.h
REM seed 698671336 1823609236 -526746198 573919203 -2088650975 -193821434 1493574187 -1157591149 870051418 -328524093 -1813582072 452381475 255741320 -298915968 -1649460330 2116588542 -1087986216 1676102173 -1678983499 1487859571 -713411091 927181302 1726734963 -419229122 1461398310 -364016634 -677011039 -969581147 87713004 861206015 -660402909 -318860203 1160681355
REM
CELL 1.54180   50.00000   50.00000   50.00000   90.00000   90.00000   90.00000
LATT -1
SFAC C  
C      1  0.5066500000000  0.4480850000000  0.4611430000000 1.0
C      1  0.4626260000000  0.4775860000000  0.4926160000000 1.0
C      1  0.4763410000000  0.5065480000000  0.4520760000000 1.0
C      1  0.4941370000000  0.4498240000000  0.5141260000000 1.0
C      1  0.4910940000000  0.5521910000000  0.4719470000000 1.0
C      1  0.5038790000000  0.5392940000000  0.5140110000000 1.0
C      1  0.5474640000000  0.4655920000000  0.4925190000000 1.0
C      1  0.5504460000000  0.5289850000000  0.4992010000000 1.0
C      1  0.4573840000000  0.5225770000000  0.4922920000000 1.0
C      1  0.5316850000000  0.5063510000000  0.5383060000000 1.0
C      1  0.5326150000000  0.4933020000000  0.4529420000000 1.0
C      1  0.4754750000000  0.4893290000000  0.5394200000000 1.0
C      1  0.4683200000000  0.4503930000000  0.5011370000000 1.0
C      1  0.5132710000000  0.4722270000000  0.4470740000000 1.0
C      1  0.4505870000000  0.5103780000000  0.4653690000000 1.0
C      1  0.5206820000000  0.4456070000000  0.4873640000000 1.0
C      1  0.4683260000000  0.5504630000000  0.4899750000000 1.0
C      1  0.5264110000000  0.5429860000000  0.4961290000000 1.0
C      1  0.4951970000000  0.4676960000000  0.5374230000000 1.0
C      1  0.5125800000000  0.5284870000000  0.5399790000000 1.0
C      1  0.4979240000000  0.5290700000000  0.4543240000000 1.0
C      1  0.5488490000000  0.5056070000000  0.5152320000000 1.0
C      1  0.4568910000000  0.4932700000000  0.5173120000000 1.0
C      1  0.5574580000000  0.4834210000000  0.4655430000000 1.0
C      1  0.6147760000000  0.5173630000000  0.4667340000000 1.0
C      1  0.5071690000000  0.4710720000000  0.6077900000000 1.0
C      1  0.4646150000000  0.6089950000000  0.5158780000000 1.0
C      1  0.3949600000000  0.5099440000000  0.5403930000000 1.0
C      1  0.3923360000000  0.4881290000000  0.4700370000000 1.0
C      1  0.6065650000000  0.4902930000000  0.5398950000000 1.0
C      1  0.4854270000000  0.4623540000000  0.3887700000000 1.0
C      1  0.4910500000000  0.5328420000000  0.6075040000000 1.0
C      1  0.5135080000000  0.5376550000000  0.3906180000000 1.0
C      1  0.5350770000000  0.6064130000000  0.4889880000000 1.0
C      1  0.5317840000000  0.3911330000000  0.5163180000000 1.0
C      1  0.4651720000000  0.3893720000000  0.4885500000000 1.0
C      1  0.4705620000000  0.5104280000000  0.6084500000000 1.0
C      1  0.6080440000000  0.4671140000000  0.5196320000000 1.0
C      1  0.5135290000000  0.6073040000000  0.4683560000000 1.0
C      1  0.5335250000000  0.5153550000000  0.3910110000000 1.0
C      1  0.4647720000000  0.4858090000000  0.3890390000000 1.0
C      1  0.5280900000000  0.4928590000000  0.6076890000000 1.0
C      1  0.3923070000000  0.4657740000000  0.4906260000000 1.0
C      1  0.6087260000000  0.5376030000000  0.4876760000000 1.0
C      1  0.3929110000000  0.5313100000000  0.5190670000000 1.0
C      1  0.4872850000000  0.6077080000000  0.5365520000000 1.0
C      1  0.5091080000000  0.3932010000000  0.5375480000000 1.0
C      1  0.4857100000000  0.3883310000000  0.4662240000000 1.0
C      1  0.5229080000000  0.4089590000000  0.4230550000000 1.0
C      1  0.3998530000000  0.4211350000000  0.5400730000000 1.0
C      1  0.4209720000000  0.5360530000000  0.4060470000000 1.0
C      1  0.4572160000000  0.4009490000000  0.5812960000000 1.0
C      1  0.4673600000000  0.5976040000000  0.4265900000000 1.0
C      1  0.5334600000000  0.6073160000000  0.5839320000000 1.0
C      1  0.5845020000000  0.4318140000000  0.4788730000000 1.0
C      1  0.5872300000000  0.5770940000000  0.5249400000000 1.0
C      1  0.4083510000000  0.5783590000000  0.4792520000000 1.0
C      1  0.5737830000000  0.5316130000000  0.5916300000000 1.0
C      1  0.5723120000000  0.4722190000000  0.4118120000000 1.0
C      1  0.4238360000000  0.4713120000000  0.5926140000000 1.0
C      1  0.4212220000000  0.4099730000000  0.5259080000000 1.0
C      1  0.5362670000000  0.4209980000000  0.4016500000000 1.0
C      1  0.4113330000000  0.5295520000000  0.4324470000000 1.0
C      1  0.5753080000000  0.4061380000000  0.4695940000000 1.0
C      1  0.4197580000000  0.6017050000000  0.4681740000000 1.0
C      1  0.5739980000000  0.5964180000000  0.5401110000000 1.0
C      1  0.4689380000000  0.4245160000000  0.5914270000000 1.0
C      1  0.5259690000000  0.5813850000000  0.5916670000000 1.0
C      1  0.4744700000000  0.5713100000000  0.4173990000000 1.0
C      1  0.5967440000000  0.5444320000000  0.5816370000000 1.0
C      1  0.3980630000000  0.4633380000000  0.5847170000000 1.0
C      1  0.5802900000000  0.4774710000000  0.4441830000000 1.0
C      1  0.5882690000000  0.4453280000000  0.5211730000000 1.0
C      1  0.4590530000000  0.5031490000000  0.5831820000000 1.0
C      1  0.5161550000000  0.5882280000000  0.4461940000000 1.0
C      1  0.4140520000000  0.4462540000000  0.4888800000000 1.0
C      1  0.4148310000000  0.5499340000000  0.5178960000000 1.0
C      1  0.5970050000000  0.5621740000000  0.4793850000000 1.0
C      1  0.5579710000000  0.5194040000000  0.4067830000000 1.0
C      1  0.5440630000000  0.4944370000000  0.5837570000000 1.0
C      1  0.4433720000000  0.4865620000000  0.4098330000000 1.0
C      1  0.4917120000000  0.5830810000000  0.5520060000000 1.0
C      1  0.4796590000000  0.4080500000000  0.4452210000000 1.0
C      1  0.5085170000000  0.4157630000000  0.5565840000000 1.0
C      1  0.5045040000000  0.4561000000000  0.5834480000000 1.0
C      1  0.5965780000000  0.5170020000000  0.4442520000000 1.0
C      1  0.4468650000000  0.5852710000000  0.5136820000000 1.0
C      1  0.4835340000000  0.4408900000000  0.4091790000000 1.0
C      1  0.5196780000000  0.5585380000000  0.4097160000000 1.0
C      1  0.4957890000000  0.5453860000000  0.5819590000000 1.0
C      1  0.4201380000000  0.5066550000000  0.5550980000000 1.0
C      1  0.5825050000000  0.4919860000000  0.5562390000000 1.0
C      1  0.4103210000000  0.4840420000000  0.4471770000000 1.0
C      1  0.5556810000000  0.5854910000000  0.4871290000000 1.0
C      1  0.4462640000000  0.4107940000000  0.4834030000000 1.0
C      1  0.5543700000000  0.4103030000000  0.5185090000000 1.0
C      1  0.3881610000000  0.5552690000000  0.4735910000000 1.0
C      1  0.5469770000000  0.4693450000000  0.3970920000000 1.0
C      1  0.4609680000000  0.3910380000000  0.5548640000000 1.0
C      1  0.6082220000000  0.5577770000000  0.5332100000000 1.0
C      1  0.6096570000000  0.4470580000000  0.4735380000000 1.0
C      1  0.3898100000000  0.4473290000000  0.5380090000000 1.0
C      1  0.4422870000000  0.4661150000000  0.6167900000000 1.0
C      1  0.4482210000000  0.5328840000000  0.3971400000000 1.0
C      1  0.5523730000000  0.5378170000000  0.6128330000000 1.0
C      1  0.5318580000000  0.3894750000000  0.4447410000000 1.0
C      1  0.5327390000000  0.6196010000000  0.5582690000000 1.0
C      1  0.4670090000000  0.6072740000000  0.4537250000000 1.0
C      1  0.4664770000000  0.5553270000000  0.3936990000000 1.0
C      1  0.3833730000000  0.4642030000000  0.5604160000000 1.0
C      1  0.5482540000000  0.3959220000000  0.4688720000000 1.0
C      1  0.5333360000000  0.5626320000000  0.6154470000000 1.0
C      1  0.4635520000000  0.4437160000000  0.6152310000000 1.0
C      1  0.5346230000000  0.4452540000000  0.3870860000000 1.0
C      1  0.6082110000000  0.4700750000000  0.4552730000000 1.0
C      1  0.3880990000000  0.5353450000000  0.4507140000000 1.0
C      1  0.6065840000000  0.5392020000000  0.5554930000000 1.0
C      1  0.4407480000000  0.3884520000000  0.5337490000000 1.0
C      1  0.5498680000000  0.6104890000000  0.5370120000000 1.0
C      1  0.4440050000000  0.6166950000000  0.4684730000000 1.0
C      1  0.4344180000000  0.4523800000000  0.4695890000000 1.0
C      1  0.4536620000000  0.4735150000000  0.4328210000000 1.0
C      1  0.4780940000000  0.4359060000000  0.4545890000000 1.0
C      1  0.5621410000000  0.4569550000000  0.5238660000000 1.0
C      1  0.5669940000000  0.5385900000000  0.4761120000000 1.0
C      1  0.4395230000000  0.5424190000000  0.5275790000000 1.0
C      1  0.5370530000000  0.4839480000000  0.5576210000000 1.0
C      1  0.5544030000000  0.5329250000000  0.4309940000000 1.0
C      1  0.4676870000000  0.5128870000000  0.5569070000000 1.0
C      1  0.5278240000000  0.4360290000000  0.5513090000000 1.0
C      1  0.5255940000000  0.5627120000000  0.4567330000000 1.0
C      1  0.4777030000000  0.5601860000000  0.5430530000000 1.0
C      1  0.4662790000000  0.4481270000000  0.4307850000000 1.0
C      1  0.4374620000000  0.4791840000000  0.4564420000000 1.0
C      1  0.4581330000000  0.4365250000000  0.4764180000000 1.0
C      1  0.5164860000000  0.4622090000000  0.5576010000000 1.0
C      1  0.4878990000000  0.5353880000000  0.5559730000000 1.0
C      1  0.5276620000000  0.5441310000000  0.4336310000000 1.0
C      1  0.5622710000000  0.4732630000000  0.5486040000000 1.0
C      1  0.4420510000000  0.5226380000000  0.5469210000000 1.0
C      1  0.5684880000000  0.5191370000000  0.4529370000000 1.0
C      1  0.5458210000000  0.4343400000000  0.5300050000000 1.0
C      1  0.4605630000000  0.5599530000000  0.5189850000000 1.0
C      1  0.5530160000000  0.5647530000000  0.4676790000000 1.0
C      1  0.4594940000000  0.4898560000000  0.6264860000000 1.0
C      1  0.4882540000000  0.6209580000000  0.4679950000000 1.0
C      1  0.6236160000000  0.4615200000000  0.4960100000000 1.0
C      1  0.5338070000000  0.4890050000000  0.3799150000000 1.0
C      1  0.5356600000000  0.5155290000000  0.6243850000000 1.0
C      1  0.4610380000000  0.5131140000000  0.3790680000000 1.0
C      1  0.5087600000000  0.6266330000000  0.5414830000000 1.0
C      1  0.5105810000000  0.3745940000000  0.4607120000000 1.0
C      1  0.4842640000000  0.3784330000000  0.5412630000000 1.0
C      1  0.3790540000000  0.4637770000000  0.5161580000000 1.0
C      1  0.3765780000000  0.5376090000000  0.4956560000000 1.0
C      1  0.6209640000000  0.5397960000000  0.5135080000000 1.0
C      1  0.6229860000000  0.4901080000000  0.4706880000000 1.0
C      1  0.4594100000000  0.6264690000000  0.4929020000000 1.0
C      1  0.4857250000000  0.4620520000000  0.6254040000000 1.0
C      1  0.3759860000000  0.4888220000000  0.5452790000000 1.0
C      1  0.6203800000000  0.5158890000000  0.5426710000000 1.0
C      1  0.3769840000000  0.5127710000000  0.4671900000000 1.0
C      1  0.5350280000000  0.6204000000000  0.5139340000000 1.0
C      1  0.4587010000000  0.3757830000000  0.5132560000000 1.0
C      1  0.5349280000000  0.3793920000000  0.4895840000000 1.0
C      1  0.5105600000000  0.4590880000000  0.3741910000000 1.0
C      1  0.4875480000000  0.5404540000000  0.3785080000000 1.0
C      1  0.5106060000000  0.5443520000000  0.6260600000000 1.0
C      1  0.4950620000000  0.4287080000000  0.5806550000000 1.0
C      1  0.5024780000000  0.5829060000000  0.4181180000000 1.0
C      1  0.5828030000000  0.4181730000000  0.5058920000000 1.0
C      1  0.4182660000000  0.5763690000000  0.5059650000000 1.0
C      1  0.4310670000000  0.4958010000000  0.5805440000000 1.0
C      1  0.5805670000000  0.5011730000000  0.4132520000000 1.0
C      1  0.4944760000000  0.4127570000000  0.4194560000000 1.0
C      1  0.4217970000000  0.4183810000000  0.4985060000000 1.0
C      1  0.5021910000000  0.5732900000000  0.5783380000000 1.0
C      1  0.5831810000000  0.5808730000000  0.4966820000000 1.0
C      1  0.5710250000000  0.5050360000000  0.5811900000000 1.0
C      1  0.4145590000000  0.5007980000000  0.4217460000000 1.0
C      1  0.4874300000000  0.5146760000000  0.5062200000000 1.0
C      1  0.5204220000000  0.5155060000000  0.4699580000000 1.0
C      1  0.5216930000000  0.4801200000000  0.5049140000000 1.0
C      1  0.4853770000000  0.4842480000000  0.4710540000000 1.0
C      1  0.5044890000000  0.4982990000000  0.4884230000000 1.0
END
