TITL C-3578196-9646-62 -6.67877277668994e-08 125000 -765.782921762988 0 0 122 (C1) n - 1
REM
REM in /home/bkarasulu/work/CARBON/AIRSS/Generating-Clusters/EDIP-Nigel-Params/with-SteepDescent/Higher-Symm/SD-CG/HFTN-CG
REM
REM
REM
REM
REM
REM ./C.cell (12c818d87b63d06a65506943cc24bca4)
REM
REM compiler GCC version 9.2.1 20190827 (Red Hat 9.2.1-1)
REM options -cpp -mtune=generic -march=x86-64 -g -O0 -fpre-include=/usr/include/finclude/math-vector-fortran.h
REM seed 376930258 730026371 -1198738013 535529505 -1879554931 -1341350646 -43454661 957247740 536180373 653377829 -1951798432 1202540339 -1562070902 1947651878 970945384 -1544276954 -585760832 -1333958749 381169507 1670594935 -2142499330 -2111649881 -1780442708 -1230715459 125742950 519544696 -311895053 -1884294029 486358695 1857610630 -692025579 -87896988 401932378
REM
CELL 1.54180   50.00000   50.00000   50.00000   90.00000   90.00000   90.00000
LATT -1
SFAC C  
C      1  0.5251550000000  0.4567100000000  0.4952180000000 1.0
C      1  0.4486790000000  0.5026140000000  0.4925880000000 1.0
C      1  0.5245480000000  0.5428930000000  0.4901640000000 1.0
C      1  0.5542670000000  0.5605780000000  0.5580120000000 1.0
C      1  0.5221060000000  0.4196580000000  0.5608070000000 1.0
C      1  0.4163100000000  0.5235220000000  0.5641870000000 1.0
C      1  0.4963490000000  0.4285310000000  0.5525380000000 1.0
C      1  0.4370640000000  0.5395100000000  0.5537280000000 1.0
C      1  0.5608610000000  0.5350290000000  0.5484050000000 1.0
C      1  0.4732040000000  0.5109330000000  0.5756530000000 1.0
C      1  0.5196160000000  0.5195350000000  0.5741220000000 1.0
C      1  0.5054850000000  0.4742640000000  0.5729240000000 1.0
C      1  0.4521800000000  0.5064440000000  0.4301990000000 1.0
C      1  0.5378960000000  0.5375200000000  0.4316900000000 1.0
C      1  0.5182230000000  0.4459830000000  0.4258610000000 1.0
C      1  0.5438770000000  0.5216560000000  0.5016300000000 1.0
C      1  0.4981950000000  0.4530790000000  0.5095730000000 1.0
C      1  0.4573020000000  0.5249540000000  0.5111220000000 1.0
C      1  0.5234580000000  0.5639030000000  0.4382170000000 1.0
C      1  0.5474800000000  0.4416870000000  0.4340200000000 1.0
C      1  0.4320260000000  0.4838040000000  0.4321820000000 1.0
C      1  0.4820680000000  0.4779460000000  0.5120100000000 1.0
C      1  0.4861550000000  0.5281370000000  0.5114270000000 1.0
C      1  0.5283870000000  0.5007550000000  0.5156600000000 1.0
C      1  0.5387590000000  0.4414340000000  0.5550640000000 1.0
C      1  0.4265160000000  0.4974440000000  0.5641450000000 1.0
C      1  0.5305160000000  0.5692600000000  0.5706910000000 1.0
C      1  0.5781810000000  0.5547610000000  0.5046600000000 1.0
C      1  0.5058020000000  0.4094010000000  0.5051210000000 1.0
C      1  0.4165780000000  0.5416460000000  0.5051410000000 1.0
C      1  0.5195220000000  0.5912620000000  0.5283840000000 1.0
C      1  0.5736330000000  0.4381350000000  0.5188360000000 1.0
C      1  0.4076640000000  0.4708450000000  0.5266460000000 1.0
C      1  0.4509460000000  0.4266300000000  0.4903620000000 1.0
C      1  0.4452360000000  0.5833080000000  0.4934280000000 1.0
C      1  0.5920310000000  0.4995550000000  0.4857580000000 1.0
C      1  0.5690970000000  0.5301010000000  0.5193670000000 1.0
C      1  0.4891340000000  0.4272140000000  0.5228190000000 1.0
C      1  0.4396920000000  0.5470580000000  0.5243300000000 1.0
C      1  0.5907830000000  0.5083860000000  0.5147170000000 1.0
C      1  0.4587890000000  0.4199440000000  0.5185640000000 1.0
C      1  0.4469760000000  0.5778900000000  0.5208190000000 1.0
C      1  0.4470820000000  0.4575170000000  0.4316920000000 1.0
C      1  0.4940020000000  0.5648050000000  0.4416950000000 1.0
C      1  0.5635000000000  0.4652280000000  0.4417990000000 1.0
C      1  0.5576590000000  0.4866060000000  0.4231820000000 1.0
C      1  0.4625640000000  0.4565060000000  0.4078080000000 1.0
C      1  0.4825280000000  0.5517540000000  0.4198040000000 1.0
C      1  0.4944480000000  0.5800180000000  0.5167930000000 1.0
C      1  0.5711800000000  0.4667940000000  0.5077510000000 1.0
C      1  0.4328650000000  0.4563310000000  0.5183770000000 1.0
C      1  0.5658240000000  0.5471380000000  0.4292110000000 1.0
C      1  0.5066210000000  0.4186340000000  0.4270830000000 1.0
C      1  0.4374740000000  0.5316040000000  0.4325850000000 1.0
C      1  0.4983870000000  0.5817540000000  0.4866270000000 1.0
C      1  0.5708120000000  0.4690190000000  0.4732500000000 1.0
C      1  0.4329430000000  0.4511120000000  0.4886010000000 1.0
C      1  0.5779320000000  0.5472670000000  0.4760150000000 1.0
C      1  0.4992710000000  0.4174280000000  0.4768640000000 1.0
C      1  0.4317880000000  0.5409720000000  0.4786970000000 1.0
C      1  0.5327020000000  0.4668490000000  0.5657500000000 1.0
C      1  0.4528070000000  0.4900180000000  0.5729290000000 1.0
C      1  0.5107830000000  0.5480760000000  0.5723090000000 1.0
C      1  0.5471330000000  0.5135160000000  0.5626050000000 1.0
C      1  0.4856530000000  0.4527230000000  0.5663020000000 1.0
C      1  0.4634770000000  0.5377200000000  0.5664700000000 1.0
C      1  0.5313830000000  0.4919700000000  0.4092430000000 1.0
C      1  0.4832860000000  0.4767810000000  0.4099450000000 1.0
C      1  0.4935660000000  0.5249630000000  0.4218410000000 1.0
C      1  0.5131900000000  0.5096840000000  0.6025270000000 1.0
C      1  0.5059460000000  0.4811480000000  0.6017640000000 1.0
C      1  0.4836350000000  0.5122540000000  0.6037250000000 1.0
C      1  0.5903420000000  0.4811790000000  0.5261390000000 1.0
C      1  0.4338490000000  0.4300410000000  0.5358120000000 1.0
C      1  0.4709660000000  0.5927280000000  0.5320380000000 1.0
C      1  0.4707350000000  0.4863240000000  0.4844950000000 1.0
C      1  0.4963100000000  0.5358490000000  0.4815810000000 1.0
C      1  0.5184940000000  0.4711130000000  0.4700680000000 1.0
C      1  0.4036470000000  0.4923990000000  0.5059460000000 1.0
C      1  0.5414820000000  0.5847170000000  0.5093320000000 1.0
C      1  0.5563650000000  0.4195020000000  0.5031440000000 1.0
C      1  0.4863350000000  0.5549670000000  0.5568930000000 1.0
C      1  0.5493330000000  0.4858310000000  0.5515120000000 1.0
C      1  0.4590890000000  0.4648130000000  0.5581090000000 1.0
C      1  0.5494440000000  0.4384410000000  0.4813720000000 1.0
C      1  0.4242430000000  0.4858900000000  0.4848000000000 1.0
C      1  0.5278670000000  0.5724220000000  0.4857720000000 1.0
C      1  0.5142860000000  0.5916440000000  0.5583500000000 1.0
C      1  0.5676090000000  0.4431810000000  0.5481230000000 1.0
C      1  0.4127880000000  0.4720640000000  0.5569770000000 1.0
C      1  0.5558800000000  0.5089920000000  0.4767280000000 1.0
C      1  0.4630690000000  0.4526180000000  0.4569530000000 1.0
C      1  0.4831720000000  0.5620770000000  0.4703460000000 1.0
C      1  0.4211850000000  0.5260270000000  0.4551870000000 1.0
C      1  0.5671230000000  0.5629440000000  0.4536140000000 1.0
C      1  0.5165100000000  0.4114860000000  0.4537420000000 1.0
C      1  0.5440080000000  0.4227290000000  0.4562860000000 1.0
C      1  0.4165330000000  0.4956910000000  0.4568380000000 1.0
C      1  0.5407350000000  0.5767820000000  0.4586080000000 1.0
C      1  0.4340240000000  0.4474670000000  0.5620120000000 1.0
C      1  0.4826890000000  0.5853710000000  0.5599400000000 1.0
C      1  0.5766780000000  0.4735330000000  0.5519640000000 1.0
C      1  0.5907250000000  0.5227290000000  0.4680600000000 1.0
C      1  0.4716560000000  0.4257750000000  0.4690070000000 1.0
C      1  0.4513940000000  0.5640510000000  0.4741160000000 1.0
C      1  0.4928580000000  0.5517740000000  0.5277560000000 1.0
C      1  0.5412590000000  0.4742320000000  0.5149550000000 1.0
C      1  0.4578430000000  0.4713690000000  0.5287610000000 1.0
C      1  0.4957460000000  0.5179990000000  0.4550410000000 1.0
C      1  0.5281760000000  0.4905480000000  0.4480240000000 1.0
C      1  0.4870700000000  0.4773620000000  0.4396260000000 1.0
C      1  0.5685680000000  0.5797620000000  0.5129750000000 1.0
C      1  0.5329220000000  0.4070300000000  0.5126040000000 1.0
C      1  0.4004720000000  0.5195950000000  0.5116240000000 1.0
C      1  0.4738930000000  0.4985200000000  0.4562290000000 1.0
C      1  0.5357610000000  0.5176780000000  0.4559770000000 1.0
C      1  0.5017960000000  0.4537560000000  0.4525000000000 1.0
C      1  0.5123200000000  0.4683760000000  0.4043180000000 1.0
C      1  0.4737050000000  0.5057390000000  0.4080560000000 1.0
C      1  0.5219960000000  0.5215270000000  0.4104960000000 1.0
C      1  0.4991740000000  0.5022700000000  0.5243070000000 1.0
C      1  0.4984060000000  0.5017860000000  0.5591070000000 1.0
END
