TITL C-3578198-8939-737 -3.85860848554504e-07 125000 -231.803758046145 0 0 39 (C1) n - 1
REM
REM in /home/bkarasulu/work/CARBON/AIRSS/Generating-Clusters/EDIP-Nigel-Params/with-SteepDescent/Higher-Symm/SD-CG/HFTN-CG
REM
REM
REM
REM
REM
REM ./C.cell (12c818d87b63d06a65506943cc24bca4)
REM
REM compiler GCC version 9.2.1 20190827 (Red Hat 9.2.1-1)
REM options -cpp -mtune=generic -march=x86-64 -g -O0 -fpre-include=/usr/include/finclude/math-vector-fortran.h
REM seed 968833350 -1789698216 1666549054 -1905177282 217623691 1287887201 -993063671 -339432094 -938935269 1593017295 -386855506 -1144231208 2024151345 74239522 -114621750 -485327841 804083691 -313208507 -337082102 -169083231 147599426 -261857925 -1501149915 -320526084 -922955478 -61653773 -1850649121 1507111447 -1668608527 1346415219 929494905 -273323627 603152841
REM
CELL 1.54180   50.00000   50.00000   50.00000   90.00000   90.00000   90.00000
LATT -1
SFAC C  
C      1  0.4891430000000  0.5444470000000  0.5563990000000 1.0
C      1  0.5061230000000  0.5613390000000  0.5090500000000 1.0
C      1  0.5114530000000  0.5229190000000  0.4436970000000 1.0
C      1  0.4960580000000  0.4712290000000  0.4340140000000 1.0
C      1  0.5050260000000  0.4405330000000  0.4791230000000 1.0
C      1  0.5053690000000  0.4569090000000  0.5348540000000 1.0
C      1  0.4919700000000  0.4941390000000  0.5689060000000 1.0
C      1  0.5219220000000  0.4794600000000  0.5342780000000 1.0
C      1  0.5133460000000  0.5014430000000  0.5521820000000 1.0
C      1  0.5113700000000  0.5305050000000  0.5457470000000 1.0
C      1  0.5227930000000  0.5425980000000  0.5216170000000 1.0
C      1  0.5307680000000  0.5022240000000  0.4460590000000 1.0
C      1  0.5207860000000  0.4744060000000  0.4469230000000 1.0
C      1  0.5232900000000  0.4608080000000  0.4730320000000 1.0
C      1  0.4684610000000  0.5049960000000  0.4493030000000 1.0
C      1  0.4643370000000  0.4596270000000  0.4652680000000 1.0
C      1  0.4693770000000  0.4412620000000  0.5089190000000 1.0
C      1  0.4613110000000  0.4672560000000  0.5476540000000 1.0
C      1  0.4538900000000  0.5144360000000  0.5510490000000 1.0
C      1  0.4625280000000  0.5482520000000  0.5177760000000 1.0
C      1  0.4800240000000  0.5450430000000  0.4728410000000 1.0
C      1  0.4848170000000  0.5277110000000  0.4512730000000 1.0
C      1  0.4711820000000  0.4774720000000  0.4448810000000 1.0
C      1  0.4774240000000  0.4418900000000  0.4824730000000 1.0
C      1  0.4782830000000  0.4504690000000  0.5334310000000 1.0
C      1  0.4651930000000  0.4910620000000  0.5614010000000 1.0
C      1  0.4640760000000  0.5396190000000  0.5444290000000 1.0
C      1  0.4806850000000  0.5569170000000  0.4982510000000 1.0
C      1  0.5721670000000  0.5221420000000  0.5017280000000 1.0
C      1  0.5595200000000  0.5285830000000  0.4773540000000 1.0
C      1  0.5561510000000  0.5056610000000  0.4605130000000 1.0
C      1  0.5651270000000  0.4816200000000  0.4723990000000 1.0
C      1  0.5470260000000  0.4677790000000  0.4892470000000 1.0
C      1  0.5445960000000  0.4817550000000  0.5155750000000 1.0
C      1  0.5635480000000  0.5025470000000  0.5195240000000 1.0
C      1  0.4574650000000  0.4985480000000  0.4992600000000 1.0
C      1  0.4831520000000  0.5001060000000  0.4984010000000 1.0
C      1  0.5084800000000  0.5078710000000  0.4928870000000 1.0
C      1  0.5317950000000  0.5220150000000  0.5028910000000 1.0
END
