TITL C-3578208-4450-457 6.19270348812298e-07 125000 -868.996402867583 0 0 136 (C1) n - 1
REM
REM in /home/bkarasulu/work/CARBON/AIRSS/Generating-Clusters/EDIP-Nigel-Params/with-SteepDescent/Higher-Symm/SD-CG/HFTN-CG
REM
REM
REM
REM
REM
REM ./C.cell (12c818d87b63d06a65506943cc24bca4)
REM
REM compiler GCC version 9.2.1 20190827 (Red Hat 9.2.1-1)
REM options -cpp -mtune=generic -march=x86-64 -g -O0 -fpre-include=/usr/include/finclude/math-vector-fortran.h
REM seed -1301566804 2051759642 1804036113 -143438092 -1896416015 -988439686 -1218395558 -1083336923 1810540810 -1582049950 147709232 -1745900455 -1368299648 20373081 -54513410 -2092663056 -1811278624 2125291552 -1748206378 -1486870908 -471714364 662766337 -323594742 619990077 1975021849 1750029483 -1653253892 619710242 353600666 -167572014 -1239855301 -1479750726 -1569026832
REM
CELL 1.54180   50.00000   50.00000   50.00000   90.00000   90.00000   90.00000
LATT -1
SFAC C  
C      1  0.5665530000000  0.5849160000000  0.4568160000000 1.0
C      1  0.4511380000000  0.5703580000000  0.5891700000000 1.0
C      1  0.5882170000000  0.4367240000000  0.5747240000000 1.0
C      1  0.4323030000000  0.5924670000000  0.5491450000000 1.0
C      1  0.5634210000000  0.4093980000000  0.5454200000000 1.0
C      1  0.4230860000000  0.4069610000000  0.4417760000000 1.0
C      1  0.5572900000000  0.5732040000000  0.4116320000000 1.0
C      1  0.4486130000000  0.4288420000000  0.4082550000000 1.0
C      1  0.5422560000000  0.4295520000000  0.5845880000000 1.0
C      1  0.4087530000000  0.4505000000000  0.4305720000000 1.0
C      1  0.5880620000000  0.5458920000000  0.4362780000000 1.0
C      1  0.4061800000000  0.5630340000000  0.5737850000000 1.0
C      1  0.4499450000000  0.5938360000000  0.5717240000000 1.0
C      1  0.5895080000000  0.5713000000000  0.4481070000000 1.0
C      1  0.5661030000000  0.4483990000000  0.5881700000000 1.0
C      1  0.5461390000000  0.5865630000000  0.4338980000000 1.0
C      1  0.5506900000000  0.4069160000000  0.5703190000000 1.0
C      1  0.4490380000000  0.4073990000000  0.4302170000000 1.0
C      1  0.4118280000000  0.5715530000000  0.5475480000000 1.0
C      1  0.4090280000000  0.4292430000000  0.4524260000000 1.0
C      1  0.5880160000000  0.4273270000000  0.5479480000000 1.0
C      1  0.4224100000000  0.4397310000000  0.4081380000000 1.0
C      1  0.4246000000000  0.5619300000000  0.5937140000000 1.0
C      1  0.5677720000000  0.5469970000000  0.4130840000000 1.0
C      1  0.5648650000000  0.4542800000000  0.4741690000000 1.0
C      1  0.4734550000000  0.5637820000000  0.4555700000000 1.0
C      1  0.4564470000000  0.4761650000000  0.5615150000000 1.0
C      1  0.4345230000000  0.4543810000000  0.5218480000000 1.0
C      1  0.5666150000000  0.5465010000000  0.5273300000000 1.0
C      1  0.4316850000000  0.5431400000000  0.4767810000000 1.0
C      1  0.5221800000000  0.5649510000000  0.5466550000000 1.0
C      1  0.4747880000000  0.4330730000000  0.5437730000000 1.0
C      1  0.5211930000000  0.4335350000000  0.4532720000000 1.0
C      1  0.5422040000000  0.4751680000000  0.4334010000000 1.0
C      1  0.4533010000000  0.5217410000000  0.4363690000000 1.0
C      1  0.5435930000000  0.5226750000000  0.5664990000000 1.0
C      1  0.4757020000000  0.4547280000000  0.5635080000000 1.0
C      1  0.4516150000000  0.5645800000000  0.4749750000000 1.0
C      1  0.5625680000000  0.4755160000000  0.4543380000000 1.0
C      1  0.5205270000000  0.4544720000000  0.4331180000000 1.0
C      1  0.5207790000000  0.5429700000000  0.5659940000000 1.0
C      1  0.4733490000000  0.5426240000000  0.4358560000000 1.0
C      1  0.5431910000000  0.5650260000000  0.5256550000000 1.0
C      1  0.5408240000000  0.4368030000000  0.4767920000000 1.0
C      1  0.4546820000000  0.4334780000000  0.5224650000000 1.0
C      1  0.4351770000000  0.4753170000000  0.5419560000000 1.0
C      1  0.4324770000000  0.5212960000000  0.4566030000000 1.0
C      1  0.5650660000000  0.5239830000000  0.5461060000000 1.0
C      1  0.4524850000000  0.5259510000000  0.5657670000000 1.0
C      1  0.5743000000000  0.4489380000000  0.5279820000000 1.0
C      1  0.5257930000000  0.5683490000000  0.4502270000000 1.0
C      1  0.5485790000000  0.5271180000000  0.4284160000000 1.0
C      1  0.4529730000000  0.4716270000000  0.4328350000000 1.0
C      1  0.5522300000000  0.4706040000000  0.5705250000000 1.0
C      1  0.4278670000000  0.4467440000000  0.4706140000000 1.0
C      1  0.5586150000000  0.5387600000000  0.4788810000000 1.0
C      1  0.4246400000000  0.5503910000000  0.5295260000000 1.0
C      1  0.4706040000000  0.5702730000000  0.5492630000000 1.0
C      1  0.5235560000000  0.4410590000000  0.5376620000000 1.0
C      1  0.4687680000000  0.4247260000000  0.4476560000000 1.0
C      1  0.5700560000000  0.5258850000000  0.4520980000000 1.0
C      1  0.5270220000000  0.4499130000000  0.5669900000000 1.0
C      1  0.4502470000000  0.5673060000000  0.5258960000000 1.0
C      1  0.4316120000000  0.5256280000000  0.5454470000000 1.0
C      1  0.4272120000000  0.4695210000000  0.4470680000000 1.0
C      1  0.5685180000000  0.4731410000000  0.5454500000000 1.0
C      1  0.4682830000000  0.4471180000000  0.4248630000000 1.0
C      1  0.4683090000000  0.5506850000000  0.5733890000000 1.0
C      1  0.5236600000000  0.5415890000000  0.4372720000000 1.0
C      1  0.5476210000000  0.5674530000000  0.4739980000000 1.0
C      1  0.5492950000000  0.4286810000000  0.5261620000000 1.0
C      1  0.4539700000000  0.4325640000000  0.4724200000000 1.0
C      1  0.5795440000000  0.5417870000000  0.5009720000000 1.0
C      1  0.4977180000000  0.5792150000000  0.5400970000000 1.0
C      1  0.5435610000000  0.4977190000000  0.5827170000000 1.0
C      1  0.4137380000000  0.5435370000000  0.5007680000000 1.0
C      1  0.5816880000000  0.4579110000000  0.4988370000000 1.0
C      1  0.4193290000000  0.4586490000000  0.4972870000000 1.0
C      1  0.4985740000000  0.5788030000000  0.4595590000000 1.0
C      1  0.4976760000000  0.4152460000000  0.4535490000000 1.0
C      1  0.5008780000000  0.4215440000000  0.5366070000000 1.0
C      1  0.4623230000000  0.4970150000000  0.4240480000000 1.0
C      1  0.5428050000000  0.4993830000000  0.4163690000000 1.0
C      1  0.4631190000000  0.5007860000000  0.5747450000000 1.0
C      1  0.4967640000000  0.5437640000000  0.5841410000000 1.0
C      1  0.5387860000000  0.5798520000000  0.4999470000000 1.0
C      1  0.5784000000000  0.4992500000000  0.5373630000000 1.0
C      1  0.4988850000000  0.5350980000000  0.4238510000000 1.0
C      1  0.5008810000000  0.4605170000000  0.5772110000000 1.0
C      1  0.4969630000000  0.4534100000000  0.4147840000000 1.0
C      1  0.4568740000000  0.5796840000000  0.4993590000000 1.0
C      1  0.4634660000000  0.4221910000000  0.4973700000000 1.0
C      1  0.5442360000000  0.4169780000000  0.4990250000000 1.0
C      1  0.4161400000000  0.4966980000000  0.4562480000000 1.0
C      1  0.4229920000000  0.5003020000000  0.5345430000000 1.0
C      1  0.5811250000000  0.4979370000000  0.4555430000000 1.0
C      1  0.3936580000000  0.4954400000000  0.4740050000000 1.0
C      1  0.4814370000000  0.3990950000000  0.4969750000000 1.0
C      1  0.4962610000000  0.4735900000000  0.3944160000000 1.0
C      1  0.6006590000000  0.5002440000000  0.5179820000000 1.0
C      1  0.3992640000000  0.4997140000000  0.5177560000000 1.0
C      1  0.6031370000000  0.4959710000000  0.4738190000000 1.0
C      1  0.5255850000000  0.3952610000000  0.5003200000000 1.0
C      1  0.4760360000000  0.6025990000000  0.4991550000000 1.0
C      1  0.5203180000000  0.6027830000000  0.4995910000000 1.0
C      1  0.5008000000000  0.4793590000000  0.5995760000000 1.0
C      1  0.4968550000000  0.5233670000000  0.6043340000000 1.0
C      1  0.4998940000000  0.5174080000000  0.4002840000000 1.0
C      1  0.4793790000000  0.4969670000000  0.4002140000000 1.0
C      1  0.4983960000000  0.3946970000000  0.4735970000000 1.0
C      1  0.3974350000000  0.4783640000000  0.4976330000000 1.0
C      1  0.5241440000000  0.4965420000000  0.6039180000000 1.0
C      1  0.5233670000000  0.5004770000000  0.3953150000000 1.0
C      1  0.4802620000000  0.5001880000000  0.5984520000000 1.0
C      1  0.5019460000000  0.3983050000000  0.5178220000000 1.0
C      1  0.4982970000000  0.6023890000000  0.4772840000000 1.0
C      1  0.4982520000000  0.6023750000000  0.5215860000000 1.0
C      1  0.6026580000000  0.4788220000000  0.4975440000000 1.0
C      1  0.6019910000000  0.5234920000000  0.5008750000000 1.0
C      1  0.3937750000000  0.5226850000000  0.5007370000000 1.0
C      1  0.4949620000000  0.5426380000000  0.5018740000000 1.0
C      1  0.5130570000000  0.5146510000000  0.5362360000000 1.0
C      1  0.4792120000000  0.5352160000000  0.5251420000000 1.0
C      1  0.5154990000000  0.4668750000000  0.5199000000000 1.0
C      1  0.4872900000000  0.4766040000000  0.5172140000000 1.0
C      1  0.5139070000000  0.5132540000000  0.4701660000000 1.0
C      1  0.5313840000000  0.4910910000000  0.5296830000000 1.0
C      1  0.5352180000000  0.5207810000000  0.4905640000000 1.0
C      1  0.4637650000000  0.5125450000000  0.5095770000000 1.0
C      1  0.4814060000000  0.4851860000000  0.4891450000000 1.0
C      1  0.5448200000000  0.4952010000000  0.5023780000000 1.0
C      1  0.5072430000000  0.4844590000000  0.4738300000000 1.0
C      1  0.5283970000000  0.4710450000000  0.4909450000000 1.0
C      1  0.4872940000000  0.5230340000000  0.4809390000000 1.0
C      1  0.4831580000000  0.5003760000000  0.5358810000000 1.0
C      1  0.5206000000000  0.5354170000000  0.5135690000000 1.0
END
