TITL C-3577078-809-27 -1.97154085313891e-06 125000 -1103.66307335135 0 0 177 (C1) n - 1
REM
REM in /home/bkarasulu/work/CARBON/AIRSS/Generating-Clusters/EDIP-Nigel-Params/with-SteepDescent/Higher-Symm/SD-CG/HFTN-CG
REM
REM
REM
REM
REM
REM ./C.cell (12c818d87b63d06a65506943cc24bca4)
REM
REM compiler GCC version 9.2.1 20190827 (Red Hat 9.2.1-1)
REM options -cpp -mtune=generic -march=x86-64 -g -O0 -fpre-include=/usr/include/finclude/math-vector-fortran.h
REM seed -882937131 -1543132390 2102642691 1562702056 1583084550 -1802496678 -1482910078 910201041 1616145043 1528183577 -724830220 -242676312 1410350505 -1889087116 481529472 570157951 -1505613244 -1363001481 -1975435974 2083211551 -181783985 -1277563447 1110826762 1534960534 1653580145 -1024313766 1747911025 -1606120755 -1946128551 -301676742 -1540377004 -1629537104 -544863244
REM
CELL 1.54180   50.00000   50.00000   50.00000   90.00000   90.00000   90.00000
LATT -1
SFAC C  
C      1  0.4531300000000  0.5915990000000  0.5609560000000 1.0
C      1  0.5561340000000  0.5838360000000  0.4503000000000 1.0
C      1  0.5092980000000  0.4650660000000  0.6017730000000 1.0
C      1  0.4879420000000  0.4617580000000  0.3949070000000 1.0
C      1  0.5223660000000  0.5187710000000  0.5564990000000 1.0
C      1  0.4755120000000  0.5122230000000  0.4396540000000 1.0
C      1  0.4835120000000  0.4800560000000  0.5016630000000 1.0
C      1  0.5128570000000  0.4809120000000  0.4967730000000 1.0
C      1  0.5559400000000  0.4656940000000  0.4932980000000 1.0
C      1  0.4412100000000  0.4698850000000  0.5126970000000 1.0
C      1  0.4501810000000  0.4927700000000  0.5322880000000 1.0
C      1  0.5563360000000  0.4806070000000  0.4658420000000 1.0
C      1  0.5888650000000  0.5463340000000  0.4509790000000 1.0
C      1  0.4097780000000  0.5472110000000  0.5507030000000 1.0
C      1  0.5643520000000  0.4230410000000  0.4916760000000 1.0
C      1  0.4381970000000  0.4209230000000  0.5059750000000 1.0
C      1  0.5200360000000  0.5870680000000  0.4751840000000 1.0
C      1  0.4817680000000  0.5810390000000  0.5271850000000 1.0
C      1  0.4695610000000  0.5594650000000  0.4057650000000 1.0
C      1  0.5372500000000  0.5601000000000  0.5996810000000 1.0
C      1  0.5476300000000  0.5859640000000  0.5535410000000 1.0
C      1  0.4536340000000  0.5879840000000  0.4472960000000 1.0
C      1  0.5261580000000  0.5241330000000  0.5114140000000 1.0
C      1  0.4740990000000  0.5241040000000  0.4823490000000 1.0
C      1  0.5365530000000  0.5561570000000  0.4147400000000 1.0
C      1  0.4579010000000  0.5512580000000  0.5793350000000 1.0
C      1  0.5385110000000  0.4764240000000  0.4039170000000 1.0
C      1  0.4584990000000  0.4753570000000  0.6035870000000 1.0
C      1  0.5086010000000  0.5607120000000  0.5992250000000 1.0
C      1  0.4978590000000  0.5521920000000  0.4158320000000 1.0
C      1  0.4685330000000  0.4536070000000  0.5077580000000 1.0
C      1  0.5273490000000  0.4543420000000  0.4943790000000 1.0
C      1  0.5501970000000  0.5599660000000  0.5003860000000 1.0
C      1  0.4490210000000  0.5592080000000  0.4993510000000 1.0
C      1  0.4777000000000  0.4298420000000  0.5861250000000 1.0
C      1  0.5211370000000  0.4312640000000  0.4171200000000 1.0
C      1  0.4223090000000  0.4450740000000  0.4646650000000 1.0
C      1  0.5785020000000  0.4486540000000  0.5345120000000 1.0
C      1  0.5170060000000  0.4814100000000  0.5468180000000 1.0
C      1  0.4750620000000  0.4753680000000  0.4516180000000 1.0
C      1  0.5698960000000  0.5108770000000  0.5039470000000 1.0
C      1  0.4299170000000  0.5146320000000  0.4933090000000 1.0
C      1  0.5216550000000  0.4896910000000  0.5893720000000 1.0
C      1  0.4686240000000  0.4847710000000  0.3993380000000 1.0
C      1  0.4018770000000  0.4759600000000  0.5314070000000 1.0
C      1  0.5999460000000  0.4781330000000  0.4687530000000 1.0
C      1  0.3958790000000  0.4855990000000  0.4802970000000 1.0
C      1  0.5993100000000  0.4893810000000  0.5179840000000 1.0
C      1  0.5492320000000  0.4803920000000  0.5760050000000 1.0
C      1  0.4463860000000  0.4751690000000  0.4191430000000 1.0
C      1  0.5618930000000  0.4215100000000  0.4613820000000 1.0
C      1  0.4419950000000  0.4185370000000  0.5359490000000 1.0
C      1  0.4889240000000  0.4098790000000  0.5205660000000 1.0
C      1  0.5110930000000  0.4111790000000  0.4836380000000 1.0
C      1  0.5159950000000  0.3679140000000  0.5054740000000 1.0
C      1  0.4908990000000  0.3681670000000  0.4946340000000 1.0
C      1  0.5867490000000  0.5328060000000  0.5378430000000 1.0
C      1  0.4061740000000  0.5260500000000  0.4550890000000 1.0
C      1  0.4774860000000  0.5263010000000  0.5128810000000 1.0
C      1  0.5229850000000  0.5264460000000  0.4805920000000 1.0
C      1  0.4896750000000  0.4516680000000  0.4639380000000 1.0
C      1  0.5059210000000  0.4541530000000  0.5379720000000 1.0
C      1  0.5951020000000  0.5706540000000  0.4970750000000 1.0
C      1  0.4021330000000  0.5699060000000  0.5005400000000 1.0
C      1  0.4349000000000  0.4618660000000  0.5966700000000 1.0
C      1  0.5586030000000  0.4589440000000  0.4141850000000 1.0
C      1  0.4889040000000  0.3969820000000  0.5463960000000 1.0
C      1  0.5134650000000  0.4035400000000  0.4556610000000 1.0
C      1  0.4591680000000  0.4108430000000  0.4583130000000 1.0
C      1  0.5380540000000  0.4176460000000  0.5354210000000 1.0
C      1  0.5186410000000  0.4351720000000  0.5188650000000 1.0
C      1  0.4785270000000  0.4327280000000  0.4843760000000 1.0
C      1  0.4820110000000  0.6200090000000  0.5282850000000 1.0
C      1  0.5297980000000  0.6157940000000  0.4802570000000 1.0
C      1  0.4783880000000  0.4443220000000  0.5340950000000 1.0
C      1  0.5183220000000  0.4458650000000  0.4672210000000 1.0
C      1  0.4801220000000  0.5984410000000  0.4564000000000 1.0
C      1  0.5197780000000  0.5911370000000  0.5477940000000 1.0
C      1  0.5562420000000  0.4368900000000  0.5494640000000 1.0
C      1  0.4420490000000  0.4324100000000  0.4474390000000 1.0
C      1  0.3868970000000  0.5344170000000  0.5004430000000 1.0
C      1  0.6144010000000  0.5369030000000  0.4984210000000 1.0
C      1  0.5834240000000  0.4350280000000  0.4503100000000 1.0
C      1  0.4253920000000  0.4361070000000  0.5511350000000 1.0
C      1  0.5060190000000  0.5825900000000  0.4484400000000 1.0
C      1  0.4970750000000  0.5708760000000  0.5528950000000 1.0
C      1  0.4065870000000  0.5189400000000  0.5593460000000 1.0
C      1  0.5951340000000  0.5192750000000  0.4402740000000 1.0
C      1  0.6057970000000  0.5054790000000  0.4633080000000 1.0
C      1  0.3976090000000  0.5041780000000  0.5357790000000 1.0
C      1  0.4981580000000  0.5343490000000  0.6018770000000 1.0
C      1  0.5022480000000  0.5240800000000  0.4065470000000 1.0
C      1  0.5484250000000  0.5302690000000  0.5701650000000 1.0
C      1  0.4513400000000  0.5278110000000  0.4288010000000 1.0
C      1  0.4212040000000  0.4760110000000  0.5765280000000 1.0
C      1  0.5805480000000  0.4742810000000  0.4239360000000 1.0
C      1  0.4520280000000  0.4014720000000  0.4877390000000 1.0
C      1  0.5503130000000  0.4044400000000  0.5102880000000 1.0
C      1  0.4780720000000  0.5698810000000  0.4972820000000 1.0
C      1  0.5219400000000  0.5693960000000  0.5013430000000 1.0
C      1  0.4621420000000  0.4833640000000  0.5605120000000 1.0
C      1  0.5241160000000  0.4902270000000  0.4460300000000 1.0
C      1  0.5147360000000  0.4595800000000  0.4080440000000 1.0
C      1  0.4813770000000  0.4584190000000  0.5965260000000 1.0
C      1  0.5144920000000  0.4047000000000  0.5583940000000 1.0
C      1  0.4869600000000  0.4052200000000  0.4422800000000 1.0
C      1  0.5491430000000  0.5325410000000  0.4658130000000 1.0
C      1  0.4474770000000  0.5442370000000  0.5277360000000 1.0
C      1  0.4783800000000  0.5131440000000  0.3912160000000 1.0
C      1  0.5204720000000  0.5149260000000  0.6062750000000 1.0
C      1  0.4192000000000  0.4637040000000  0.5506740000000 1.0
C      1  0.5911630000000  0.4614880000000  0.4472210000000 1.0
C      1  0.4974130000000  0.5545440000000  0.4468050000000 1.0
C      1  0.5049950000000  0.5418980000000  0.5480440000000 1.0
C      1  0.4034740000000  0.4656850000000  0.5028640000000 1.0
C      1  0.6004360000000  0.4680920000000  0.4958650000000 1.0
C      1  0.5746160000000  0.5030590000000  0.4241910000000 1.0
C      1  0.4270190000000  0.5044490000000  0.5762150000000 1.0
C      1  0.4640140000000  0.4099040000000  0.5563500000000 1.0
C      1  0.5368780000000  0.4168820000000  0.4417900000000 1.0
C      1  0.5543170000000  0.5356530000000  0.5167210000000 1.0
C      1  0.4474780000000  0.5359020000000  0.4812770000000 1.0
C      1  0.4602720000000  0.6015850000000  0.5346150000000 1.0
C      1  0.5566850000000  0.6005220000000  0.4766580000000 1.0
C      1  0.4771490000000  0.4991570000000  0.5230450000000 1.0
C      1  0.5171220000000  0.4988310000000  0.4735330000000 1.0
C      1  0.5469800000000  0.5039010000000  0.4121570000000 1.0
C      1  0.4533250000000  0.5039410000000  0.5927840000000 1.0
C      1  0.5063280000000  0.4207390000000  0.5821210000000 1.0
C      1  0.4937750000000  0.4191160000000  0.4171270000000 1.0
C      1  0.4790830000000  0.5983610000000  0.4862930000000 1.0
C      1  0.5220500000000  0.5956020000000  0.5185480000000 1.0
C      1  0.4761390000000  0.3913480000000  0.5010990000000 1.0
C      1  0.5292420000000  0.3907180000000  0.4952940000000 1.0
C      1  0.5450330000000  0.5306940000000  0.6014030000000 1.0
C      1  0.4569780000000  0.5327730000000  0.3980280000000 1.0
C      1  0.5848940000000  0.4426010000000  0.5054530000000 1.0
C      1  0.4178960000000  0.4385450000000  0.4929590000000 1.0
C      1  0.5644510000000  0.5911620000000  0.5308310000000 1.0
C      1  0.4330090000000  0.5897310000000  0.4664870000000 1.0
C      1  0.4019630000000  0.5492970000000  0.5209930000000 1.0
C      1  0.5941250000000  0.5472450000000  0.4807320000000 1.0
C      1  0.4319020000000  0.5168660000000  0.5239500000000 1.0
C      1  0.5686840000000  0.5096690000000  0.4731730000000 1.0
C      1  0.5323350000000  0.5832510000000  0.4315840000000 1.0
C      1  0.4749040000000  0.5751390000000  0.5739070000000 1.0
C      1  0.5313130000000  0.5272870000000  0.4038780000000 1.0
C      1  0.4713730000000  0.5281970000000  0.5908590000000 1.0
C      1  0.5369110000000  0.4610660000000  0.4455870000000 1.0
C      1  0.4606470000000  0.4513230000000  0.5586050000000 1.0
C      1  0.4393830000000  0.4867490000000  0.4862550000000 1.0
C      1  0.5553160000000  0.4870430000000  0.5141760000000 1.0
C      1  0.5684190000000  0.5825930000000  0.5027200000000 1.0
C      1  0.4278350000000  0.5787850000000  0.4917090000000 1.0
C      1  0.4931600000000  0.4947460000000  0.5630610000000 1.0
C      1  0.4957100000000  0.4901690000000  0.4340320000000 1.0
C      1  0.4975990000000  0.5446590000000  0.4752600000000 1.0
C      1  0.5027460000000  0.5409630000000  0.5198960000000 1.0
C      1  0.5269990000000  0.4944760000000  0.5195630000000 1.0
C      1  0.4683720000000  0.4914680000000  0.4781150000000 1.0
C      1  0.4253510000000  0.4874970000000  0.4352050000000 1.0
C      1  0.5675680000000  0.4918950000000  0.5564660000000 1.0
C      1  0.5524580000000  0.5680590000000  0.5754540000000 1.0
C      1  0.4523880000000  0.5662750000000  0.4283340000000 1.0
C      1  0.5737080000000  0.5193100000000  0.5595630000000 1.0
C      1  0.4237780000000  0.5160890000000  0.4353130000000 1.0
C      1  0.4738050000000  0.4384600000000  0.4071390000000 1.0
C      1  0.5241120000000  0.4428040000000  0.5893010000000 1.0
C      1  0.4384530000000  0.5589960000000  0.5549850000000 1.0
C      1  0.5600220000000  0.5531340000000  0.4453580000000 1.0
C      1  0.4528740000000  0.4479700000000  0.4254130000000 1.0
C      1  0.5426970000000  0.4533160000000  0.5696020000000 1.0
C      1  0.4020760000000  0.5158020000000  0.4819900000000 1.0
C      1  0.6079660000000  0.5203750000000  0.5220590000000 1.0
C      1  0.5873340000000  0.4757730000000  0.5422720000000 1.0
C      1  0.4142620000000  0.4730490000000  0.4591410000000 1.0
C      1  0.4997060000000  0.6138600000000  0.5045740000000 1.0
END
