TITL C-3578201-9217-684 -1.51987473977774e-06 125000 -1209.50122169338 0 0 189 (C1) n - 1
REM
REM in /home/bkarasulu/work/CARBON/AIRSS/Generating-Clusters/EDIP-Nigel-Params/with-SteepDescent/Higher-Symm/SD-CG/HFTN-CG
REM
REM
REM
REM
REM
REM ./C.cell (12c818d87b63d06a65506943cc24bca4)
REM
REM compiler GCC version 9.2.1 20190827 (Red Hat 9.2.1-1)
REM options -cpp -mtune=generic -march=x86-64 -g -O0 -fpre-include=/usr/include/finclude/math-vector-fortran.h
REM seed 104485802 -542873726 -129557091 -1504650105 -2003199912 -622266774 -2086554073 -979775967 425568283 -1236456747 1851950939 1633403704 1994372916 -1203517352 -1816607342 -171885660 1841986305 517772684 -1328412038 -782885644 -1031723359 -399394001 -1325389074 120021546 1022718226 1436681891 -1952869119 871621715 -520410174 -1194343554 -79683190 599394284 2077654769
REM
CELL 1.54180   50.00000   50.00000   50.00000   90.00000   90.00000   90.00000
LATT -1
SFAC C  
C      1  0.5666380000000  0.4589580000000  0.5864110000000 1.0
C      1  0.5658890000000  0.5393790000000  0.4172390000000 1.0
C      1  0.4287530000000  0.4640960000000  0.5752440000000 1.0
C      1  0.4282330000000  0.5360510000000  0.4139280000000 1.0
C      1  0.5537130000000  0.4964430000000  0.4516020000000 1.0
C      1  0.5534820000000  0.5078750000000  0.5492500000000 1.0
C      1  0.4630140000000  0.5051290000000  0.4339290000000 1.0
C      1  0.4707090000000  0.4955900000000  0.5650280000000 1.0
C      1  0.4352810000000  0.4594580000000  0.4152260000000 1.0
C      1  0.4384640000000  0.5382050000000  0.5844120000000 1.0
C      1  0.5659920000000  0.4618970000000  0.4157920000000 1.0
C      1  0.5622790000000  0.5369260000000  0.5871050000000 1.0
C      1  0.4850280000000  0.5395590000000  0.5569660000000 1.0
C      1  0.4853750000000  0.4624930000000  0.4416110000000 1.0
C      1  0.5131760000000  0.5350360000000  0.5613610000000 1.0
C      1  0.5145980000000  0.4656050000000  0.4429850000000 1.0
C      1  0.4488200000000  0.4630400000000  0.5290400000000 1.0
C      1  0.4457120000000  0.5306070000000  0.4820640000000 1.0
C      1  0.5628360000000  0.4785000000000  0.5409590000000 1.0
C      1  0.5628620000000  0.5252090000000  0.4634410000000 1.0
C      1  0.5294900000000  0.6072330000000  0.5258750000000 1.0
C      1  0.5305990000000  0.3912560000000  0.4722480000000 1.0
C      1  0.4717820000000  0.6112200000000  0.5271790000000 1.0
C      1  0.4673290000000  0.3931150000000  0.4751270000000 1.0
C      1  0.4381700000000  0.4133030000000  0.5141620000000 1.0
C      1  0.4343860000000  0.5960710000000  0.4663030000000 1.0
C      1  0.5662250000000  0.4023420000000  0.5321640000000 1.0
C      1  0.5592560000000  0.5955950000000  0.4709870000000 1.0
C      1  0.5699130000000  0.5782720000000  0.5372360000000 1.0
C      1  0.5734300000000  0.4200530000000  0.4617180000000 1.0
C      1  0.4265450000000  0.5857370000000  0.5386570000000 1.0
C      1  0.4279980000000  0.4209120000000  0.4638560000000 1.0
C      1  0.4193410000000  0.4267730000000  0.5375490000000 1.0
C      1  0.4217690000000  0.5718460000000  0.4535880000000 1.0
C      1  0.5768350000000  0.4256540000000  0.5477360000000 1.0
C      1  0.5725960000000  0.5742870000000  0.4536960000000 1.0
C      1  0.4867630000000  0.5980670000000  0.5783390000000 1.0
C      1  0.4843290000000  0.4039480000000  0.4247880000000 1.0
C      1  0.5182110000000  0.5967060000000  0.5767210000000 1.0
C      1  0.5155870000000  0.4043080000000  0.4236690000000 1.0
C      1  0.5243670000000  0.5401220000000  0.3913430000000 1.0
C      1  0.5230270000000  0.4567710000000  0.6093520000000 1.0
C      1  0.4714130000000  0.5370230000000  0.3900850000000 1.0
C      1  0.4690930000000  0.4585640000000  0.6035910000000 1.0
C      1  0.5165420000000  0.5888160000000  0.5466700000000 1.0
C      1  0.5177950000000  0.4111940000000  0.4531700000000 1.0
C      1  0.4849410000000  0.5918490000000  0.5476590000000 1.0
C      1  0.4827530000000  0.4107110000000  0.4545440000000 1.0
C      1  0.5325420000000  0.6069340000000  0.4646520000000 1.0
C      1  0.5452660000000  0.3894970000000  0.5455840000000 1.0
C      1  0.4540470000000  0.6088300000000  0.4510560000000 1.0
C      1  0.4602340000000  0.3963160000000  0.5282400000000 1.0
C      1  0.4418460000000  0.4991370000000  0.4899790000000 1.0
C      1  0.4359420000000  0.4973430000000  0.5212990000000 1.0
C      1  0.5739490000000  0.4866300000000  0.4888690000000 1.0
C      1  0.5685700000000  0.5070300000000  0.5086120000000 1.0
C      1  0.5223690000000  0.4925510000000  0.4578450000000 1.0
C      1  0.5239950000000  0.5087010000000  0.5498150000000 1.0
C      1  0.4728700000000  0.4857690000000  0.4534730000000 1.0
C      1  0.4750680000000  0.5158440000000  0.5457280000000 1.0
C      1  0.5325310000000  0.5791390000000  0.5928420000000 1.0
C      1  0.5332960000000  0.4189940000000  0.4076970000000 1.0
C      1  0.4728290000000  0.5795340000000  0.5940490000000 1.0
C      1  0.4666520000000  0.4183080000000  0.4088120000000 1.0
C      1  0.4647260000000  0.5523570000000  0.5940520000000 1.0
C      1  0.4597440000000  0.4448500000000  0.4040220000000 1.0
C      1  0.5376900000000  0.5522910000000  0.5980400000000 1.0
C      1  0.5409450000000  0.4460260000000  0.4078170000000 1.0
C      1  0.4504790000000  0.5215780000000  0.5327460000000 1.0
C      1  0.4655300000000  0.4844250000000  0.4811440000000 1.0
C      1  0.5561620000000  0.5295100000000  0.4939100000000 1.0
C      1  0.5602580000000  0.4612850000000  0.4908370000000 1.0
C      1  0.5905350000000  0.5586310000000  0.4720180000000 1.0
C      1  0.5922840000000  0.4425790000000  0.5288140000000 1.0
C      1  0.4103120000000  0.5559990000000  0.4759830000000 1.0
C      1  0.3983920000000  0.4429220000000  0.5241670000000 1.0
C      1  0.4471360000000  0.4444430000000  0.4657200000000 1.0
C      1  0.4446620000000  0.5659550000000  0.5502890000000 1.0
C      1  0.5565290000000  0.4462550000000  0.4617840000000 1.0
C      1  0.5520100000000  0.5560530000000  0.5424560000000 1.0
C      1  0.5300260000000  0.4911950000000  0.4028850000000 1.0
C      1  0.5272330000000  0.5068070000000  0.6005820000000 1.0
C      1  0.4674900000000  0.4917740000000  0.4063810000000 1.0
C      1  0.4706670000000  0.5061290000000  0.5951990000000 1.0
C      1  0.4331010000000  0.5391010000000  0.5525080000000 1.0
C      1  0.4348680000000  0.4644460000000  0.4455000000000 1.0
C      1  0.5672580000000  0.5346050000000  0.5553560000000 1.0
C      1  0.5708490000000  0.4679820000000  0.4459240000000 1.0
C      1  0.3894190000000  0.4908090000000  0.5366200000000 1.0
C      1  0.3963680000000  0.5095960000000  0.4922420000000 1.0
C      1  0.6093660000000  0.4882010000000  0.5229830000000 1.0
C      1  0.6097720000000  0.5134850000000  0.4799090000000 1.0
C      1  0.4267850000000  0.5083450000000  0.4223640000000 1.0
C      1  0.4335980000000  0.4919320000000  0.5701440000000 1.0
C      1  0.5721330000000  0.5118030000000  0.4215740000000 1.0
C      1  0.5701410000000  0.4869840000000  0.5782600000000 1.0
C      1  0.5271330000000  0.4409560000000  0.4586380000000 1.0
C      1  0.5233130000000  0.5584320000000  0.5419500000000 1.0
C      1  0.4764850000000  0.4400210000000  0.4603450000000 1.0
C      1  0.4734730000000  0.5644300000000  0.5428550000000 1.0
C      1  0.5116770000000  0.4376850000000  0.5900930000000 1.0
C      1  0.5109750000000  0.5597310000000  0.4084920000000 1.0
C      1  0.4833020000000  0.4478800000000  0.5794660000000 1.0
C      1  0.4821240000000  0.5503850000000  0.4146330000000 1.0
C      1  0.4040200000000  0.4386020000000  0.4722720000000 1.0
C      1  0.4082940000000  0.5649790000000  0.5245790000000 1.0
C      1  0.5969450000000  0.4349980000000  0.4759340000000 1.0
C      1  0.5914480000000  0.5614270000000  0.5234470000000 1.0
C      1  0.5140790000000  0.3933620000000  0.4981970000000 1.0
C      1  0.5150430000000  0.6048480000000  0.4986140000000 1.0
C      1  0.4826000000000  0.3972320000000  0.5005180000000 1.0
C      1  0.4851610000000  0.6057380000000  0.5009970000000 1.0
C      1  0.5967020000000  0.5144850000000  0.5164040000000 1.0
C      1  0.6028650000000  0.4843670000000  0.4847930000000 1.0
C      1  0.4052660000000  0.5098530000000  0.5223550000000 1.0
C      1  0.4130760000000  0.4852350000000  0.4836050000000 1.0
C      1  0.5342870000000  0.4240060000000  0.5756670000000 1.0
C      1  0.5301450000000  0.5723100000000  0.4280960000000 1.0
C      1  0.4619780000000  0.4296850000000  0.5660690000000 1.0
C      1  0.4619310000000  0.5715340000000  0.4227060000000 1.0
C      1  0.5577020000000  0.4397750000000  0.5661120000000 1.0
C      1  0.5532670000000  0.5542880000000  0.4407370000000 1.0
C      1  0.4387050000000  0.4455680000000  0.5531380000000 1.0
C      1  0.4379820000000  0.5569920000000  0.4329240000000 1.0
C      1  0.5944300000000  0.5357880000000  0.5387540000000 1.0
C      1  0.5999850000000  0.4625870000000  0.4623780000000 1.0
C      1  0.4060470000000  0.5379940000000  0.5386880000000 1.0
C      1  0.4081920000000  0.4669010000000  0.4581310000000 1.0
C      1  0.4083850000000  0.5280310000000  0.4730600000000 1.0
C      1  0.3881110000000  0.4641900000000  0.5386850000000 1.0
C      1  0.5933350000000  0.5302800000000  0.4630010000000 1.0
C      1  0.5922710000000  0.4702990000000  0.5376370000000 1.0
C      1  0.4365470000000  0.4875550000000  0.4035580000000 1.0
C      1  0.4398870000000  0.5098790000000  0.5928430000000 1.0
C      1  0.5588250000000  0.4901550000000  0.4080560000000 1.0
C      1  0.5560510000000  0.5082690000000  0.5938570000000 1.0
C      1  0.4896090000000  0.4333930000000  0.5313630000000 1.0
C      1  0.4793660000000  0.5691890000000  0.4668810000000 1.0
C      1  0.5199260000000  0.4297550000000  0.5339950000000 1.0
C      1  0.5097790000000  0.5666860000000  0.4673970000000 1.0
C      1  0.4723930000000  0.5886340000000  0.4443080000000 1.0
C      1  0.4758770000000  0.4126000000000  0.5474910000000 1.0
C      1  0.5164570000000  0.5884620000000  0.4484120000000 1.0
C      1  0.5252870000000  0.4073360000000  0.5539160000000 1.0
C      1  0.5209050000000  0.5385560000000  0.4658160000000 1.0
C      1  0.5344250000000  0.4620170000000  0.5356590000000 1.0
C      1  0.4674570000000  0.5419620000000  0.4623070000000 1.0
C      1  0.4790070000000  0.4627650000000  0.5309910000000 1.0
C      1  0.4881490000000  0.4720160000000  0.5581280000000 1.0
C      1  0.4809940000000  0.5289720000000  0.4388930000000 1.0
C      1  0.5157210000000  0.4805930000000  0.5507870000000 1.0
C      1  0.5086690000000  0.5190450000000  0.4485530000000 1.0
C      1  0.5196030000000  0.4425930000000  0.4880200000000 1.0
C      1  0.5116650000000  0.5521160000000  0.5130180000000 1.0
C      1  0.4906010000000  0.4464120000000  0.4869200000000 1.0
C      1  0.4782020000000  0.5577200000000  0.5135150000000 1.0
C      1  0.5109680000000  0.4829080000000  0.6068080000000 1.0
C      1  0.5127710000000  0.5134860000000  0.3950020000000 1.0
C      1  0.4820180000000  0.4837650000000  0.6107270000000 1.0
C      1  0.4839470000000  0.5108700000000  0.3895850000000 1.0
C      1  0.4816480000000  0.4266600000000  0.5051080000000 1.0
C      1  0.4711040000000  0.5801170000000  0.4938550000000 1.0
C      1  0.5283210000000  0.4194700000000  0.5065220000000 1.0
C      1  0.5219010000000  0.5745950000000  0.4943340000000 1.0
C      1  0.5782310000000  0.4386910000000  0.5018690000000 1.0
C      1  0.5735070000000  0.5567260000000  0.4974910000000 1.0
C      1  0.4125670000000  0.4518450000000  0.4991780000000 1.0
C      1  0.4241750000000  0.5636420000000  0.5000460000000 1.0
C      1  0.5508800000000  0.4570250000000  0.6092500000000 1.0
C      1  0.5521220000000  0.5422500000000  0.3932630000000 1.0
C      1  0.4412200000000  0.4589950000000  0.5998910000000 1.0
C      1  0.4434950000000  0.5366330000000  0.3903480000000 1.0
C      1  0.4804990000000  0.4644650000000  0.4109460000000 1.0
C      1  0.4849620000000  0.5322660000000  0.6008860000000 1.0
C      1  0.5191700000000  0.4655110000000  0.4115510000000 1.0
C      1  0.5150080000000  0.5330210000000  0.5926280000000 1.0
C      1  0.4580680000000  0.5366870000000  0.5088020000000 1.0
C      1  0.4875800000000  0.4751420000000  0.4980390000000 1.0
C      1  0.5249440000000  0.5281470000000  0.4942520000000 1.0
C      1  0.5325820000000  0.4663290000000  0.5027120000000 1.0
C      1  0.5600080000000  0.3987690000000  0.4788050000000 1.0
C      1  0.5572730000000  0.5982190000000  0.5192530000000 1.0
C      1  0.4386120000000  0.4008000000000  0.4827900000000 1.0
C      1  0.4417660000000  0.6051500000000  0.5201470000000 1.0
C      1  0.5590590000000  0.4141480000000  0.5052390000000 1.0
C      1  0.5537200000000  0.5800540000000  0.4956210000000 1.0
C      1  0.4417760000000  0.4450680000000  0.5037880000000 1.0
C      1  0.4413930000000  0.5874290000000  0.4946740000000 1.0
C      1  0.5162140000000  0.4906150000000  0.4904530000000 1.0
END
