TITL C-3578194-7807-606 -9.41889841578474e-07 125000 -404.343769454789 0 0 67 (C1) n - 1
REM
REM in /home/bkarasulu/work/CARBON/AIRSS/Generating-Clusters/EDIP-Nigel-Params/with-SteepDescent/Higher-Symm/SD-CG/HFTN-CG
REM
REM
REM
REM
REM
REM ./C.cell (12c818d87b63d06a65506943cc24bca4)
REM
REM compiler GCC version 9.2.1 20190827 (Red Hat 9.2.1-1)
REM options -cpp -mtune=generic -march=x86-64 -g -O0 -fpre-include=/usr/include/finclude/math-vector-fortran.h
REM seed 1906425879 -839926060 1938529774 -1632592162 1184966719 255153586 1814797086 -391192830 677795209 688569272 -2134511153 -1889827102 2042628020 216135896 1009520959 -673411793 -244891410 -406848789 -45869505 -1206615281 -1654320422 384989321 847086801 -1314228706 -1804679291 1017047167 1334092311 -1192801271 -847600101 -77300439 -765390361 -1219116590 1921587364
REM
CELL 1.54180   50.00000   50.00000   50.00000   90.00000   90.00000   90.00000
LATT -1
SFAC C  
C      1  0.4634050000000  0.5050340000000  0.5222800000000 1.0
C      1  0.4782010000000  0.5331380000000  0.5235760000000 1.0
C      1  0.5112210000000  0.5355700000000  0.5221330000000 1.0
C      1  0.5518450000000  0.5023550000000  0.5158600000000 1.0
C      1  0.5091330000000  0.4863470000000  0.5227630000000 1.0
C      1  0.4812270000000  0.4822200000000  0.5235430000000 1.0
C      1  0.4713480000000  0.4917510000000  0.4818400000000 1.0
C      1  0.4882240000000  0.5158360000000  0.4782770000000 1.0
C      1  0.5171330000000  0.5142950000000  0.4801010000000 1.0
C      1  0.5282650000000  0.4909350000000  0.4686800000000 1.0
C      1  0.5190440000000  0.4645500000000  0.4741150000000 1.0
C      1  0.4873630000000  0.4638850000000  0.4777750000000 1.0
C      1  0.4843380000000  0.5261220000000  0.5722840000000 1.0
C      1  0.5129160000000  0.5245290000000  0.5706390000000 1.0
C      1  0.5286350000000  0.5002740000000  0.5737730000000 1.0
C      1  0.5133100000000  0.4752880000000  0.5703030000000 1.0
C      1  0.4829200000000  0.4757070000000  0.5712310000000 1.0
C      1  0.4684440000000  0.5019430000000  0.5727720000000 1.0
C      1  0.4874940000000  0.5239920000000  0.4308950000000 1.0
C      1  0.5173020000000  0.5232160000000  0.4300880000000 1.0
C      1  0.5313120000000  0.4967620000000  0.4246380000000 1.0
C      1  0.5150000000000  0.4712210000000  0.4245350000000 1.0
C      1  0.4860720000000  0.4734420000000  0.4283410000000 1.0
C      1  0.4719860000000  0.4989550000000  0.4293090000000 1.0
C      1  0.5024950000000  0.5577470000000  0.4621840000000 1.0
C      1  0.5573040000000  0.5241300000000  0.4570060000000 1.0
C      1  0.5577760000000  0.4630980000000  0.4504910000000 1.0
C      1  0.4990230000000  0.4311190000000  0.4494930000000 1.0
C      1  0.4462520000000  0.4670290000000  0.4553340000000 1.0
C      1  0.4492630000000  0.5293360000000  0.4617080000000 1.0
C      1  0.4984420000000  0.5675200000000  0.5506210000000 1.0
C      1  0.5529600000000  0.5323880000000  0.5481660000000 1.0
C      1  0.5504370000000  0.4668600000000  0.5400330000000 1.0
C      1  0.5004570000000  0.4416360000000  0.5384100000000 1.0
C      1  0.4424510000000  0.4726390000000  0.5445900000000 1.0
C      1  0.4422960000000  0.5373570000000  0.5499570000000 1.0
C      1  0.4343700000000  0.5481340000000  0.5241970000000 1.0
C      1  0.5039550000000  0.5804810000000  0.5251670000000 1.0
C      1  0.5697230000000  0.5415540000000  0.5274820000000 1.0
C      1  0.5591680000000  0.4713820000000  0.5118710000000 1.0
C      1  0.5007450000000  0.4291440000000  0.5126240000000 1.0
C      1  0.4288680000000  0.4703540000000  0.5193410000000 1.0
C      1  0.4407400000000  0.5334810000000  0.4888870000000 1.0
C      1  0.5008520000000  0.5711090000000  0.4873830000000 1.0
C      1  0.5713730000000  0.5283990000000  0.4804440000000 1.0
C      1  0.5643740000000  0.4544490000000  0.4772450000000 1.0
C      1  0.4948380000000  0.4186970000000  0.4755520000000 1.0
C      1  0.4356510000000  0.4655590000000  0.4820210000000 1.0
C      1  0.5247010000000  0.4510750000000  0.4458000000000 1.0
C      1  0.4757250000000  0.4546980000000  0.4492570000000 1.0
C      1  0.4527840000000  0.4979480000000  0.4527430000000 1.0
C      1  0.4799040000000  0.5359840000000  0.4577160000000 1.0
C      1  0.5275110000000  0.5355780000000  0.4573140000000 1.0
C      1  0.5494900000000  0.4939800000000  0.4486580000000 1.0
C      1  0.5202240000000  0.4658730000000  0.5423980000000 1.0
C      1  0.4732080000000  0.4627230000000  0.5449640000000 1.0
C      1  0.4478140000000  0.5047850000000  0.5504160000000 1.0
C      1  0.4740250000000  0.5458660000000  0.5524850000000 1.0
C      1  0.5237120000000  0.5430700000000  0.5506630000000 1.0
C      1  0.5522320000000  0.5021950000000  0.5548570000000 1.0
C      1  0.4362430000000  0.4906250000000  0.4988700000000 1.0
C      1  0.5402500000000  0.4534650000000  0.4935690000000 1.0
C      1  0.4824140000000  0.4380900000000  0.4929980000000 1.0
C      1  0.4577210000000  0.5483890000000  0.5068440000000 1.0
C      1  0.5714380000000  0.5224500000000  0.5073620000000 1.0
C      1  0.5169210000000  0.5614580000000  0.5081730000000 1.0
C      1  0.5229010000000  0.5099870000000  0.5099520000000 1.0
END
