TITL C-3578209-2550-364 -1.63625146802633e-06 125000 -316.075410190265 0 0 53 (C1) n - 1
REM
REM in /home/bkarasulu/work/CARBON/AIRSS/Generating-Clusters/EDIP-Nigel-Params/with-SteepDescent/Higher-Symm/SD-CG/HFTN-CG
REM
REM
REM
REM
REM
REM ./C.cell (12c818d87b63d06a65506943cc24bca4)
REM
REM compiler GCC version 9.2.1 20190827 (Red Hat 9.2.1-1)
REM options -cpp -mtune=generic -march=x86-64 -g -O0 -fpre-include=/usr/include/finclude/math-vector-fortran.h
REM seed -541939029 -655187244 51718444 1361963955 -1442050257 47450596 -305190951 16517310 688399533 705527497 -514320639 -1063264471 -179777164 -1122845095 -1044766876 545788973 924688499 -289141430 -1938975360 -37257265 1792201405 -373211369 -564258387 50842404 802543838 -1899412853 -1783314919 -179170059 -140060405 -852884910 1859145793 -61227829 336529934
REM
CELL 1.54180   50.00000   50.00000   50.00000   90.00000   90.00000   90.00000
LATT -1
SFAC C  
C      1  0.5260820000000  0.4555870000000  0.4522970000000 1.0
C      1  0.4673680000000  0.5620820000000  0.5521870000000 1.0
C      1  0.5196590000000  0.4812040000000  0.4669170000000 1.0
C      1  0.4786390000000  0.5362200000000  0.5565000000000 1.0
C      1  0.5511860000000  0.5276710000000  0.4686470000000 1.0
C      1  0.4397010000000  0.4715560000000  0.5268780000000 1.0
C      1  0.4688510000000  0.5651160000000  0.5242180000000 1.0
C      1  0.5301140000000  0.4392100000000  0.4747330000000 1.0
C      1  0.5634260000000  0.4797840000000  0.4644920000000 1.0
C      1  0.4283160000000  0.5194560000000  0.5251640000000 1.0
C      1  0.5439380000000  0.5095430000000  0.4263670000000 1.0
C      1  0.4483160000000  0.4953340000000  0.5673770000000 1.0
C      1  0.5137500000000  0.5452280000000  0.5247450000000 1.0
C      1  0.4801630000000  0.4423400000000  0.4693710000000 1.0
C      1  0.5010490000000  0.4587690000000  0.5380590000000 1.0
C      1  0.4933860000000  0.5473170000000  0.4643700000000 1.0
C      1  0.5262590000000  0.4721480000000  0.5042700000000 1.0
C      1  0.4856690000000  0.5260670000000  0.5059030000000 1.0
C      1  0.4609460000000  0.5376460000000  0.5160510000000 1.0
C      1  0.5485110000000  0.4564430000000  0.4908820000000 1.0
C      1  0.5004460000000  0.4405030000000  0.5162370000000 1.0
C      1  0.4986530000000  0.5668200000000  0.4842370000000 1.0
C      1  0.5072090000000  0.5356900000000  0.5526410000000 1.0
C      1  0.4822820000000  0.4599410000000  0.4468300000000 1.0
C      1  0.4969710000000  0.5679430000000  0.5127170000000 1.0
C      1  0.5034520000000  0.4380290000000  0.4876240000000 1.0
C      1  0.4818370000000  0.4882370000000  0.4426950000000 1.0
C      1  0.5159030000000  0.5102150000000  0.5627850000000 1.0
C      1  0.5461800000000  0.5499290000000  0.4512810000000 1.0
C      1  0.4540880000000  0.4568720000000  0.5468170000000 1.0
C      1  0.4333230000000  0.5184550000000  0.4970180000000 1.0
C      1  0.5764600000000  0.4826310000000  0.4896180000000 1.0
C      1  0.4497480000000  0.4727710000000  0.4997880000000 1.0
C      1  0.5569960000000  0.5277030000000  0.4970990000000 1.0
C      1  0.4495590000000  0.4672120000000  0.5727520000000 1.0
C      1  0.5423270000000  0.5384630000000  0.4251720000000 1.0
C      1  0.4325020000000  0.4960390000000  0.5413650000000 1.0
C      1  0.5545890000000  0.5042540000000  0.4526840000000 1.0
C      1  0.4607320000000  0.4506800000000  0.4872800000000 1.0
C      1  0.5401120000000  0.5413040000000  0.5145220000000 1.0
C      1  0.5665670000000  0.5024930000000  0.5078570000000 1.0
C      1  0.4439940000000  0.4952390000000  0.4826980000000 1.0
C      1  0.5324610000000  0.4929780000000  0.5475220000000 1.0
C      1  0.4717960000000  0.4988630000000  0.4695090000000 1.0
C      1  0.5103660000000  0.4998890000000  0.4432460000000 1.0
C      1  0.4776030000000  0.5038790000000  0.5614020000000 1.0
C      1  0.5317500000000  0.4991140000000  0.5188910000000 1.0
C      1  0.4917120000000  0.4805600000000  0.4867720000000 1.0
C      1  0.4800540000000  0.5262840000000  0.4777080000000 1.0
C      1  0.5259670000000  0.4659020000000  0.5482550000000 1.0
C      1  0.5124900000000  0.5314690000000  0.4477470000000 1.0
C      1  0.4807020000000  0.4820000000000  0.5373860000000 1.0
C      1  0.4929210000000  0.4977260000000  0.5131360000000 1.0
END
