TITL C-3578209-2550-164 2.89885364201076e-05 125000 -915.396723153914 0 0 145 (C1) n - 1
REM
REM in /home/bkarasulu/work/CARBON/AIRSS/Generating-Clusters/EDIP-Nigel-Params/with-SteepDescent/Higher-Symm/SD-CG/HFTN-CG
REM
REM
REM
REM
REM
REM ./C.cell (12c818d87b63d06a65506943cc24bca4)
REM
REM compiler GCC version 9.2.1 20190827 (Red Hat 9.2.1-1)
REM options -cpp -mtune=generic -march=x86-64 -g -O0 -fpre-include=/usr/include/finclude/math-vector-fortran.h
REM seed -1524282695 1059577505 1738743441 186853821 -2029626728 601367069 848809230 1016868288 516956744 -1609934751 -718732271 -2142591936 -1024265887 2071806531 1415461015 395304503 1584596437 -1760786526 882516997 114303584 1300032491 -554612854 -444353325 752522252 1193617065 767380536 -488325912 524595139 106774560 92245203 -1606641143 -32894398 -285878959
REM
CELL 1.54180   50.00000   50.00000   50.00000   90.00000   90.00000   90.00000
LATT -1
SFAC C  
C      1  0.4567310000000  0.4725280000000  0.5329970000000 1.0
C      1  0.5025400000000  0.5424720000000  0.4289370000000 1.0
C      1  0.5457080000000  0.4768000000000  0.5450940000000 1.0
C      1  0.5243240000000  0.4946380000000  0.4539300000000 1.0
C      1  0.4753800000000  0.5133630000000  0.5835890000000 1.0
C      1  0.5483040000000  0.4290560000000  0.5252750000000 1.0
C      1  0.4230610000000  0.4720630000000  0.4363050000000 1.0
C      1  0.5394920000000  0.5137590000000  0.5413810000000 1.0
C      1  0.4082410000000  0.5186960000000  0.4327540000000 1.0
C      1  0.4727550000000  0.5871200000000  0.5160350000000 1.0
C      1  0.5754300000000  0.5761740000000  0.5376830000000 1.0
C      1  0.4767180000000  0.5071470000000  0.4531460000000 1.0
C      1  0.5270640000000  0.5136710000000  0.4765990000000 1.0
C      1  0.5486690000000  0.4558560000000  0.5831000000000 1.0
C      1  0.5844760000000  0.5049210000000  0.5574120000000 1.0
C      1  0.5362810000000  0.5992680000000  0.4932950000000 1.0
C      1  0.4917790000000  0.4671940000000  0.4132820000000 1.0
C      1  0.4239890000000  0.5411740000000  0.4887190000000 1.0
C      1  0.5532670000000  0.5739560000000  0.4924110000000 1.0
C      1  0.4834890000000  0.5548180000000  0.4827770000000 1.0
C      1  0.5109260000000  0.4497420000000  0.4842050000000 1.0
C      1  0.4649460000000  0.4147730000000  0.5442020000000 1.0
C      1  0.5711220000000  0.5124180000000  0.4391700000000 1.0
C      1  0.5487190000000  0.4774510000000  0.4116690000000 1.0
C      1  0.4591150000000  0.5729770000000  0.4726050000000 1.0
C      1  0.5240840000000  0.4873940000000  0.5638040000000 1.0
C      1  0.4426850000000  0.5426870000000  0.5535120000000 1.0
C      1  0.4525260000000  0.4499560000000  0.5527000000000 1.0
C      1  0.4409930000000  0.4961010000000  0.5426280000000 1.0
C      1  0.5623150000000  0.4440080000000  0.5587890000000 1.0
C      1  0.5779710000000  0.5753690000000  0.5098660000000 1.0
C      1  0.5776200000000  0.5167390000000  0.4686010000000 1.0
C      1  0.4746480000000  0.4725450000000  0.5080890000000 1.0
C      1  0.5084000000000  0.4105570000000  0.4643560000000 1.0
C      1  0.5016700000000  0.4892680000000  0.5114450000000 1.0
C      1  0.5937010000000  0.5520240000000  0.5005810000000 1.0
C      1  0.5563700000000  0.4873800000000  0.4389750000000 1.0
C      1  0.5467610000000  0.5248460000000  0.5837490000000 1.0
C      1  0.4408650000000  0.4989130000000  0.4888920000000 1.0
C      1  0.5344470000000  0.5502980000000  0.5005650000000 1.0
C      1  0.5502070000000  0.4794950000000  0.4956480000000 1.0
C      1  0.5096720000000  0.5846470000000  0.5606430000000 1.0
C      1  0.4988770000000  0.4241480000000  0.4403430000000 1.0
C      1  0.5194480000000  0.5598560000000  0.4455820000000 1.0
C      1  0.3942810000000  0.5085150000000  0.4870290000000 1.0
C      1  0.5201060000000  0.4511680000000  0.5879900000000 1.0
C      1  0.5644500000000  0.5643040000000  0.4656810000000 1.0
C      1  0.4232280000000  0.4523600000000  0.5602520000000 1.0
C      1  0.4940790000000  0.4662380000000  0.5555420000000 1.0
C      1  0.5013800000000  0.4958400000000  0.4098840000000 1.0
C      1  0.4995480000000  0.4946610000000  0.5420560000000 1.0
C      1  0.4703430000000  0.4223320000000  0.4437850000000 1.0
C      1  0.5022240000000  0.4715450000000  0.5983550000000 1.0
C      1  0.5780030000000  0.4659020000000  0.4453750000000 1.0
C      1  0.4709980000000  0.4617120000000  0.5769680000000 1.0
C      1  0.4310660000000  0.4313840000000  0.4625700000000 1.0
C      1  0.5827600000000  0.4555480000000  0.5377840000000 1.0
C      1  0.4843610000000  0.5194420000000  0.5524760000000 1.0
C      1  0.5143410000000  0.5576220000000  0.5230320000000 1.0
C      1  0.4756800000000  0.4770780000000  0.4561720000000 1.0
C      1  0.4999170000000  0.5011130000000  0.5977920000000 1.0
C      1  0.4586040000000  0.5675130000000  0.5571570000000 1.0
C      1  0.5885980000000  0.5324520000000  0.5465380000000 1.0
C      1  0.5969110000000  0.4961950000000  0.4807980000000 1.0
C      1  0.5021160000000  0.4039890000000  0.5101400000000 1.0
C      1  0.4386710000000  0.4485250000000  0.4849370000000 1.0
C      1  0.5050150000000  0.5491200000000  0.5863370000000 1.0
C      1  0.5870500000000  0.4854300000000  0.5346210000000 1.0
C      1  0.4633590000000  0.5307180000000  0.4099130000000 1.0
C      1  0.5119230000000  0.5651590000000  0.4735210000000 1.0
C      1  0.5315120000000  0.4104080000000  0.5071090000000 1.0
C      1  0.4899300000000  0.6097520000000  0.4788180000000 1.0
C      1  0.5744250000000  0.4401350000000  0.5131770000000 1.0
C      1  0.4860720000000  0.5612110000000  0.5116950000000 1.0
C      1  0.4129580000000  0.4598200000000  0.4966060000000 1.0
C      1  0.4034440000000  0.4670740000000  0.5428920000000 1.0
C      1  0.4522340000000  0.5154400000000  0.4349340000000 1.0
C      1  0.5109590000000  0.4114560000000  0.5557920000000 1.0
C      1  0.4157270000000  0.5671120000000  0.4528920000000 1.0
C      1  0.4359220000000  0.4983560000000  0.5722650000000 1.0
C      1  0.5333080000000  0.4180350000000  0.4785440000000 1.0
C      1  0.5294150000000  0.4956350000000  0.3985670000000 1.0
C      1  0.5137090000000  0.5950150000000  0.4754300000000 1.0
C      1  0.4030340000000  0.4465990000000  0.5210950000000 1.0
C      1  0.5181700000000  0.5226720000000  0.5890010000000 1.0
C      1  0.4458190000000  0.4172980000000  0.5237320000000 1.0
C      1  0.4582060000000  0.4295270000000  0.5000230000000 1.0
C      1  0.5511920000000  0.4400040000000  0.4697630000000 1.0
C      1  0.5305740000000  0.4539870000000  0.5289360000000 1.0
C      1  0.5160420000000  0.5355710000000  0.5458830000000 1.0
C      1  0.5097540000000  0.4513150000000  0.4324530000000 1.0
C      1  0.4612440000000  0.4074970000000  0.4685860000000 1.0
C      1  0.4663420000000  0.4678680000000  0.4272690000000 1.0
C      1  0.4874380000000  0.5623280000000  0.5636310000000 1.0
C      1  0.5385240000000  0.4504300000000  0.4214790000000 1.0
C      1  0.4738840000000  0.5531190000000  0.4257140000000 1.0
C      1  0.5113060000000  0.5393580000000  0.3997180000000 1.0
C      1  0.4284230000000  0.4974150000000  0.4251670000000 1.0
C      1  0.5465630000000  0.5488300000000  0.5669420000000 1.0
C      1  0.3970300000000  0.5078480000000  0.4579820000000 1.0
C      1  0.5862250000000  0.5458260000000  0.4726290000000 1.0
C      1  0.5276310000000  0.5693810000000  0.5803180000000 1.0
C      1  0.5676480000000  0.4566520000000  0.4885740000000 1.0
C      1  0.4582950000000  0.5180070000000  0.5040530000000 1.0
C      1  0.4588920000000  0.4877060000000  0.5865540000000 1.0
C      1  0.4858810000000  0.4449990000000  0.5071490000000 1.0
C      1  0.5044990000000  0.5137100000000  0.4949130000000 1.0
C      1  0.4539110000000  0.5868330000000  0.5369340000000 1.0
C      1  0.4199620000000  0.4257180000000  0.5325860000000 1.0
C      1  0.4574430000000  0.4738220000000  0.4818990000000 1.0
C      1  0.4140890000000  0.4898650000000  0.5012370000000 1.0
C      1  0.4214930000000  0.5458740000000  0.4349850000000 1.0
C      1  0.5281090000000  0.6064720000000  0.5191890000000 1.0
C      1  0.5533070000000  0.5255800000000  0.5134420000000 1.0
C      1  0.5475020000000  0.5552220000000  0.4431640000000 1.0
C      1  0.4878560000000  0.4016680000000  0.4833440000000 1.0
C      1  0.5592270000000  0.4428610000000  0.4422090000000 1.0
C      1  0.5599010000000  0.4794110000000  0.5920600000000 1.0
C      1  0.5027820000000  0.5107380000000  0.4372790000000 1.0
C      1  0.4137590000000  0.4931780000000  0.5309140000000 1.0
C      1  0.4276950000000  0.4442210000000  0.4370340000000 1.0
C      1  0.5526010000000  0.5081690000000  0.4887020000000 1.0
C      1  0.4327410000000  0.5199060000000  0.4678670000000 1.0
C      1  0.5907650000000  0.4676840000000  0.4727590000000 1.0
C      1  0.5244330000000  0.4690590000000  0.5041280000000 1.0
C      1  0.3971650000000  0.5353000000000  0.4963840000000 1.0
C      1  0.4291600000000  0.5677370000000  0.4786690000000 1.0
C      1  0.5236080000000  0.5836060000000  0.5350280000000 1.0
C      1  0.4797710000000  0.5239410000000  0.4831850000000 1.0
C      1  0.4546480000000  0.4406870000000  0.4264010000000 1.0
C      1  0.5061400000000  0.4679020000000  0.4586470000000 1.0
C      1  0.4571420000000  0.5215220000000  0.5354310000000 1.0
C      1  0.4664990000000  0.5981990000000  0.4887710000000 1.0
C      1  0.5737620000000  0.5559700000000  0.5568420000000 1.0
C      1  0.5965680000000  0.5014730000000  0.5106110000000 1.0
C      1  0.5845640000000  0.5288980000000  0.5172250000000 1.0
C      1  0.5029440000000  0.4441650000000  0.5371120000000 1.0
C      1  0.4905930000000  0.4023760000000  0.5376840000000 1.0
C      1  0.5372180000000  0.5245350000000  0.4015420000000 1.0
C      1  0.5542680000000  0.5322690000000  0.4259730000000 1.0
C      1  0.4868230000000  0.5189340000000  0.3943420000000 1.0
C      1  0.5631440000000  0.5023470000000  0.5769060000000 1.0
C      1  0.5088890000000  0.4279280000000  0.5776510000000 1.0
C      1  0.4394580000000  0.5269210000000  0.5779320000000 1.0
C      1  0.4530300000000  0.5674830000000  0.4416030000000 1.0
END
