TITL C-3577089-586-640 -6.02713570967249e-06 125000 -590.610023282612 0 0 95 (C1) n - 1
REM
REM in /home/bkarasulu/work/CARBON/AIRSS/Generating-Clusters/EDIP-Nigel-Params/with-SteepDescent/Higher-Symm/SD-CG/HFTN-CG
REM
REM
REM
REM
REM
REM ./C.cell (12c818d87b63d06a65506943cc24bca4)
REM
REM compiler GCC version 9.2.1 20190827 (Red Hat 9.2.1-1)
REM options -cpp -mtune=generic -march=x86-64 -g -O0 -fpre-include=/usr/include/finclude/math-vector-fortran.h
REM seed -1433975164 -725450325 -39299924 -863937458 -613573899 858780599 -2026633085 1991363172 170063181 1578687322 1563658363 -128426127 355725693 131126447 -108560691 799393461 -1747575626 -865521593 1492864069 -1030467082 1579766048 811287754 -1543821335 -1383996786 -1829891890 -80433325 1743730719 496914735 -850239079 -1549199336 -162900823 2100292790 1172536813
REM
CELL 1.54180   50.00000   50.00000   50.00000   90.00000   90.00000   90.00000
LATT -1
SFAC C  
C      1  0.5720510000000  0.4668870000000  0.5452430000000 1.0
C      1  0.5728350000000  0.4529770000000  0.4761030000000 1.0
C      1  0.5270110000000  0.4627760000000  0.4232910000000 1.0
C      1  0.4578680000000  0.4491910000000  0.4266050000000 1.0
C      1  0.4191600000000  0.4635690000000  0.4853430000000 1.0
C      1  0.4443730000000  0.4491710000000  0.5496890000000 1.0
C      1  0.5094860000000  0.4529050000000  0.5826080000000 1.0
C      1  0.5321800000000  0.4335940000000  0.5327080000000 1.0
C      1  0.5398200000000  0.4340980000000  0.5039890000000 1.0
C      1  0.5143580000000  0.4380780000000  0.4811620000000 1.0
C      1  0.4873910000000  0.4325380000000  0.4626000000000 1.0
C      1  0.4601220000000  0.4329300000000  0.4772980000000 1.0
C      1  0.4642360000000  0.4355140000000  0.5062770000000 1.0
C      1  0.5027060000000  0.4364300000000  0.5344250000000 1.0
C      1  0.5328240000000  0.5225460000000  0.4867250000000 1.0
C      1  0.5131540000000  0.5117590000000  0.4652820000000 1.0
C      1  0.4842890000000  0.5270650000000  0.4745150000000 1.0
C      1  0.4611790000000  0.5092040000000  0.4800280000000 1.0
C      1  0.4851160000000  0.5191830000000  0.5255320000000 1.0
C      1  0.5107950000000  0.5172900000000  0.5402400000000 1.0
C      1  0.5343350000000  0.5147990000000  0.5189540000000 1.0
C      1  0.4028650000000  0.4815000000000  0.4711800000000 1.0
C      1  0.4391280000000  0.5024000000000  0.5606440000000 1.0
C      1  0.5063000000000  0.4875220000000  0.5951820000000 1.0
C      1  0.5770290000000  0.4869490000000  0.5644150000000 1.0
C      1  0.5858980000000  0.5042720000000  0.4674310000000 1.0
C      1  0.5387980000000  0.4864150000000  0.4120590000000 1.0
C      1  0.4484720000000  0.5013680000000  0.4148760000000 1.0
C      1  0.5371030000000  0.5516170000000  0.5659240000000 1.0
C      1  0.5654190000000  0.5525810000000  0.5179370000000 1.0
C      1  0.5558030000000  0.5450410000000  0.4481170000000 1.0
C      1  0.5030030000000  0.5463030000000  0.4362620000000 1.0
C      1  0.4299010000000  0.5447210000000  0.4476750000000 1.0
C      1  0.4419360000000  0.5481020000000  0.5043270000000 1.0
C      1  0.4759680000000  0.5520400000000  0.5684600000000 1.0
C      1  0.5492060000000  0.5462920000000  0.4759290000000 1.0
C      1  0.5177680000000  0.5206230000000  0.4355190000000 1.0
C      1  0.4574270000000  0.5494370000000  0.4473660000000 1.0
C      1  0.4354970000000  0.5213610000000  0.4896660000000 1.0
C      1  0.4695140000000  0.5412650000000  0.5406280000000 1.0
C      1  0.5113540000000  0.5361050000000  0.5635800000000 1.0
C      1  0.5609040000000  0.5256730000000  0.5301820000000 1.0
C      1  0.4643360000000  0.4608250000000  0.5650640000000 1.0
C      1  0.5360560000000  0.4620350000000  0.5750700000000 1.0
C      1  0.5764380000000  0.4757820000000  0.5183500000000 1.0
C      1  0.5602400000000  0.4647200000000  0.4549540000000 1.0
C      1  0.4995710000000  0.4663710000000  0.4175820000000 1.0
C      1  0.4395040000000  0.4619780000000  0.4424100000000 1.0
C      1  0.4254130000000  0.4730090000000  0.5118260000000 1.0
C      1  0.5037170000000  0.5635390000000  0.4615490000000 1.0
C      1  0.4735150000000  0.5640320000000  0.4676860000000 1.0
C      1  0.4651710000000  0.5667390000000  0.4966100000000 1.0
C      1  0.4966390000000  0.5688620000000  0.5396160000000 1.0
C      1  0.5272080000000  0.5705890000000  0.5426150000000 1.0
C      1  0.5405910000000  0.5675610000000  0.5163050000000 1.0
C      1  0.5268560000000  0.5660820000000  0.4822370000000 1.0
C      1  0.5322610000000  0.4908330000000  0.5796020000000 1.0
C      1  0.5814110000000  0.5061650000000  0.5175700000000 1.0
C      1  0.5659060000000  0.4925180000000  0.4518800000000 1.0
C      1  0.5016310000000  0.4985880000000  0.4145010000000 1.0
C      1  0.4336440000000  0.4893930000000  0.4355630000000 1.0
C      1  0.4244510000000  0.5031480000000  0.5124270000000 1.0
C      1  0.4624880000000  0.4897710000000  0.5690710000000 1.0
C      1  0.5313070000000  0.4586450000000  0.4529730000000 1.0
C      1  0.4832240000000  0.4539470000000  0.4398300000000 1.0
C      1  0.4450450000000  0.4588330000000  0.4713960000000 1.0
C      1  0.4501640000000  0.4591400000000  0.5233360000000 1.0
C      1  0.4928500000000  0.4537950000000  0.5581470000000 1.0
C      1  0.5434160000000  0.4585410000000  0.5462450000000 1.0
C      1  0.5564400000000  0.4599610000000  0.4988640000000 1.0
C      1  0.5592110000000  0.5310660000000  0.5603200000000 1.0
C      1  0.5751590000000  0.5464180000000  0.4913400000000 1.0
C      1  0.5455770000000  0.5289050000000  0.4282950000000 1.0
C      1  0.4759810000000  0.5392510000000  0.4277110000000 1.0
C      1  0.4177320000000  0.5264950000000  0.4651450000000 1.0
C      1  0.4411180000000  0.5427380000000  0.5331970000000 1.0
C      1  0.4902290000000  0.5320780000000  0.5867650000000 1.0
C      1  0.5291700000000  0.4763540000000  0.4978070000000 1.0
C      1  0.5143140000000  0.4808100000000  0.4693600000000 1.0
C      1  0.4863500000000  0.4768770000000  0.4586080000000 1.0
C      1  0.4673410000000  0.4802200000000  0.4795420000000 1.0
C      1  0.4757240000000  0.4876400000000  0.5266880000000 1.0
C      1  0.4989770000000  0.4800050000000  0.5445390000000 1.0
C      1  0.5263820000000  0.4782530000000  0.5291850000000 1.0
C      1  0.4119160000000  0.5005290000000  0.4524360000000 1.0
C      1  0.4290220000000  0.5163180000000  0.5384300000000 1.0
C      1  0.4824470000000  0.5030080000000  0.5873480000000 1.0
C      1  0.5582430000000  0.5050800000000  0.5754650000000 1.0
C      1  0.5877750000000  0.5190560000000  0.4913320000000 1.0
C      1  0.5576140000000  0.5029220000000  0.4260860000000 1.0
C      1  0.4740020000000  0.5130080000000  0.4148190000000 1.0
C      1  0.4982800000000  0.5335490000000  0.5012850000000 1.0
C      1  0.4925370000000  0.4450850000000  0.5067720000000 1.0
C      1  0.4923270000000  0.5624390000000  0.5096230000000 1.0
C      1  0.4855870000000  0.4742590000000  0.5027450000000 1.0
END
