TITL C-3577086-586-650 -1.63410742338162e-07 125000 -1061.43631574543 0 0 168 (C1) n - 1
REM
REM in /home/bkarasulu/work/CARBON/AIRSS/Generating-Clusters/EDIP-Nigel-Params/with-SteepDescent/Higher-Symm/SD-CG/HFTN-CG
REM
REM
REM
REM
REM
REM ./C.cell (12c818d87b63d06a65506943cc24bca4)
REM
REM compiler GCC version 9.2.1 20190827 (Red Hat 9.2.1-1)
REM options -cpp -mtune=generic -march=x86-64 -g -O0 -fpre-include=/usr/include/finclude/math-vector-fortran.h
REM seed -180557044 -406840938 -396026724 946245541 1225120396 -358662660 1291598463 -1009967711 495546878 -661852917 -2095175129 1423744731 -1457902580 -2108250534 -1810952543 317580324 -1260695337 -1713856121 5290438 -205811528 -246273102 -1067000948 1759001887 -1183254910 -686119492 -1098539173 -407199753 116435541 -1486580880 1149481162 -1594292234 -799132836 -111355343
REM
CELL 1.54180   50.00000   50.00000   50.00000   90.00000   90.00000   90.00000
LATT -1
SFAC C  
C      1  0.5202890000000  0.5822660000000  0.5642150000000 1.0
C      1  0.4061470000000  0.5415900000000  0.4755360000000 1.0
C      1  0.5174610000000  0.4284870000000  0.5894590000000 1.0
C      1  0.3965740000000  0.4800090000000  0.4592220000000 1.0
C      1  0.4137350000000  0.5564510000000  0.5226420000000 1.0
C      1  0.4391310000000  0.5400450000000  0.5222430000000 1.0
C      1  0.5374680000000  0.5901140000000  0.5414330000000 1.0
C      1  0.5895020000000  0.4580930000000  0.5430380000000 1.0
C      1  0.5455820000000  0.5935350000000  0.4648250000000 1.0
C      1  0.3926520000000  0.5421360000000  0.5343620000000 1.0
C      1  0.5015080000000  0.5965170000000  0.5053550000000 1.0
C      1  0.5984580000000  0.4766180000000  0.4691680000000 1.0
C      1  0.4860160000000  0.4721470000000  0.4292560000000 1.0
C      1  0.4475030000000  0.4283230000000  0.4671800000000 1.0
C      1  0.5764460000000  0.4275800000000  0.5385160000000 1.0
C      1  0.4867390000000  0.4020760000000  0.4805210000000 1.0
C      1  0.5343340000000  0.4896050000000  0.4997950000000 1.0
C      1  0.4960060000000  0.5197100000000  0.5054260000000 1.0
C      1  0.5305580000000  0.5621190000000  0.5839130000000 1.0
C      1  0.4720600000000  0.4440080000000  0.6052150000000 1.0
C      1  0.5319900000000  0.4821100000000  0.5786840000000 1.0
C      1  0.5745180000000  0.4988380000000  0.4212280000000 1.0
C      1  0.4241140000000  0.5425600000000  0.4522060000000 1.0
C      1  0.5206580000000  0.5128860000000  0.4888880000000 1.0
C      1  0.5212790000000  0.4650280000000  0.4033420000000 1.0
C      1  0.5112330000000  0.4345470000000  0.4483820000000 1.0
C      1  0.4549540000000  0.4115490000000  0.5677120000000 1.0
C      1  0.5302220000000  0.4104280000000  0.4484620000000 1.0
C      1  0.5877550000000  0.4585660000000  0.4473770000000 1.0
C      1  0.4546030000000  0.4631950000000  0.5180770000000 1.0
C      1  0.3946360000000  0.5172630000000  0.5472160000000 1.0
C      1  0.4790200000000  0.4959430000000  0.4458170000000 1.0
C      1  0.4944710000000  0.4587220000000  0.3880880000000 1.0
C      1  0.5999190000000  0.4741150000000  0.5189810000000 1.0
C      1  0.4899460000000  0.4482160000000  0.5520410000000 1.0
C      1  0.4692100000000  0.5633700000000  0.4096720000000 1.0
C      1  0.4466490000000  0.5180070000000  0.4145320000000 1.0
C      1  0.3886250000000  0.4959880000000  0.4836230000000 1.0
C      1  0.5599480000000  0.5198150000000  0.5825690000000 1.0
C      1  0.5779310000000  0.4712660000000  0.4246230000000 1.0
C      1  0.5020450000000  0.5586790000000  0.4748080000000 1.0
C      1  0.5412110000000  0.4366700000000  0.5734680000000 1.0
C      1  0.5767680000000  0.5396400000000  0.4954260000000 1.0
C      1  0.5391320000000  0.5039620000000  0.5982350000000 1.0
C      1  0.4397880000000  0.5725230000000  0.4828440000000 1.0
C      1  0.5633630000000  0.4937510000000  0.5039520000000 1.0
C      1  0.4990130000000  0.4501980000000  0.5999380000000 1.0
C      1  0.4167030000000  0.4861610000000  0.5774600000000 1.0
C      1  0.4589990000000  0.5384560000000  0.3997780000000 1.0
C      1  0.4271540000000  0.5097890000000  0.5128600000000 1.0
C      1  0.4851040000000  0.4243070000000  0.4389950000000 1.0
C      1  0.5574580000000  0.4173250000000  0.4496460000000 1.0
C      1  0.4955760000000  0.5140090000000  0.5421510000000 1.0
C      1  0.4773540000000  0.5957090000000  0.4438750000000 1.0
C      1  0.4120670000000  0.5652730000000  0.4941270000000 1.0
C      1  0.4736380000000  0.4473180000000  0.5002460000000 1.0
C      1  0.4430350000000  0.4366640000000  0.5676210000000 1.0
C      1  0.5643590000000  0.5226460000000  0.5163740000000 1.0
C      1  0.4172280000000  0.4746040000000  0.5504620000000 1.0
C      1  0.5158330000000  0.5204480000000  0.6056540000000 1.0
C      1  0.5571790000000  0.5493190000000  0.5771650000000 1.0
C      1  0.5598200000000  0.4575810000000  0.5175580000000 1.0
C      1  0.5340480000000  0.4682630000000  0.4782700000000 1.0
C      1  0.5630280000000  0.5518560000000  0.5478630000000 1.0
C      1  0.4163290000000  0.5151580000000  0.5686300000000 1.0
C      1  0.4755890000000  0.4392940000000  0.3968400000000 1.0
C      1  0.5775630000000  0.5050230000000  0.5629380000000 1.0
C      1  0.4823850000000  0.5444010000000  0.4567080000000 1.0
C      1  0.5146900000000  0.4628790000000  0.4334590000000 1.0
C      1  0.5739050000000  0.4964550000000  0.4755130000000 1.0
C      1  0.4666760000000  0.5675030000000  0.4397700000000 1.0
C      1  0.4433450000000  0.4765600000000  0.4749030000000 1.0
C      1  0.4424930000000  0.4477970000000  0.4341480000000 1.0
C      1  0.4554640000000  0.5502320000000  0.4970500000000 1.0
C      1  0.5285610000000  0.4809860000000  0.4531320000000 1.0
C      1  0.5176670000000  0.4443210000000  0.4816710000000 1.0
C      1  0.5575370000000  0.5171070000000  0.4568340000000 1.0
C      1  0.5742370000000  0.4753880000000  0.5612710000000 1.0
C      1  0.5113540000000  0.4433120000000  0.5293120000000 1.0
C      1  0.5025400000000  0.5069810000000  0.3926450000000 1.0
C      1  0.5499670000000  0.5924170000000  0.4950560000000 1.0
C      1  0.5259890000000  0.3956650000000  0.5555220000000 1.0
C      1  0.4612130000000  0.5422080000000  0.5609350000000 1.0
C      1  0.5356830000000  0.4599890000000  0.5368370000000 1.0
C      1  0.4705320000000  0.5285570000000  0.6063090000000 1.0
C      1  0.4504100000000  0.4995860000000  0.4548400000000 1.0
C      1  0.5864330000000  0.5218060000000  0.5387080000000 1.0
C      1  0.4682050000000  0.5854370000000  0.5425690000000 1.0
C      1  0.4694640000000  0.4094700000000  0.4580350000000 1.0
C      1  0.4816810000000  0.4173530000000  0.5573240000000 1.0
C      1  0.4889930000000  0.5071750000000  0.6037690000000 1.0
C      1  0.4914630000000  0.5505860000000  0.5006800000000 1.0
C      1  0.4944950000000  0.5284040000000  0.4111360000000 1.0
C      1  0.5070330000000  0.5600720000000  0.5293110000000 1.0
C      1  0.5653290000000  0.5809450000000  0.5399860000000 1.0
C      1  0.5489940000000  0.5388940000000  0.4131410000000 1.0
C      1  0.4555720000000  0.5961280000000  0.4920410000000 1.0
C      1  0.4158210000000  0.4928370000000  0.4381670000000 1.0
C      1  0.4821390000000  0.4033070000000  0.5307160000000 1.0
C      1  0.4063310000000  0.4943470000000  0.5303470000000 1.0
C      1  0.4596310000000  0.4895380000000  0.5662010000000 1.0
C      1  0.5185990000000  0.4000990000000  0.4753760000000 1.0
C      1  0.4495860000000  0.4901940000000  0.5024850000000 1.0
C      1  0.5725960000000  0.4219020000000  0.5100530000000 1.0
C      1  0.4744540000000  0.5893370000000  0.5140700000000 1.0
C      1  0.4448890000000  0.5160760000000  0.5583140000000 1.0
C      1  0.4665480000000  0.4667660000000  0.5451060000000 1.0
C      1  0.6000570000000  0.4597820000000  0.4934030000000 1.0
C      1  0.5350510000000  0.5417710000000  0.5341670000000 1.0
C      1  0.4814790000000  0.4856190000000  0.3930340000000 1.0
C      1  0.5060020000000  0.5981780000000  0.4341420000000 1.0
C      1  0.4475420000000  0.5657750000000  0.5491820000000 1.0
C      1  0.5913870000000  0.5160400000000  0.4373410000000 1.0
C      1  0.4525480000000  0.4905560000000  0.4068870000000 1.0
C      1  0.5255090000000  0.5105690000000  0.4583880000000 1.0
C      1  0.6080820000000  0.5102690000000  0.4859020000000 1.0
C      1  0.4713510000000  0.6077200000000  0.4700990000000 1.0
C      1  0.4723640000000  0.5077490000000  0.4925190000000 1.0
C      1  0.4916080000000  0.5795260000000  0.5590170000000 1.0
C      1  0.3905050000000  0.4791640000000  0.5088530000000 1.0
C      1  0.4340020000000  0.4736010000000  0.4231550000000 1.0
C      1  0.4473510000000  0.4503490000000  0.5931060000000 1.0
C      1  0.5846180000000  0.4358900000000  0.4882910000000 1.0
C      1  0.5285440000000  0.5951300000000  0.5145290000000 1.0
C      1  0.5253010000000  0.4852150000000  0.5275250000000 1.0
C      1  0.5603230000000  0.5773510000000  0.4439000000000 1.0
C      1  0.4065370000000  0.4555580000000  0.4998840000000 1.0
C      1  0.5156830000000  0.5728660000000  0.4230030000000 1.0
C      1  0.5110080000000  0.5393320000000  0.5825230000000 1.0
C      1  0.5760290000000  0.4353000000000  0.4604740000000 1.0
C      1  0.4293260000000  0.4430010000000  0.5162930000000 1.0
C      1  0.4401200000000  0.4183000000000  0.4985310000000 1.0
C      1  0.5621440000000  0.5423840000000  0.4710160000000 1.0
C      1  0.5045760000000  0.4064950000000  0.5744970000000 1.0
C      1  0.4158620000000  0.4624460000000  0.4728130000000 1.0
C      1  0.5793760000000  0.5583210000000  0.4548090000000 1.0
C      1  0.5434320000000  0.5649380000000  0.4226830000000 1.0
C      1  0.5286180000000  0.4945450000000  0.3986520000000 1.0
C      1  0.4600220000000  0.5285370000000  0.4741320000000 1.0
C      1  0.4103050000000  0.5151710000000  0.4880260000000 1.0
C      1  0.5320880000000  0.4198370000000  0.4930860000000 1.0
C      1  0.5008670000000  0.4538680000000  0.5038090000000 1.0
C      1  0.4984370000000  0.5586460000000  0.4049450000000 1.0
C      1  0.6042540000000  0.5036960000000  0.5174730000000 1.0
C      1  0.5035950000000  0.5888550000000  0.4770090000000 1.0
C      1  0.4395980000000  0.5671000000000  0.4524360000000 1.0
C      1  0.5898570000000  0.5632230000000  0.5032580000000 1.0
C      1  0.4227890000000  0.5221530000000  0.4308590000000 1.0
C      1  0.4792540000000  0.5460100000000  0.5856670000000 1.0
C      1  0.4713800000000  0.4152680000000  0.5043450000000 1.0
C      1  0.5217280000000  0.5229350000000  0.5542150000000 1.0
C      1  0.4706600000000  0.4453330000000  0.4247200000000 1.0
C      1  0.5490450000000  0.5106980000000  0.4138780000000 1.0
C      1  0.5244840000000  0.6101340000000  0.4536230000000 1.0
C      1  0.6026130000000  0.5281660000000  0.4613670000000 1.0
C      1  0.4427870000000  0.4792630000000  0.5903890000000 1.0
C      1  0.5530880000000  0.4627500000000  0.5771260000000 1.0
C      1  0.5527080000000  0.4167820000000  0.5559060000000 1.0
C      1  0.4876080000000  0.4953290000000  0.5758880000000 1.0
C      1  0.5735780000000  0.5843580000000  0.5114900000000 1.0
C      1  0.5093220000000  0.3929130000000  0.5284510000000 1.0
C      1  0.4626530000000  0.4539410000000  0.4730820000000 1.0
C      1  0.5260720000000  0.4172180000000  0.5226370000000 1.0
C      1  0.5034090000000  0.4688580000000  0.5767990000000 1.0
C      1  0.4826280000000  0.5397440000000  0.5421680000000 1.0
C      1  0.5362500000000  0.4969370000000  0.5527080000000 1.0
C      1  0.4962650000000  0.5207160000000  0.4417110000000 1.0
C      1  0.4241820000000  0.4463360000000  0.5467050000000 1.0
END
