TITL C-3578204-4308-685 -2.64450721582123e-06 125000 -883.285665389336 0 0 142 (C1) n - 1
REM
REM in /home/bkarasulu/work/CARBON/AIRSS/Generating-Clusters/EDIP-Nigel-Params/with-SteepDescent/Higher-Symm/SD-CG/HFTN-CG
REM
REM
REM
REM
REM
REM ./C.cell (12c818d87b63d06a65506943cc24bca4)
REM
REM compiler GCC version 9.2.1 20190827 (Red Hat 9.2.1-1)
REM options -cpp -mtune=generic -march=x86-64 -g -O0 -fpre-include=/usr/include/finclude/math-vector-fortran.h
REM seed 53226446 -882101528 1368658182 -1357539584 766127197 504101739 -492442390 -490574399 1467377338 34344272 1755501966 1173212482 -961884576 1573799771 1093097748 -2047218032 -1968488005 1963488570 2011175552 1020770443 -1164339388 1635116979 1472316221 1180468221 -1125950834 -601652184 102821226 588417610 693255115 1748350270 -8836966 675306650 853388744
REM
CELL 1.54180   50.00000   50.00000   50.00000   90.00000   90.00000   90.00000
LATT -1
SFAC C  
C      1  0.5427660000000  0.4090110000000  0.5339310000000 1.0
C      1  0.5356640000000  0.5858950000000  0.5413680000000 1.0
C      1  0.4250320000000  0.4610430000000  0.5591750000000 1.0
C      1  0.4153140000000  0.5563470000000  0.5615580000000 1.0
C      1  0.4194550000000  0.5448110000000  0.4874510000000 1.0
C      1  0.4214550000000  0.4565870000000  0.4909480000000 1.0
C      1  0.4557840000000  0.5433160000000  0.5172060000000 1.0
C      1  0.4615010000000  0.4602060000000  0.5154390000000 1.0
C      1  0.5368920000000  0.4146800000000  0.4555720000000 1.0
C      1  0.5356870000000  0.5864850000000  0.4603850000000 1.0
C      1  0.5340150000000  0.5323190000000  0.4209030000000 1.0
C      1  0.5328800000000  0.4684010000000  0.4157890000000 1.0
C      1  0.5038110000000  0.5696120000000  0.4307670000000 1.0
C      1  0.5030080000000  0.4310770000000  0.4288000000000 1.0
C      1  0.4886110000000  0.4130700000000  0.4734380000000 1.0
C      1  0.4874250000000  0.5872160000000  0.4743480000000 1.0
C      1  0.5841260000000  0.4496950000000  0.5216170000000 1.0
C      1  0.5746160000000  0.5443930000000  0.5243510000000 1.0
C      1  0.4619900000000  0.4251070000000  0.4706470000000 1.0
C      1  0.4617800000000  0.5741930000000  0.4702130000000 1.0
C      1  0.4789840000000  0.4515860000000  0.4926400000000 1.0
C      1  0.4769170000000  0.5503620000000  0.4961290000000 1.0
C      1  0.4930350000000  0.4039480000000  0.5266300000000 1.0
C      1  0.4883220000000  0.6028190000000  0.5255890000000 1.0
C      1  0.5692580000000  0.4727440000000  0.5740380000000 1.0
C      1  0.5638410000000  0.5216370000000  0.5687900000000 1.0
C      1  0.5561630000000  0.4570780000000  0.4308210000000 1.0
C      1  0.5556800000000  0.5451790000000  0.4359820000000 1.0
C      1  0.3948870000000  0.5541910000000  0.5013870000000 1.0
C      1  0.3983560000000  0.4488210000000  0.5083290000000 1.0
C      1  0.4639810000000  0.5200150000000  0.4493630000000 1.0
C      1  0.4674510000000  0.4748070000000  0.4479330000000 1.0
C      1  0.4846130000000  0.5392780000000  0.4020070000000 1.0
C      1  0.4837940000000  0.4587000000000  0.3984290000000 1.0
C      1  0.5126080000000  0.4458860000000  0.5348680000000 1.0
C      1  0.5070750000000  0.5522420000000  0.5379410000000 1.0
C      1  0.5107750000000  0.5997370000000  0.5427380000000 1.0
C      1  0.5162280000000  0.4083600000000  0.5449900000000 1.0
C      1  0.4009360000000  0.4515990000000  0.5464020000000 1.0
C      1  0.4010540000000  0.5638730000000  0.5380520000000 1.0
C      1  0.4946010000000  0.5383530000000  0.5818380000000 1.0
C      1  0.5028220000000  0.4649260000000  0.5782260000000 1.0
C      1  0.5472410000000  0.4723380000000  0.5944250000000 1.0
C      1  0.5441410000000  0.5233360000000  0.5901850000000 1.0
C      1  0.5391930000000  0.4623160000000  0.4841900000000 1.0
C      1  0.5337440000000  0.5418140000000  0.4923420000000 1.0
C      1  0.5764450000000  0.4402220000000  0.4747240000000 1.0
C      1  0.5731560000000  0.5584940000000  0.4802110000000 1.0
C      1  0.5429910000000  0.5623730000000  0.5610930000000 1.0
C      1  0.5418540000000  0.4334370000000  0.5636790000000 1.0
C      1  0.5299040000000  0.5312070000000  0.5420780000000 1.0
C      1  0.5359400000000  0.4674060000000  0.5365910000000 1.0
C      1  0.4459800000000  0.4616100000000  0.4303280000000 1.0
C      1  0.4452880000000  0.5347690000000  0.4312560000000 1.0
C      1  0.4097170000000  0.5250300000000  0.4644270000000 1.0
C      1  0.4120580000000  0.4740600000000  0.4673490000000 1.0
C      1  0.4898270000000  0.4557840000000  0.5532510000000 1.0
C      1  0.4836200000000  0.5486530000000  0.5560690000000 1.0
C      1  0.5715340000000  0.5696120000000  0.5083180000000 1.0
C      1  0.5747800000000  0.4290040000000  0.5019980000000 1.0
C      1  0.5087730000000  0.4188900000000  0.4527090000000 1.0
C      1  0.5082130000000  0.5823260000000  0.4547980000000 1.0
C      1  0.4659730000000  0.5734920000000  0.5583480000000 1.0
C      1  0.4697200000000  0.4340150000000  0.5580570000000 1.0
C      1  0.4352340000000  0.5258840000000  0.5058730000000 1.0
C      1  0.4388410000000  0.4760420000000  0.5058530000000 1.0
C      1  0.4099150000000  0.5312520000000  0.5719170000000 1.0
C      1  0.4255290000000  0.4859540000000  0.5747920000000 1.0
C      1  0.5049260000000  0.4396600000000  0.5048100000000 1.0
C      1  0.5003070000000  0.5645530000000  0.5103560000000 1.0
C      1  0.5793020000000  0.5275520000000  0.4358420000000 1.0
C      1  0.5731070000000  0.4802110000000  0.4398420000000 1.0
C      1  0.3837540000000  0.5462210000000  0.5255280000000 1.0
C      1  0.3847820000000  0.4641200000000  0.5272840000000 1.0
C      1  0.5484990000000  0.4185700000000  0.5072320000000 1.0
C      1  0.5456720000000  0.5835730000000  0.5129160000000 1.0
C      1  0.4386100000000  0.5708300000000  0.4873940000000 1.0
C      1  0.4401980000000  0.4308910000000  0.4894290000000 1.0
C      1  0.4444530000000  0.4425160000000  0.5656510000000 1.0
C      1  0.4397830000000  0.5682520000000  0.5667620000000 1.0
C      1  0.5560880000000  0.4366290000000  0.4529530000000 1.0
C      1  0.5532380000000  0.5634120000000  0.4590880000000 1.0
C      1  0.5995590000000  0.4752670000000  0.4518260000000 1.0
C      1  0.6005910000000  0.5274320000000  0.4552260000000 1.0
C      1  0.4696020000000  0.4203350000000  0.5326790000000 1.0
C      1  0.4664240000000  0.5840280000000  0.5310290000000 1.0
C      1  0.4986930000000  0.4017360000000  0.4983120000000 1.0
C      1  0.4959210000000  0.6014550000000  0.4979500000000 1.0
C      1  0.5477700000000  0.5309950000000  0.5172330000000 1.0
C      1  0.5529290000000  0.4707150000000  0.5113840000000 1.0
C      1  0.4858320000000  0.5256280000000  0.4815590000000 1.0
C      1  0.4832140000000  0.4755030000000  0.4754420000000 1.0
C      1  0.4424370000000  0.5798210000000  0.5150660000000 1.0
C      1  0.4459630000000  0.4242940000000  0.5170130000000 1.0
C      1  0.5687980000000  0.5468370000000  0.5547000000000 1.0
C      1  0.5607400000000  0.4545450000000  0.5513100000000 1.0
C      1  0.5964840000000  0.4719470000000  0.5053290000000 1.0
C      1  0.5959370000000  0.5261080000000  0.5087140000000 1.0
C      1  0.4217210000000  0.5194170000000  0.4382520000000 1.0
C      1  0.4260140000000  0.4817600000000  0.4420890000000 1.0
C      1  0.5132340000000  0.4771420000000  0.4693280000000 1.0
C      1  0.5152730000000  0.5202210000000  0.4808520000000 1.0
C      1  0.5280450000000  0.4503050000000  0.5856240000000 1.0
C      1  0.5248600000000  0.5450140000000  0.5833910000000 1.0
C      1  0.4778090000000  0.4787080000000  0.5352970000000 1.0
C      1  0.4677570000000  0.5291580000000  0.5402010000000 1.0
C      1  0.5260380000000  0.5703310000000  0.4936450000000 1.0
C      1  0.5300270000000  0.4332520000000  0.4883530000000 1.0
C      1  0.5853560000000  0.5304130000000  0.4800380000000 1.0
C      1  0.5922270000000  0.4642950000000  0.4767160000000 1.0
C      1  0.4574910000000  0.5297240000000  0.4048160000000 1.0
C      1  0.4568850000000  0.4682500000000  0.4034670000000 1.0
C      1  0.5083760000000  0.5471710000000  0.4155830000000 1.0
C      1  0.5082750000000  0.4515680000000  0.4112190000000 1.0
C      1  0.4625750000000  0.4989240000000  0.4043820000000 1.0
C      1  0.4074380000000  0.5000620000000  0.5367230000000 1.0
C      1  0.5309230000000  0.4977840000000  0.5971440000000 1.0
C      1  0.5729460000000  0.5029640000000  0.4211810000000 1.0
C      1  0.5204850000000  0.4981430000000  0.5018810000000 1.0
C      1  0.5541630000000  0.4897180000000  0.4615840000000 1.0
C      1  0.5086120000000  0.4985280000000  0.3990580000000 1.0
C      1  0.4573550000000  0.5014520000000  0.5446240000000 1.0
C      1  0.4715050000000  0.5002340000000  0.4883620000000 1.0
C      1  0.5535170000000  0.5020340000000  0.5080090000000 1.0
C      1  0.5024110000000  0.4942700000000  0.5259100000000 1.0
C      1  0.4843540000000  0.4995420000000  0.3851240000000 1.0
C      1  0.5087930000000  0.4940580000000  0.5775040000000 1.0
C      1  0.4055130000000  0.5048440000000  0.5643200000000 1.0
C      1  0.5048160000000  0.5000230000000  0.4284980000000 1.0
C      1  0.5450940000000  0.5049630000000  0.4110900000000 1.0
C      1  0.4856020000000  0.5106580000000  0.5857780000000 1.0
C      1  0.4463860000000  0.5016970000000  0.4706020000000 1.0
C      1  0.5656350000000  0.5075870000000  0.4817010000000 1.0
C      1  0.5992910000000  0.4975550000000  0.5464670000000 1.0
C      1  0.5203200000000  0.5008710000000  0.5485130000000 1.0
C      1  0.5244640000000  0.5031300000000  0.4530940000000 1.0
C      1  0.4081640000000  0.5000760000000  0.4786940000000 1.0
C      1  0.5813760000000  0.4987400000000  0.5674520000000 1.0
C      1  0.5965750000000  0.4984270000000  0.5190150000000 1.0
C      1  0.4520640000000  0.4990450000000  0.5739500000000 1.0
C      1  0.4758630000000  0.4987030000000  0.4324450000000 1.0
C      1  0.4329330000000  0.5004910000000  0.5229940000000 1.0
END
