TITL C-3578194-7807-742 -3.19925201498495e-07 125000 -38.4868986822359 0 0 8 (D(inf)h) n - 1
REM
REM in /home/bkarasulu/work/CARBON/AIRSS/Generating-Clusters/EDIP-Nigel-Params/with-SteepDescent/Higher-Symm/SD-CG/HFTN-CG
REM
REM
REM
REM
REM
REM ./C.cell (12c818d87b63d06a65506943cc24bca4)
REM
REM compiler GCC version 9.2.1 20190827 (Red Hat 9.2.1-1)
REM options -cpp -mtune=generic -march=x86-64 -g -O0 -fpre-include=/usr/include/finclude/math-vector-fortran.h
REM seed 1649730513 750737334 -336355586 -2057452946 24471052 -456006641 680426034 -1298150478 1175269812 299441039 888383084 -430238024 563266186 1838500048 -408077112 -859005432 1229850519 2002692194 -454171202 1159201888 1048282414 248230374 -411054928 108502771 2128097059 -808389710 -215908956 -1795897244 -1411624676 -1613870094 814503810 1054402634 672049354
REM
CELL 1.54180   50.00000   50.00000   50.00000   90.00000   90.00000   90.00000
LATT -1
SFAC C  
C      1  0.4868070000000  0.5004410000000  0.4997600000000 1.0
C      1  0.5131930000000  0.5004410000000  0.4997600000000 1.0
C      1  0.4604220000000  0.5004410000000  0.4997600000000 1.0
C      1  0.5659630000000  0.5004410000000  0.4997600000000 1.0
C      1  0.4084660000000  0.5004410000000  0.4997600000000 1.0
C      1  0.4340370000000  0.5004410000000  0.4997600000000 1.0
C      1  0.5395780000000  0.5004410000000  0.4997600000000 1.0
C      1  0.5915340000000  0.5004410000000  0.4997600000000 1.0
END
