TITL C-3577077-324-338 -2.48837945832686e-06 125000 -506.680222605551 0 0 81 (C1) n - 1
REM
REM in /home/bkarasulu/work/CARBON/AIRSS/Generating-Clusters/EDIP-Nigel-Params/with-SteepDescent/Higher-Symm/SD-CG/HFTN-CG
REM
REM
REM
REM
REM
REM ./C.cell (12c818d87b63d06a65506943cc24bca4)
REM
REM compiler GCC version 9.2.1 20190827 (Red Hat 9.2.1-1)
REM options -cpp -mtune=generic -march=x86-64 -g -O0 -fpre-include=/usr/include/finclude/math-vector-fortran.h
REM seed -1492697832 -2040159587 1689333284 1865002325 1277167559 1607481215 25359257 1894560147 690321666 -1448344074 434072902 -1408662195 171058670 -1732501954 -1059650207 -1094722897 -86399026 -222226037 -1898109469 1856097528 630815495 1159901750 -1742658010 1001652158 -1105594033 1655621401 561284430 782095056 -1448965485 1890989994 -790580952 -763752657 -1889792874
REM
CELL 1.54180   50.00000   50.00000   50.00000   90.00000   90.00000   90.00000
LATT -1
SFAC C  
C      1  0.5085590000000  0.4321220000000  0.5431990000000 1.0
C      1  0.5409320000000  0.4345890000000  0.5062600000000 1.0
C      1  0.5196840000000  0.4292130000000  0.4611370000000 1.0
C      1  0.4707810000000  0.4254550000000  0.4679550000000 1.0
C      1  0.4670870000000  0.4330560000000  0.5164480000000 1.0
C      1  0.5117150000000  0.5665330000000  0.5418740000000 1.0
C      1  0.5489750000000  0.5703980000000  0.5017160000000 1.0
C      1  0.5198300000000  0.5680360000000  0.4612510000000 1.0
C      1  0.4697620000000  0.5711350000000  0.4687200000000 1.0
C      1  0.4684540000000  0.5640520000000  0.5171030000000 1.0
C      1  0.4253750000000  0.5337210000000  0.5167110000000 1.0
C      1  0.4907250000000  0.5282190000000  0.5777750000000 1.0
C      1  0.5750690000000  0.5223340000000  0.5455570000000 1.0
C      1  0.5449350000000  0.5286530000000  0.4394530000000 1.0
C      1  0.4577670000000  0.5272330000000  0.4360930000000 1.0
C      1  0.4263470000000  0.4663550000000  0.5146710000000 1.0
C      1  0.4838400000000  0.4718200000000  0.5770890000000 1.0
C      1  0.5713110000000  0.4689690000000  0.5283420000000 1.0
C      1  0.5511530000000  0.4770690000000  0.4438900000000 1.0
C      1  0.4608840000000  0.4719170000000  0.4348000000000 1.0
C      1  0.4862260000000  0.4605280000000  0.4345250000000 1.0
C      1  0.4334570000000  0.4570980000000  0.4894840000000 1.0
C      1  0.4630800000000  0.4588960000000  0.5624900000000 1.0
C      1  0.5513930000000  0.4633660000000  0.5467620000000 1.0
C      1  0.5593780000000  0.4638600000000  0.4672410000000 1.0
C      1  0.4829650000000  0.5379470000000  0.4325970000000 1.0
C      1  0.4320450000000  0.5405760000000  0.4906510000000 1.0
C      1  0.4707650000000  0.5401640000000  0.5618000000000 1.0
C      1  0.5517120000000  0.5343690000000  0.5567900000000 1.0
C      1  0.5591190000000  0.5351070000000  0.4621600000000 1.0
C      1  0.4917310000000  0.5563950000000  0.4546710000000 1.0
C      1  0.4604230000000  0.5522370000000  0.4903640000000 1.0
C      1  0.4863290000000  0.5502320000000  0.5370350000000 1.0
C      1  0.5398880000000  0.5553840000000  0.5365350000000 1.0
C      1  0.5426900000000  0.5554870000000  0.4757780000000 1.0
C      1  0.4927060000000  0.4398070000000  0.4542020000000 1.0
C      1  0.4616040000000  0.4452520000000  0.4894520000000 1.0
C      1  0.4819870000000  0.4472030000000  0.5385410000000 1.0
C      1  0.5319860000000  0.4473110000000  0.5315720000000 1.0
C      1  0.5353170000000  0.4485590000000  0.4791830000000 1.0
C      1  0.5661070000000  0.5162370000000  0.5192800000000 1.0
C      1  0.5207210000000  0.5161840000000  0.4502430000000 1.0
C      1  0.4575540000000  0.5141060000000  0.4619750000000 1.0
C      1  0.4442320000000  0.5144060000000  0.5274650000000 1.0
C      1  0.5054960000000  0.5129780000000  0.5572630000000 1.0
C      1  0.5582250000000  0.4884540000000  0.5106660000000 1.0
C      1  0.5242030000000  0.4860310000000  0.4517510000000 1.0
C      1  0.4592330000000  0.4836210000000  0.4613920000000 1.0
C      1  0.4314220000000  0.4871590000000  0.5326580000000 1.0
C      1  0.4974120000000  0.4856830000000  0.5561710000000 1.0
C      1  0.5432700000000  0.5339440000000  0.5134340000000 1.0
C      1  0.5074980000000  0.5289370000000  0.4778190000000 1.0
C      1  0.4756340000000  0.5262790000000  0.4841940000000 1.0
C      1  0.4721840000000  0.5117700000000  0.5118960000000 1.0
C      1  0.4963640000000  0.5232420000000  0.5273880000000 1.0
C      1  0.5250090000000  0.4881930000000  0.5067800000000 1.0
C      1  0.5155440000000  0.4730900000000  0.4805440000000 1.0
C      1  0.4794070000000  0.4705280000000  0.4832830000000 1.0
C      1  0.4783810000000  0.4840000000000  0.5092380000000 1.0
C      1  0.4971410000000  0.4731090000000  0.5289340000000 1.0
C      1  0.5451120000000  0.4855110000000  0.5628770000000 1.0
C      1  0.5697530000000  0.4862540000000  0.4836180000000 1.0
C      1  0.5064840000000  0.4792940000000  0.4291350000000 1.0
C      1  0.4317180000000  0.4789310000000  0.4710740000000 1.0
C      1  0.4446250000000  0.4814940000000  0.5576630000000 1.0
C      1  0.5343300000000  0.5116610000000  0.5634710000000 1.0
C      1  0.5719410000000  0.5121680000000  0.4723180000000 1.0
C      1  0.5016970000000  0.5173580000000  0.4278200000000 1.0
C      1  0.4304070000000  0.5174090000000  0.4731670000000 1.0
C      1  0.4507590000000  0.5198770000000  0.5557420000000 1.0
C      1  0.5141750000000  0.4047620000000  0.4778080000000 1.0
C      1  0.4840230000000  0.4026160000000  0.4825810000000 1.0
C      1  0.4795190000000  0.4066700000000  0.5123640000000 1.0
C      1  0.5062520000000  0.4069560000000  0.5265480000000 1.0
C      1  0.5273370000000  0.4081070000000  0.5048580000000 1.0
C      1  0.5131910000000  0.5925510000000  0.4768520000000 1.0
C      1  0.4834370000000  0.5941240000000  0.4824440000000 1.0
C      1  0.4805950000000  0.5904660000000  0.5123030000000 1.0
C      1  0.5080910000000  0.5908180000000  0.5249990000000 1.0
C      1  0.5284350000000  0.5924400000000  0.5027270000000 1.0
C      1  0.5184900000000  0.5188360000000  0.5058770000000 1.0
END
