TITL C-3577085-527-140 1.85859642833813e-07 125000 -921.858772186592 0 0 149 (C1) n - 1
REM
REM in /home/bkarasulu/work/CARBON/AIRSS/Generating-Clusters/EDIP-Nigel-Params/with-SteepDescent/Higher-Symm/SD-CG/HFTN-CG
REM
REM
REM
REM
REM
REM ./C.cell (12c818d87b63d06a65506943cc24bca4)
REM
REM compiler GCC version 9.2.1 20190827 (Red Hat 9.2.1-1)
REM options -cpp -mtune=generic -march=x86-64 -g -O0 -fpre-include=/usr/include/finclude/math-vector-fortran.h
REM seed 295683631 -587854236 -1504942149 -1151299469 -450383565 2001099622 1827550471 -809415811 147900808 -1176388647 149618900 672804914 -180062798 1845595454 1118638815 578433955 1963838848 -337411387 1498471522 -232323152 -1676573655 1385805817 -525142055 868554236 -488004132 -179085900 1307875347 -1268601941 2134309538 -12417395 -345803997 1938869413 -1394269942
REM
CELL 1.54180   50.00000   50.00000   50.00000   90.00000   90.00000   90.00000
LATT -1
SFAC C  
C      1  0.4385350000000  0.5690780000000  0.5396890000000 1.0
C      1  0.4387930000000  0.4322150000000  0.5368880000000 1.0
C      1  0.5724930000000  0.4221010000000  0.5568350000000 1.0
C      1  0.5711030000000  0.5752200000000  0.5553670000000 1.0
C      1  0.5073210000000  0.4090540000000  0.5604700000000 1.0
C      1  0.5103440000000  0.5905650000000  0.5623690000000 1.0
C      1  0.4306640000000  0.4562880000000  0.5176620000000 1.0
C      1  0.4299720000000  0.5453850000000  0.5211670000000 1.0
C      1  0.5947250000000  0.5149840000000  0.4726720000000 1.0
C      1  0.5948030000000  0.4849960000000  0.4727650000000 1.0
C      1  0.5672780000000  0.4736350000000  0.4765500000000 1.0
C      1  0.5670390000000  0.5260360000000  0.4759950000000 1.0
C      1  0.5272300000000  0.5295460000000  0.5061130000000 1.0
C      1  0.5272670000000  0.4712210000000  0.5045870000000 1.0
C      1  0.4253740000000  0.5636020000000  0.4881870000000 1.0
C      1  0.4296540000000  0.4416600000000  0.4892530000000 1.0
C      1  0.5012990000000  0.4699600000000  0.4169980000000 1.0
C      1  0.5023490000000  0.5288330000000  0.4153110000000 1.0
C      1  0.4690760000000  0.4348270000000  0.4176250000000 1.0
C      1  0.4693980000000  0.5630760000000  0.4125430000000 1.0
C      1  0.4016030000000  0.5128770000000  0.5435310000000 1.0
C      1  0.3944980000000  0.4869080000000  0.5360730000000 1.0
C      1  0.4037430000000  0.5150200000000  0.4750730000000 1.0
C      1  0.4130860000000  0.4892690000000  0.4787290000000 1.0
C      1  0.5224960000000  0.4033380000000  0.4658410000000 1.0
C      1  0.5202120000000  0.5960280000000  0.4661860000000 1.0
C      1  0.5761780000000  0.5287490000000  0.5717780000000 1.0
C      1  0.5733630000000  0.4708660000000  0.5701480000000 1.0
C      1  0.5858530000000  0.5150020000000  0.5479320000000 1.0
C      1  0.5860780000000  0.4855940000000  0.5480320000000 1.0
C      1  0.6074250000000  0.4847300000000  0.5017770000000 1.0
C      1  0.6073130000000  0.5155350000000  0.5016530000000 1.0
C      1  0.4624310000000  0.5448050000000  0.5731450000000 1.0
C      1  0.4626890000000  0.4537810000000  0.5742560000000 1.0
C      1  0.5407610000000  0.4086490000000  0.5196020000000 1.0
C      1  0.5406120000000  0.5913370000000  0.5191560000000 1.0
C      1  0.4540960000000  0.4878730000000  0.4157150000000 1.0
C      1  0.4532650000000  0.5160450000000  0.4069130000000 1.0
C      1  0.5869540000000  0.4732630000000  0.5206310000000 1.0
C      1  0.5867230000000  0.5271640000000  0.5203090000000 1.0
C      1  0.5256720000000  0.5273960000000  0.5889900000000 1.0
C      1  0.5282400000000  0.4753100000000  0.5827540000000 1.0
C      1  0.5413130000000  0.5779970000000  0.4567280000000 1.0
C      1  0.5431690000000  0.4215980000000  0.4573010000000 1.0
C      1  0.4818370000000  0.5268890000000  0.5275290000000 1.0
C      1  0.4832660000000  0.4739830000000  0.5279470000000 1.0
C      1  0.4603190000000  0.5302360000000  0.4939530000000 1.0
C      1  0.4682800000000  0.4869530000000  0.4889620000000 1.0
C      1  0.5048150000000  0.5545130000000  0.4654450000000 1.0
C      1  0.5060750000000  0.4443930000000  0.4662980000000 1.0
C      1  0.5561980000000  0.5751030000000  0.4807790000000 1.0
C      1  0.5575650000000  0.4247900000000  0.4816540000000 1.0
C      1  0.5131830000000  0.5647910000000  0.5284630000000 1.0
C      1  0.5139670000000  0.4361630000000  0.5277810000000 1.0
C      1  0.5265380000000  0.6051170000000  0.4938970000000 1.0
C      1  0.5275780000000  0.3946290000000  0.4937650000000 1.0
C      1  0.4919360000000  0.5723240000000  0.4298950000000 1.0
C      1  0.4947830000000  0.4231810000000  0.4291780000000 1.0
C      1  0.4647960000000  0.4346770000000  0.5518600000000 1.0
C      1  0.4654180000000  0.5655320000000  0.5528940000000 1.0
C      1  0.4253850000000  0.4316980000000  0.4406390000000 1.0
C      1  0.4301150000000  0.5736400000000  0.4412910000000 1.0
C      1  0.5805760000000  0.5558680000000  0.5125390000000 1.0
C      1  0.5810920000000  0.4442600000000  0.5139730000000 1.0
C      1  0.5549420000000  0.5150990000000  0.5014910000000 1.0
C      1  0.5550290000000  0.4849700000000  0.5016130000000 1.0
C      1  0.4526440000000  0.5212340000000  0.4661960000000 1.0
C      1  0.4641570000000  0.4753930000000  0.4617600000000 1.0
C      1  0.5262370000000  0.4637270000000  0.5329060000000 1.0
C      1  0.5268340000000  0.5376450000000  0.5346600000000 1.0
C      1  0.4754940000000  0.5352080000000  0.4019330000000 1.0
C      1  0.4728520000000  0.4646650000000  0.4080490000000 1.0
C      1  0.4305900000000  0.4763910000000  0.4573280000000 1.0
C      1  0.4235470000000  0.5278030000000  0.4572360000000 1.0
C      1  0.4448270000000  0.5905700000000  0.5222390000000 1.0
C      1  0.4451930000000  0.4089360000000  0.5213230000000 1.0
C      1  0.4021650000000  0.5342980000000  0.5232050000000 1.0
C      1  0.4020570000000  0.4660600000000  0.5195510000000 1.0
C      1  0.4222780000000  0.5160460000000  0.4290740000000 1.0
C      1  0.4279840000000  0.4871810000000  0.4291990000000 1.0
C      1  0.5011070000000  0.6149670000000  0.5332930000000 1.0
C      1  0.5011850000000  0.3835340000000  0.5315760000000 1.0
C      1  0.4941720000000  0.4845500000000  0.4441850000000 1.0
C      1  0.4971300000000  0.5143970000000  0.4416390000000 1.0
C      1  0.5022360000000  0.3831590000000  0.5027710000000 1.0
C      1  0.5010250000000  0.6150380000000  0.5044390000000 1.0
C      1  0.5229460000000  0.5611420000000  0.4932500000000 1.0
C      1  0.5237310000000  0.4386180000000  0.4931450000000 1.0
C      1  0.5746340000000  0.4456530000000  0.4857580000000 1.0
C      1  0.5739060000000  0.5544630000000  0.4843880000000 1.0
C      1  0.5003590000000  0.5161140000000  0.5061470000000 1.0
C      1  0.4975260000000  0.4874490000000  0.5004800000000 1.0
C      1  0.4508500000000  0.5561720000000  0.4327950000000 1.0
C      1  0.4535640000000  0.4319320000000  0.4417750000000 1.0
C      1  0.5455860000000  0.5160640000000  0.4532430000000 1.0
C      1  0.5446980000000  0.4829850000000  0.4542030000000 1.0
C      1  0.4829350000000  0.5586300000000  0.5288340000000 1.0
C      1  0.4836800000000  0.4418590000000  0.5283320000000 1.0
C      1  0.5669150000000  0.5121830000000  0.5920630000000 1.0
C      1  0.5565720000000  0.4867090000000  0.5880660000000 1.0
C      1  0.4532600000000  0.4828690000000  0.5170470000000 1.0
C      1  0.4497530000000  0.5167440000000  0.5247010000000 1.0
C      1  0.5589800000000  0.5398670000000  0.4262550000000 1.0
C      1  0.5592750000000  0.4598220000000  0.4272640000000 1.0
C      1  0.5234150000000  0.5142380000000  0.3995310000000 1.0
C      1  0.5228100000000  0.4849090000000  0.4009760000000 1.0
C      1  0.5140260000000  0.4432790000000  0.4229940000000 1.0
C      1  0.5137540000000  0.5557300000000  0.4219870000000 1.0
C      1  0.4571390000000  0.4353960000000  0.4860560000000 1.0
C      1  0.4541630000000  0.5599760000000  0.4875810000000 1.0
C      1  0.5381140000000  0.5564020000000  0.4369240000000 1.0
C      1  0.5389810000000  0.4425080000000  0.4372720000000 1.0
C      1  0.4360210000000  0.5369620000000  0.5701790000000 1.0
C      1  0.4370960000000  0.4661540000000  0.5733870000000 1.0
C      1  0.4691140000000  0.5456780000000  0.4542710000000 1.0
C      1  0.4708210000000  0.4455520000000  0.4629610000000 1.0
C      1  0.5510840000000  0.5182060000000  0.4096240000000 1.0
C      1  0.5506180000000  0.4809760000000  0.4105830000000 1.0
C      1  0.5248940000000  0.3959050000000  0.5420600000000 1.0
C      1  0.5261580000000  0.6043370000000  0.5425990000000 1.0
C      1  0.4169990000000  0.5576560000000  0.4609690000000 1.0
C      1  0.4181120000000  0.4488670000000  0.4617700000000 1.0
C      1  0.5013270000000  0.4852430000000  0.5963790000000 1.0
C      1  0.4997450000000  0.5152880000000  0.5945790000000 1.0
C      1  0.5671700000000  0.5775070000000  0.5279060000000 1.0
C      1  0.5670650000000  0.4227550000000  0.5293310000000 1.0
C      1  0.5374400000000  0.5539230000000  0.5861170000000 1.0
C      1  0.5353660000000  0.4457990000000  0.5823040000000 1.0
C      1  0.4850720000000  0.4739340000000  0.5715560000000 1.0
C      1  0.4820070000000  0.5219770000000  0.5708450000000 1.0
C      1  0.5164780000000  0.5253930000000  0.4604170000000 1.0
C      1  0.5154760000000  0.4743360000000  0.4620120000000 1.0
C      1  0.5154930000000  0.5168500000000  0.5534640000000 1.0
C      1  0.5182300000000  0.4840010000000  0.5535130000000 1.0
C      1  0.4941660000000  0.4082200000000  0.4595050000000 1.0
C      1  0.4913340000000  0.5911790000000  0.4630680000000 1.0
C      1  0.5602280000000  0.4449950000000  0.5671390000000 1.0
C      1  0.5627010000000  0.5542090000000  0.5716400000000 1.0
C      1  0.5216370000000  0.5763540000000  0.5829650000000 1.0
C      1  0.5172940000000  0.4253130000000  0.5799490000000 1.0
C      1  0.4803580000000  0.5996980000000  0.4900100000000 1.0
C      1  0.4818180000000  0.3984410000000  0.4880570000000 1.0
C      1  0.3926580000000  0.5274320000000  0.4976560000000 1.0
C      1  0.3962350000000  0.4719880000000  0.4929490000000 1.0
C      1  0.4421610000000  0.4902220000000  0.5594440000000 1.0
C      1  0.4246590000000  0.5131930000000  0.5613080000000 1.0
C      1  0.4668280000000  0.5784550000000  0.5068200000000 1.0
C      1  0.4684120000000  0.4192440000000  0.5063850000000 1.0
C      1  0.4709560000000  0.4963590000000  0.5572750000000 1.0
END
