TITL C-3577086-586-605 0.00109679904962427 125000 -110.634559866164 0 0 20 (Ci) n - 1
REM
REM in /home/bkarasulu/work/CARBON/AIRSS/Generating-Clusters/EDIP-Nigel-Params/with-SteepDescent/Higher-Symm/SD-CG/HFTN-CG
REM
REM
REM
REM
REM
REM ./C.cell (12c818d87b63d06a65506943cc24bca4)
REM
REM compiler GCC version 9.2.1 20190827 (Red Hat 9.2.1-1)
REM options -cpp -mtune=generic -march=x86-64 -g -O0 -fpre-include=/usr/include/finclude/math-vector-fortran.h
REM seed -2042760483 1318882321 157126948 -589138182 -679194929 1306315998 1037787255 1351305912 1988545749 -1005800984 675987121 -1015387793 222491569 634242926 184241240 -1410940845 -1939089573 949258278 -2124287199 -1378807605 1565123668 1925891823 368779296 730992675 1365899435 -609876967 561975983 -1871167154 -1127500625 -399520969 1265914067 1945285610 1291550406
REM
CELL 1.54180   50.00000   50.00000   50.00000   90.00000   90.00000   90.00000
LATT -1
SFAC C  
C      1  0.4439310000000  0.4977380000000  0.5415730000000 1.0
C      1  0.5559420000000  0.5019080000000  0.4582070000000 1.0
C      1  0.4208780000000  0.5496910000000  0.5000180000000 1.0
C      1  0.5792880000000  0.4505990000000  0.5003940000000 1.0
C      1  0.5759240000000  0.4630740000000  0.4743580000000 1.0
C      1  0.4241300000000  0.5368560000000  0.5258930000000 1.0
C      1  0.5493250000000  0.4768630000000  0.4712290000000 1.0
C      1  0.4506710000000  0.5229320000000  0.5289050000000 1.0
C      1  0.6111960000000  0.4862720000000  0.4894830000000 1.0
C      1  0.3888150000000  0.5139900000000  0.5103680000000 1.0
C      1  0.4609130000000  0.5060560000000  0.5079580000000 1.0
C      1  0.5390760000000  0.4939810000000  0.4919750000000 1.0
C      1  0.4875350000000  0.5025700000000  0.5035330000000 1.0
C      1  0.5124540000000  0.4974320000000  0.4964240000000 1.0
C      1  0.4016330000000  0.5316440000000  0.4931440000000 1.0
C      1  0.5984860000000  0.4688050000000  0.5069750000000 1.0
C      1  0.4167330000000  0.4931060000000  0.5448260000000 1.0
C      1  0.5831140000000  0.5065930000000  0.4548210000000 1.0
C      1  0.5959920000000  0.4842390000000  0.4658690000000 1.0
C      1  0.4039640000000  0.5156520000000  0.5340450000000 1.0
END
