TITL C-3577089-586-617 -9.49592661178883e-07 125000 -1036.39785117576 0 0 165 (C1) n - 1
REM
REM in /home/bkarasulu/work/CARBON/AIRSS/Generating-Clusters/EDIP-Nigel-Params/with-SteepDescent/Higher-Symm/SD-CG/HFTN-CG
REM
REM
REM
REM
REM
REM ./C.cell (12c818d87b63d06a65506943cc24bca4)
REM
REM compiler GCC version 9.2.1 20190827 (Red Hat 9.2.1-1)
REM options -cpp -mtune=generic -march=x86-64 -g -O0 -fpre-include=/usr/include/finclude/math-vector-fortran.h
REM seed 1547883115 -507867287 -782572125 1358565366 1872374131 -1699005372 -753161372 -133844435 1229236117 -58165426 884416246 1143432274 1501924082 -13128539 -909979388 1841126134 1512996452 -1958270260 105797829 521510338 -1342864936 -1365024396 64320297 1279728940 1776518450 1071048844 1050462246 2029896401 790146795 -82044320 1219801431 -45800647 1176067385
REM
CELL 1.54180   50.00000   50.00000   50.00000   90.00000   90.00000   90.00000
LATT -1
SFAC C  
C      1  0.3941480000000  0.5437480000000  0.5241160000000 1.0
C      1  0.5290530000000  0.5432100000000  0.3961650000000 1.0
C      1  0.5790350000000  0.5423570000000  0.5841770000000 1.0
C      1  0.3886110000000  0.4559200000000  0.5262240000000 1.0
C      1  0.5345990000000  0.4584400000000  0.3921620000000 1.0
C      1  0.5765820000000  0.4560590000000  0.5834610000000 1.0
C      1  0.3908970000000  0.5403770000000  0.4740050000000 1.0
C      1  0.5334860000000  0.5434310000000  0.6091280000000 1.0
C      1  0.5721790000000  0.5448210000000  0.4204240000000 1.0
C      1  0.3877210000000  0.4552370000000  0.4757700000000 1.0
C      1  0.5317830000000  0.4568320000000  0.6083340000000 1.0
C      1  0.5764620000000  0.4582620000000  0.4187280000000 1.0
C      1  0.4794980000000  0.5879510000000  0.5136680000000 1.0
C      1  0.5057070000000  0.6183370000000  0.4928160000000 1.0
C      1  0.5289710000000  0.5892020000000  0.5175390000000 1.0
C      1  0.4734910000000  0.4149330000000  0.5149160000000 1.0
C      1  0.4988510000000  0.4147870000000  0.4711540000000 1.0
C      1  0.5243010000000  0.4153500000000  0.5150870000000 1.0
C      1  0.4805290000000  0.6062390000000  0.4908580000000 1.0
C      1  0.5030010000000  0.5905200000000  0.5315810000000 1.0
C      1  0.5292980000000  0.6030050000000  0.4917040000000 1.0
C      1  0.4732200000000  0.4148800000000  0.4855390000000 1.0
C      1  0.4989170000000  0.4150650000000  0.5296940000000 1.0
C      1  0.5243140000000  0.4149910000000  0.4858100000000 1.0
C      1  0.4523390000000  0.5276630000000  0.4705300000000 1.0
C      1  0.5512710000000  0.5285110000000  0.4723440000000 1.0
C      1  0.4991110000000  0.5289890000000  0.5550750000000 1.0
C      1  0.4522360000000  0.4724740000000  0.4692490000000 1.0
C      1  0.5504240000000  0.4717640000000  0.4718360000000 1.0
C      1  0.4973510000000  0.4728350000000  0.5550080000000 1.0
C      1  0.4538480000000  0.5280810000000  0.5292700000000 1.0
C      1  0.5515570000000  0.5305480000000  0.5262730000000 1.0
C      1  0.4981600000000  0.5279140000000  0.4432290000000 1.0
C      1  0.4524710000000  0.4721240000000  0.5286160000000 1.0
C      1  0.5497290000000  0.4730300000000  0.5254110000000 1.0
C      1  0.4990370000000  0.4709160000000  0.4410840000000 1.0
C      1  0.6051510000000  0.4819110000000  0.5466490000000 1.0
C      1  0.4058530000000  0.4829750000000  0.5671150000000 1.0
C      1  0.4880990000000  0.4823440000000  0.3835990000000 1.0
C      1  0.6060780000000  0.5111100000000  0.5480850000000 1.0
C      1  0.4019650000000  0.5120160000000  0.5654480000000 1.0
C      1  0.4830740000000  0.5088330000000  0.3926290000000 1.0
C      1  0.6047780000000  0.4866400000000  0.4583760000000 1.0
C      1  0.4031670000000  0.4805810000000  0.4338980000000 1.0
C      1  0.4853570000000  0.4856140000000  0.6117430000000 1.0
C      1  0.5995900000000  0.5145160000000  0.4604240000000 1.0
C      1  0.3949130000000  0.5078240000000  0.4368330000000 1.0
C      1  0.4843560000000  0.5153250000000  0.6084060000000 1.0
C      1  0.5008220000000  0.5274200000000  0.4714340000000 1.0
C      1  0.5262950000000  0.5274150000000  0.5133590000000 1.0
C      1  0.4771110000000  0.5250130000000  0.5132380000000 1.0
C      1  0.5004750000000  0.4745530000000  0.4695290000000 1.0
C      1  0.5245540000000  0.4753820000000  0.5124960000000 1.0
C      1  0.4758930000000  0.4743030000000  0.5125410000000 1.0
C      1  0.5014240000000  0.5293690000000  0.5269490000000 1.0
C      1  0.5258360000000  0.5296340000000  0.4852060000000 1.0
C      1  0.4764310000000  0.5299390000000  0.4855420000000 1.0
C      1  0.5000580000000  0.4726650000000  0.5267180000000 1.0
C      1  0.5248500000000  0.4730150000000  0.4842250000000 1.0
C      1  0.4761880000000  0.4729250000000  0.4841100000000 1.0
C      1  0.4378230000000  0.5544920000000  0.5696610000000 1.0
C      1  0.4591900000000  0.5452890000000  0.4126620000000 1.0
C      1  0.5967370000000  0.5549730000000  0.5160660000000 1.0
C      1  0.4383410000000  0.4486240000000  0.5750130000000 1.0
C      1  0.4646570000000  0.4449420000000  0.4094660000000 1.0
C      1  0.5950930000000  0.4459310000000  0.5151800000000 1.0
C      1  0.4340010000000  0.5447670000000  0.4288090000000 1.0
C      1  0.4650680000000  0.5548100000000  0.5873010000000 1.0
C      1  0.5967860000000  0.5561270000000  0.4844090000000 1.0
C      1  0.4391600000000  0.4507870000000  0.4235540000000 1.0
C      1  0.4634980000000  0.4483410000000  0.5903760000000 1.0
C      1  0.5956510000000  0.4462890000000  0.4853380000000 1.0
C      1  0.4307280000000  0.5718570000000  0.4742510000000 1.0
C      1  0.5561210000000  0.5758510000000  0.4597840000000 1.0
C      1  0.5275320000000  0.5797820000000  0.5739250000000 1.0
C      1  0.4229960000000  0.4201470000000  0.4862210000000 1.0
C      1  0.5492910000000  0.4209250000000  0.4425030000000 1.0
C      1  0.5241680000000  0.4206700000000  0.5731170000000 1.0
C      1  0.4315210000000  0.5738790000000  0.5046640000000 1.0
C      1  0.5526110000000  0.5780650000000  0.5596790000000 1.0
C      1  0.4997890000000  0.5739130000000  0.4267790000000 1.0
C      1  0.4233670000000  0.4200450000000  0.5150880000000 1.0
C      1  0.5490860000000  0.4210930000000  0.5585960000000 1.0
C      1  0.5242270000000  0.4216270000000  0.4281660000000 1.0
C      1  0.5704970000000  0.4299940000000  0.5748860000000 1.0
C      1  0.3988330000000  0.4296990000000  0.5255670000000 1.0
C      1  0.5261490000000  0.4339640000000  0.4030590000000 1.0
C      1  0.5740320000000  0.5686630000000  0.5753570000000 1.0
C      1  0.4064500000000  0.5680150000000  0.5166010000000 1.0
C      1  0.5214880000000  0.5666730000000  0.4100130000000 1.0
C      1  0.5703710000000  0.4325410000000  0.4281020000000 1.0
C      1  0.3976130000000  0.4287710000000  0.4767510000000 1.0
C      1  0.5273410000000  0.4304170000000  0.5995430000000 1.0
C      1  0.5614030000000  0.5675330000000  0.4334140000000 1.0
C      1  0.4028870000000  0.5658100000000  0.4718250000000 1.0
C      1  0.5299320000000  0.5699120000000  0.6003490000000 1.0
C      1  0.5513540000000  0.5157520000000  0.4446470000000 1.0
C      1  0.5214230000000  0.5162060000000  0.5707530000000 1.0
C      1  0.4269820000000  0.5151030000000  0.4807070000000 1.0
C      1  0.5518200000000  0.4837680000000  0.4439670000000 1.0
C      1  0.5197240000000  0.4847850000000  0.5708010000000 1.0
C      1  0.4274440000000  0.4836550000000  0.4820830000000 1.0
C      1  0.5541100000000  0.5170140000000  0.5532580000000 1.0
C      1  0.5214290000000  0.5152090000000  0.4281020000000 1.0
C      1  0.4281230000000  0.5164810000000  0.5191230000000 1.0
C      1  0.5516290000000  0.4853090000000  0.5530030000000 1.0
C      1  0.5224640000000  0.4832150000000  0.4260220000000 1.0
C      1  0.4275640000000  0.4847770000000  0.5180130000000 1.0
C      1  0.4983860000000  0.4211100000000  0.4423560000000 1.0
C      1  0.5493010000000  0.4226110000000  0.5289450000000 1.0
C      1  0.4490860000000  0.4220510000000  0.5299290000000 1.0
C      1  0.5054330000000  0.5912490000000  0.4497540000000 1.0
C      1  0.5540250000000  0.5804590000000  0.5302270000000 1.0
C      1  0.4541870000000  0.5774980000000  0.5235110000000 1.0
C      1  0.4983550000000  0.4224230000000  0.5584430000000 1.0
C      1  0.5497240000000  0.4214720000000  0.4719870000000 1.0
C      1  0.4484220000000  0.4221230000000  0.4706990000000 1.0
C      1  0.5019060000000  0.5788770000000  0.5586890000000 1.0
C      1  0.5299120000000  0.5874770000000  0.4667170000000 1.0
C      1  0.4816500000000  0.5973090000000  0.4641200000000 1.0
C      1  0.6096820000000  0.4713630000000  0.4820620000000 1.0
C      1  0.4600490000000  0.4730080000000  0.6050040000000 1.0
C      1  0.4257440000000  0.4756610000000  0.4167230000000 1.0
C      1  0.6103210000000  0.5293380000000  0.4828910000000 1.0
C      1  0.4585570000000  0.5274670000000  0.5980070000000 1.0
C      1  0.4295890000000  0.5137830000000  0.4203730000000 1.0
C      1  0.6100720000000  0.4701680000000  0.5205420000000 1.0
C      1  0.4703300000000  0.4618460000000  0.3883820000000 1.0
C      1  0.4272980000000  0.4736040000000  0.5846440000000 1.0
C      1  0.6100890000000  0.5278740000000  0.5142150000000 1.0
C      1  0.4573650000000  0.5178100000000  0.4026480000000 1.0
C      1  0.4308580000000  0.5288430000000  0.5835660000000 1.0
C      1  0.5096070000000  0.4729100000000  0.5976560000000 1.0
C      1  0.4088100000000  0.4687430000000  0.4609470000000 1.0
C      1  0.5891880000000  0.4753020000000  0.4373670000000 1.0
C      1  0.5107590000000  0.5282950000000  0.5978590000000 1.0
C      1  0.4075200000000  0.5239000000000  0.4573450000000 1.0
C      1  0.5879300000000  0.5269040000000  0.4369090000000 1.0
C      1  0.5158090000000  0.4789110000000  0.3881270000000 1.0
C      1  0.4097070000000  0.4705450000000  0.5400770000000 1.0
C      1  0.5793110000000  0.4706210000000  0.5582820000000 1.0
C      1  0.5071240000000  0.5248150000000  0.3930820000000 1.0
C      1  0.4119170000000  0.5295300000000  0.5435680000000 1.0
C      1  0.5827460000000  0.5238410000000  0.5613670000000 1.0
C      1  0.4800070000000  0.5514690000000  0.4344750000000 1.0
C      1  0.5659800000000  0.5559850000000  0.5159070000000 1.0
C      1  0.4557990000000  0.5545040000000  0.5439450000000 1.0
C      1  0.4818230000000  0.4457290000000  0.4353670000000 1.0
C      1  0.5637430000000  0.4469110000000  0.5164640000000 1.0
C      1  0.4528750000000  0.4474520000000  0.5471170000000 1.0
C      1  0.4834930000000  0.5545690000000  0.5623490000000 1.0
C      1  0.5658270000000  0.5549290000000  0.4798970000000 1.0
C      1  0.4490240000000  0.5527010000000  0.4548460000000 1.0
C      1  0.4815360000000  0.4477550000000  0.5641260000000 1.0
C      1  0.5643330000000  0.4463460000000  0.4828840000000 1.0
C      1  0.4521290000000  0.4473480000000  0.4522010000000 1.0
C      1  0.5555290000000  0.5279450000000  0.5962410000000 1.0
C      1  0.5541760000000  0.4717730000000  0.5952120000000 1.0
C      1  0.5543480000000  0.5294220000000  0.4030240000000 1.0
C      1  0.5576980000000  0.4730160000000  0.4020190000000 1.0
C      1  0.3896570000000  0.5266650000000  0.5003230000000 1.0
C      1  0.3890450000000  0.4712750000000  0.5007600000000 1.0
C      1  0.5593340000000  0.5014880000000  0.3977480000000 1.0
C      1  0.5573360000000  0.4997120000000  0.6005520000000 1.0
C      1  0.3825290000000  0.4990670000000  0.5014360000000 1.0
END
