TITL C-3578197-9521-22 -9.73885869518606e-07 125000 -678.625023707593 0 0 111 (C2) n - 1
REM
REM in /home/bkarasulu/work/CARBON/AIRSS/Generating-Clusters/EDIP-Nigel-Params/with-SteepDescent/Higher-Symm/SD-CG/HFTN-CG
REM
REM
REM
REM
REM
REM ./C.cell (12c818d87b63d06a65506943cc24bca4)
REM
REM compiler GCC version 9.2.1 20190827 (Red Hat 9.2.1-1)
REM options -cpp -mtune=generic -march=x86-64 -g -O0 -fpre-include=/usr/include/finclude/math-vector-fortran.h
REM seed 470323618 561405985 1899213086 1306430214 259214055 1265972981 347914183 -748233556 818660726 -1596703824 -1424480292 -2075441260 1179357847 303283584 2007637009 1011470686 -1272169218 225701623 -2139845818 1562012778 1822788556 441855484 1903605579 67303590 1232397520 1008970300 -1995589491 1189644439 1658638670 1398635959 -1840709164 612338436 -252207274
REM
CELL 1.54180   50.00000   50.00000   50.00000   90.00000   90.00000   90.00000
LATT -1
SFAC C  
C      1  0.5251540000000  0.5591760000000  0.5646710000000 1.0
C      1  0.4748320000000  0.4401460000000  0.5646720000000 1.0
C      1  0.5324320000000  0.5210740000000  0.5861210000000 1.0
C      1  0.4675560000000  0.4782480000000  0.5861230000000 1.0
C      1  0.4231280000000  0.4595930000000  0.5007760000000 1.0
C      1  0.5768570000000  0.5397280000000  0.5007740000000 1.0
C      1  0.4675700000000  0.5863680000000  0.4987610000000 1.0
C      1  0.5324150000000  0.4129530000000  0.4987620000000 1.0
C      1  0.5172150000000  0.5458760000000  0.5890780000000 1.0
C      1  0.4827720000000  0.4534470000000  0.5890790000000 1.0
C      1  0.5040000000000  0.5789530000000  0.5595170000000 1.0
C      1  0.4959860000000  0.4203690000000  0.5595190000000 1.0
C      1  0.4678120000000  0.5139080000000  0.4761510000000 1.0
C      1  0.5321720000000  0.4854130000000  0.4761510000000 1.0
C      1  0.5188810000000  0.5899410000000  0.4919560000000 1.0
C      1  0.4811040000000  0.4093800000000  0.4919580000000 1.0
C      1  0.4191790000000  0.5122210000000  0.5030290000000 1.0
C      1  0.5808060000000  0.4871000000000  0.5030270000000 1.0
C      1  0.5359110000000  0.4383810000000  0.5659100000000 1.0
C      1  0.4640760000000  0.5609410000000  0.5659100000000 1.0
C      1  0.5733390000000  0.5120760000000  0.5176290000000 1.0
C      1  0.4266470000000  0.4872450000000  0.5176310000000 1.0
C      1  0.5617050000000  0.4628230000000  0.5001500000000 1.0
C      1  0.4382800000000  0.5364980000000  0.5001510000000 1.0
C      1  0.4362370000000  0.5260860000000  0.5462050000000 1.0
C      1  0.5637490000000  0.4732360000000  0.5462040000000 1.0
C      1  0.4554310000000  0.5330730000000  0.5657330000000 1.0
C      1  0.5445560000000  0.4662490000000  0.5657320000000 1.0
C      1  0.4301430000000  0.4842710000000  0.4568230000000 1.0
C      1  0.5698410000000  0.5150490000000  0.4568210000000 1.0
C      1  0.5374800000000  0.5260830000000  0.5113280000000 1.0
C      1  0.4625050000000  0.4732380000000  0.5113290000000 1.0
C      1  0.5037080000000  0.5214140000000  0.4041060000000 1.0
C      1  0.4962750000000  0.4779060000000  0.4041070000000 1.0
C      1  0.4684440000000  0.5287200000000  0.5033440000000 1.0
C      1  0.5315410000000  0.4706010000000  0.5033430000000 1.0
C      1  0.5530060000000  0.5754360000000  0.5301790000000 1.0
C      1  0.4469790000000  0.4238850000000  0.5301810000000 1.0
C      1  0.6012360000000  0.4905570000000  0.4842890000000 1.0
C      1  0.3987480000000  0.5087640000000  0.4842920000000 1.0
C      1  0.5067240000000  0.4763930000000  0.4536170000000 1.0
C      1  0.4932600000000  0.5229270000000  0.4536170000000 1.0
C      1  0.5005320000000  0.5274130000000  0.5461240000000 1.0
C      1  0.4994540000000  0.4719090000000  0.5461240000000 1.0
C      1  0.4864810000000  0.5686150000000  0.5830690000000 1.0
C      1  0.5135060000000  0.4307070000000  0.5830700000000 1.0
C      1  0.4942950000000  0.4781500000000  0.4804830000000 1.0
C      1  0.5056890000000  0.5211710000000  0.4804830000000 1.0
C      1  0.5338550000000  0.5147640000000  0.4825610000000 1.0
C      1  0.4661290000000  0.4845570000000  0.4825620000000 1.0
C      1  0.5474160000000  0.5565280000000  0.4612440000000 1.0
C      1  0.4525680000000  0.4427920000000  0.4612460000000 1.0
C      1  0.5059290000000  0.4344470000000  0.4257420000000 1.0
C      1  0.4940540000000  0.5648720000000  0.4257410000000 1.0
C      1  0.5522030000000  0.5600390000000  0.5548490000000 1.0
C      1  0.4477830000000  0.4392830000000  0.5548510000000 1.0
C      1  0.5093300000000  0.4134260000000  0.4827890000000 1.0
C      1  0.4906540000000  0.5858940000000  0.4827880000000 1.0
C      1  0.4349360000000  0.5552940000000  0.5228340000000 1.0
C      1  0.5650500000000  0.4440270000000  0.5228340000000 1.0
C      1  0.5108270000000  0.4558540000000  0.5240840000000 1.0
C      1  0.4891590000000  0.5434670000000  0.5240840000000 1.0
C      1  0.4199560000000  0.5330210000000  0.4491080000000 1.0
C      1  0.5800270000000  0.4662990000000  0.4491070000000 1.0
C      1  0.4633010000000  0.4568740000000  0.4369910000000 1.0
C      1  0.5366820000000  0.5424460000000  0.4369890000000 1.0
C      1  0.4552030000000  0.5776400000000  0.5223790000000 1.0
C      1  0.5447830000000  0.4216810000000  0.5223800000000 1.0
C      1  0.5430000000000  0.4517150000000  0.4516310000000 1.0
C      1  0.4569830000000  0.5476050000000  0.4516320000000 1.0
C      1  0.4361840000000  0.4962050000000  0.5446340000000 1.0
C      1  0.5638020000000  0.5031170000000  0.5446320000000 1.0
C      1  0.5883220000000  0.4929080000000  0.4597930000000 1.0
C      1  0.4116620000000  0.5064120000000  0.4597960000000 1.0
C      1  0.5217440000000  0.4961020000000  0.4029080000000 1.0
C      1  0.4782380000000  0.5032170000000  0.4029080000000 1.0
C      1  0.5691630000000  0.5396000000000  0.4722170000000 1.0
C      1  0.4308210000000  0.4597200000000  0.4722200000000 1.0
C      1  0.4595490000000  0.5052230000000  0.4250760000000 1.0
C      1  0.5404340000000  0.4940960000000  0.4250750000000 1.0
C      1  0.4759960000000  0.4213590000000  0.5199160000000 1.0
C      1  0.5239900000000  0.5779620000000  0.5199140000000 1.0
C      1  0.5711060000000  0.5643320000000  0.5123050000000 1.0
C      1  0.4288790000000  0.4349890000000  0.5123080000000 1.0
C      1  0.4621200000000  0.4190790000000  0.4732150000000 1.0
C      1  0.5378640000000  0.5802410000000  0.4732130000000 1.0
C      1  0.4447670000000  0.5303120000000  0.4285340000000 1.0
C      1  0.5552160000000  0.4690080000000  0.4285330000000 1.0
C      1  0.4932720000000  0.4611310000000  0.4301940000000 1.0
C      1  0.5067110000000  0.5381880000000  0.4301940000000 1.0
C      1  0.5132130000000  0.4099660000000  0.4549420000000 1.0
C      1  0.4867700000000  0.5893540000000  0.4549400000000 1.0
C      1  0.5220660000000  0.4850000000000  0.5605300000000 1.0
C      1  0.4779200000000  0.5143220000000  0.5605300000000 1.0
C      1  0.4787300000000  0.4902750000000  0.5332710000000 1.0
C      1  0.5212550000000  0.5090460000000  0.5332700000000 1.0
C      1  0.4465120000000  0.4810510000000  0.4333810000000 1.0
C      1  0.5534710000000  0.5182690000000  0.4333790000000 1.0
C      1  0.5305350000000  0.4270940000000  0.4393260000000 1.0
C      1  0.4694490000000  0.5722260000000  0.4393250000000 1.0
C      1  0.5661550000000  0.4491030000000  0.4727780000000 1.0
C      1  0.4338290000000  0.5502170000000  0.4727790000000 1.0
C      1  0.5512430000000  0.5230600000000  0.5627270000000 1.0
C      1  0.4487440000000  0.4762620000000  0.5627290000000 1.0
C      1  0.5225200000000  0.4314900000000  0.5393880000000 1.0
C      1  0.4774660000000  0.5678310000000  0.5393880000000 1.0
C      1  0.5146900000000  0.4969680000000  0.5866570000000 1.0
C      1  0.4852970000000  0.5023540000000  0.5866580000000 1.0
C      1  0.4842310000000  0.4488410000000  0.5115360000000 1.0
C      1  0.5157550000000  0.5504800000000  0.5115350000000 1.0
C      1  0.4999930000000  0.4996610000000  0.5120600000000 1.0
END
