TITL C-3577084-3642-503 -2.70719651172004e-06 125000 -276.96527489567 0 0 47 (C1) n - 1
REM
REM in /home/bkarasulu/work/CARBON/AIRSS/Generating-Clusters/EDIP-Nigel-Params/with-SteepDescent/Higher-Symm/SD-CG/HFTN-CG
REM
REM
REM
REM
REM
REM ./C.cell (12c818d87b63d06a65506943cc24bca4)
REM
REM compiler GCC version 9.2.1 20190827 (Red Hat 9.2.1-1)
REM options -cpp -mtune=generic -march=x86-64 -g -O0 -fpre-include=/usr/include/finclude/math-vector-fortran.h
REM seed 990873314 -343564204 1029171123 -1583180952 1710586456 946390966 356312398 -1159480786 -254250017 1732351499 -856879732 1135287318 1180186585 1687885340 426952031 89638995 2142972133 -140066815 -781275002 -843820257 1608984558 357780475 1903751983 891793077 -1712198008 1416401201 -1753512397 -1644971952 -514474935 -1404110132 1524927579 1563090536 1155785992
REM
CELL 1.54180   50.00000   50.00000   50.00000   90.00000   90.00000   90.00000
LATT -1
SFAC C  
C      1  0.5141210000000  0.5624070000000  0.5204420000000 1.0
C      1  0.5132670000000  0.5572630000000  0.4701920000000 1.0
C      1  0.4699170000000  0.5590070000000  0.5004920000000 1.0
C      1  0.5161830000000  0.4486270000000  0.4746950000000 1.0
C      1  0.5117940000000  0.4424080000000  0.5272440000000 1.0
C      1  0.4701880000000  0.4424030000000  0.4980200000000 1.0
C      1  0.4862330000000  0.4885200000000  0.4861530000000 1.0
C      1  0.4930500000000  0.4851730000000  0.5266210000000 1.0
C      1  0.5222280000000  0.4851470000000  0.4992650000000 1.0
C      1  0.4849800000000  0.5180410000000  0.5145490000000 1.0
C      1  0.5014530000000  0.5148350000000  0.4743990000000 1.0
C      1  0.5189260000000  0.5159010000000  0.5095300000000 1.0
C      1  0.5582220000000  0.4974320000000  0.5269870000000 1.0
C      1  0.4874920000000  0.5054290000000  0.4337230000000 1.0
C      1  0.4509300000000  0.4962900000000  0.5409510000000 1.0
C      1  0.5594970000000  0.4971810000000  0.4784610000000 1.0
C      1  0.4932790000000  0.4983830000000  0.5629190000000 1.0
C      1  0.4487270000000  0.5053640000000  0.4633230000000 1.0
C      1  0.5268520000000  0.4619280000000  0.5435040000000 1.0
C      1  0.5038320000000  0.4632380000000  0.4518270000000 1.0
C      1  0.4489010000000  0.4616720000000  0.5056130000000 1.0
C      1  0.5376500000000  0.5404310000000  0.4723770000000 1.0
C      1  0.5120970000000  0.5410470000000  0.5451100000000 1.0
C      1  0.4490310000000  0.5384400000000  0.4987670000000 1.0
C      1  0.4985840000000  0.5524460000000  0.4461110000000 1.0
C      1  0.4636130000000  0.5579170000000  0.5291720000000 1.0
C      1  0.5411010000000  0.5537580000000  0.5225490000000 1.0
C      1  0.4921420000000  0.4445600000000  0.5483990000000 1.0
C      1  0.4606080000000  0.4478070000000  0.4713100000000 1.0
C      1  0.5445830000000  0.4507490000000  0.4746390000000 1.0
C      1  0.4849220000000  0.5285880000000  0.4522110000000 1.0
C      1  0.4806900000000  0.5354670000000  0.5387260000000 1.0
C      1  0.5427090000000  0.5332820000000  0.5016480000000 1.0
C      1  0.4743770000000  0.4656680000000  0.5413320000000 1.0
C      1  0.4772160000000  0.4704580000000  0.4624570000000 1.0
C      1  0.5490130000000  0.4731100000000  0.4910460000000 1.0
C      1  0.4486520000000  0.5107870000000  0.4911050000000 1.0
C      1  0.5175820000000  0.5103370000000  0.5530010000000 1.0
C      1  0.5380540000000  0.5114100000000  0.4614610000000 1.0
C      1  0.4515060000000  0.4899080000000  0.5122980000000 1.0
C      1  0.5128170000000  0.4904510000000  0.4422080000000 1.0
C      1  0.5347250000000  0.4898180000000  0.5410130000000 1.0
C      1  0.5643630000000  0.5128330000000  0.5038910000000 1.0
C      1  0.4637060000000  0.4902420000000  0.4446130000000 1.0
C      1  0.4692950000000  0.5134810000000  0.5559420000000 1.0
C      1  0.4991040000000  0.5529200000000  0.4965160000000 1.0
C      1  0.4993130000000  0.4499480000000  0.5008820000000 1.0
END
