TITL C-3578198-8939-91 7.54969114797363e-05 125000 -141.876757697133 0 0 25 (C1) n - 1
REM
REM in /home/bkarasulu/work/CARBON/AIRSS/Generating-Clusters/EDIP-Nigel-Params/with-SteepDescent/Higher-Symm/SD-CG/HFTN-CG
REM
REM
REM
REM
REM
REM ./C.cell (12c818d87b63d06a65506943cc24bca4)
REM
REM compiler GCC version 9.2.1 20190827 (Red Hat 9.2.1-1)
REM options -cpp -mtune=generic -march=x86-64 -g -O0 -fpre-include=/usr/include/finclude/math-vector-fortran.h
REM seed -1121393258 2111240958 -1987202617 -1723831601 -1205264104 1448543269 649082881 1993118592 1321201650 817718580 1693909504 -1093653775 802521241 -856269847 1074444197 1085926871 -35822285 2146100689 -182378765 372694259 -2096453595 -159655718 964459327 -1242030080 602689211 363371346 1522779669 -1416637597 695817070 1230295612 -1989206642 899328695 819887353
REM
CELL 1.54180   50.00000   50.00000   50.00000   90.00000   90.00000   90.00000
LATT -1
SFAC C  
C      1  0.4629770000000  0.5669650000000  0.4828920000000 1.0
C      1  0.5523290000000  0.4377840000000  0.4891300000000 1.0
C      1  0.4754120000000  0.4978950000000  0.4554900000000 1.0
C      1  0.5222400000000  0.4940970000000  0.4508890000000 1.0
C      1  0.4561780000000  0.5744830000000  0.5088170000000 1.0
C      1  0.5470680000000  0.4339360000000  0.5162460000000 1.0
C      1  0.4738350000000  0.5785890000000  0.5297980000000 1.0
C      1  0.5229650000000  0.4258550000000  0.5273190000000 1.0
C      1  0.4746700000000  0.4813360000000  0.4785330000000 1.0
C      1  0.5145800000000  0.5064980000000  0.4750290000000 1.0
C      1  0.5144660000000  0.4520180000000  0.5242500000000 1.0
C      1  0.4747230000000  0.5510380000000  0.5324240000000 1.0
C      1  0.4810980000000  0.5330590000000  0.5112850000000 1.0
C      1  0.5155040000000  0.4663500000000  0.4996320000000 1.0
C      1  0.5381630000000  0.4718190000000  0.4566440000000 1.0
C      1  0.4777110000000  0.5251200000000  0.4628090000000 1.0
C      1  0.5358910000000  0.4586860000000  0.4811290000000 1.0
C      1  0.4744660000000  0.5417790000000  0.4849210000000 1.0
C      1  0.4985670000000  0.4900910000000  0.4929470000000 1.0
C      1  0.4944750000000  0.4986660000000  0.4116270000000 1.0
C      1  0.4991630000000  0.4936140000000  0.5679390000000 1.0
C      1  0.4962940000000  0.4985730000000  0.5421080000000 1.0
C      1  0.4909080000000  0.5066830000000  0.5164350000000 1.0
C      1  0.5029720000000  0.4876240000000  0.5925050000000 1.0
C      1  0.4969600000000  0.4892580000000  0.4365290000000 1.0
END
