TITL C-3577079-311-645 -4.32476172733078e-06 125000 -1071.16383228684 0 0 174 (C1) n - 1
REM
REM in /home/bkarasulu/work/CARBON/AIRSS/Generating-Clusters/EDIP-Nigel-Params/with-SteepDescent/Higher-Symm/SD-CG/HFTN-CG
REM
REM
REM
REM
REM
REM ./C.cell (12c818d87b63d06a65506943cc24bca4)
REM
REM compiler GCC version 9.2.1 20190827 (Red Hat 9.2.1-1)
REM options -cpp -mtune=generic -march=x86-64 -g -O0 -fpre-include=/usr/include/finclude/math-vector-fortran.h
REM seed 590919870 -510293858 -72168048 870085514 -82216293 -1918148010 2012920188 -1627651290 327534903 -1441376927 2119674682 1842043581 1309019145 -962254436 19498169 -1189298411 -1094354838 166635601 304570293 -2008940555 -125161814 -590651781 59115356 -1644276967 1375360782 -1412625457 882551041 1930311134 161019238 1830421358 -97383221 307118158 1236216410
REM
CELL 1.54180   50.00000   50.00000   50.00000   90.00000   90.00000   90.00000
LATT -1
SFAC C  
C      1  0.4170850000000  0.4879750000000  0.4478500000000 1.0
C      1  0.4173920000000  0.5409440000000  0.4587190000000 1.0
C      1  0.4116790000000  0.5526700000000  0.5101030000000 1.0
C      1  0.4079520000000  0.5118510000000  0.5601780000000 1.0
C      1  0.4174690000000  0.4594420000000  0.5356080000000 1.0
C      1  0.4148900000000  0.4471890000000  0.4841940000000 1.0
C      1  0.4224010000000  0.4864320000000  0.5583210000000 1.0
C      1  0.4168280000000  0.5358530000000  0.5449310000000 1.0
C      1  0.4032070000000  0.5546340000000  0.4812520000000 1.0
C      1  0.4055900000000  0.5159510000000  0.4455940000000 1.0
C      1  0.4021290000000  0.4647620000000  0.4626140000000 1.0
C      1  0.4039490000000  0.4461230000000  0.5128040000000 1.0
C      1  0.4532150000000  0.5908110000000  0.5197240000000 1.0
C      1  0.4648630000000  0.5274840000000  0.5844960000000 1.0
C      1  0.4583720000000  0.4440560000000  0.5585820000000 1.0
C      1  0.4542360000000  0.4087980000000  0.4769250000000 1.0
C      1  0.4622220000000  0.4672530000000  0.4122560000000 1.0
C      1  0.4594870000000  0.5589520000000  0.4368430000000 1.0
C      1  0.4590600000000  0.5830280000000  0.4840200000000 1.0
C      1  0.4626840000000  0.5244540000000  0.4201860000000 1.0
C      1  0.4561550000000  0.4447640000000  0.4341370000000 1.0
C      1  0.4592890000000  0.4136700000000  0.5147880000000 1.0
C      1  0.4630680000000  0.4729340000000  0.5820380000000 1.0
C      1  0.4549420000000  0.5597360000000  0.5656620000000 1.0
C      1  0.5928980000000  0.5121160000000  0.3975830000000 1.0
C      1  0.5602980000000  0.5878750000000  0.4490720000000 1.0
C      1  0.5708650000000  0.5796280000000  0.5593280000000 1.0
C      1  0.5852670000000  0.4877130000000  0.6006340000000 1.0
C      1  0.5636670000000  0.4095400000000  0.5459810000000 1.0
C      1  0.5631350000000  0.4227960000000  0.4357890000000 1.0
C      1  0.5813320000000  0.5142390000000  0.5973210000000 1.0
C      1  0.5807250000000  0.5936080000000  0.5361090000000 1.0
C      1  0.5579660000000  0.5680520000000  0.4280440000000 1.0
C      1  0.5888010000000  0.4858280000000  0.4013950000000 1.0
C      1  0.5756030000000  0.4078100000000  0.4566360000000 1.0
C      1  0.5599600000000  0.4275960000000  0.5682280000000 1.0
C      1  0.4851740000000  0.4090750000000  0.5307800000000 1.0
C      1  0.4772020000000  0.4228460000000  0.4355030000000 1.0
C      1  0.4853750000000  0.5109050000000  0.4050180000000 1.0
C      1  0.4850410000000  0.5883490000000  0.4693090000000 1.0
C      1  0.4773700000000  0.5788440000000  0.5615950000000 1.0
C      1  0.4890370000000  0.4841720000000  0.5922320000000 1.0
C      1  0.4756330000000  0.4035840000000  0.4575540000000 1.0
C      1  0.4839710000000  0.4273880000000  0.5546410000000 1.0
C      1  0.4902540000000  0.5131870000000  0.5953390000000 1.0
C      1  0.4745790000000  0.5975850000000  0.5395420000000 1.0
C      1  0.4838670000000  0.5754850000000  0.4434890000000 1.0
C      1  0.4883530000000  0.4824990000000  0.4114010000000 1.0
C      1  0.4997650000000  0.6282300000000  0.5109950000000 1.0
C      1  0.5100890000000  0.5528180000000  0.6129260000000 1.0
C      1  0.4964740000000  0.4252610000000  0.6055620000000 1.0
C      1  0.5004440000000  0.3724430000000  0.4861010000000 1.0
C      1  0.5216780000000  0.4501470000000  0.3930870000000 1.0
C      1  0.5038750000000  0.5749380000000  0.3967220000000 1.0
C      1  0.5128430000000  0.6218130000000  0.4881260000000 1.0
C      1  0.5073950000000  0.5499180000000  0.3855150000000 1.0
C      1  0.5153120000000  0.4236240000000  0.3991390000000 1.0
C      1  0.5136630000000  0.3775020000000  0.5092480000000 1.0
C      1  0.5072050000000  0.4471040000000  0.6173990000000 1.0
C      1  0.5141900000000  0.5707250000000  0.5918620000000 1.0
C      1  0.5472600000000  0.5821690000000  0.4736820000000 1.0
C      1  0.5457690000000  0.5675540000000  0.5497560000000 1.0
C      1  0.5471090000000  0.4732450000000  0.5808480000000 1.0
C      1  0.5485640000000  0.4174490000000  0.5231130000000 1.0
C      1  0.5403440000000  0.4361110000000  0.4483690000000 1.0
C      1  0.5504840000000  0.5205600000000  0.4175810000000 1.0
C      1  0.5395260000000  0.5765720000000  0.5207800000000 1.0
C      1  0.5399360000000  0.5449990000000  0.4342060000000 1.0
C      1  0.5449710000000  0.4852540000000  0.4224210000000 1.0
C      1  0.5378950000000  0.4262970000000  0.4773710000000 1.0
C      1  0.5399690000000  0.4489630000000  0.5623990000000 1.0
C      1  0.5381620000000  0.5311180000000  0.5791770000000 1.0
C      1  0.5658170000000  0.5993540000000  0.4864780000000 1.0
C      1  0.5800780000000  0.5591220000000  0.5771150000000 1.0
C      1  0.5707640000000  0.4644610000000  0.5953770000000 1.0
C      1  0.5662970000000  0.4012130000000  0.5077470000000 1.0
C      1  0.5743910000000  0.4434290000000  0.4205900000000 1.0
C      1  0.5740300000000  0.5313400000000  0.4040950000000 1.0
C      1  0.5615720000000  0.5960430000000  0.5148660000000 1.0
C      1  0.5788510000000  0.5581190000000  0.4117540000000 1.0
C      1  0.5689730000000  0.4697300000000  0.4121340000000 1.0
C      1  0.5594920000000  0.4060250000000  0.4800870000000 1.0
C      1  0.5794920000000  0.4395000000000  0.5849800000000 1.0
C      1  0.5669430000000  0.5363420000000  0.5882010000000 1.0
C      1  0.4157780000000  0.4716320000000  0.5847520000000 1.0
C      1  0.4085890000000  0.4171440000000  0.5168650000000 1.0
C      1  0.4043280000000  0.4464100000000  0.4387280000000 1.0
C      1  0.4120370000000  0.5249330000000  0.4176260000000 1.0
C      1  0.4084040000000  0.5839710000000  0.4796070000000 1.0
C      1  0.4082310000000  0.5555240000000  0.5662720000000 1.0
C      1  0.4142380000000  0.4767850000000  0.4195540000000 1.0
C      1  0.4065820000000  0.4179440000000  0.4790670000000 1.0
C      1  0.4114780000000  0.4436760000000  0.5616340000000 1.0
C      1  0.4135120000000  0.5240220000000  0.5868760000000 1.0
C      1  0.4051460000000  0.5807010000000  0.5170670000000 1.0
C      1  0.4124330000000  0.5585420000000  0.4345830000000 1.0
C      1  0.5562000000000  0.5374120000000  0.5338880000000 1.0
C      1  0.5552420000000  0.4894420000000  0.5525170000000 1.0
C      1  0.5567870000000  0.4468160000000  0.5166570000000 1.0
C      1  0.5601260000000  0.4639680000000  0.4664210000000 1.0
C      1  0.5604980000000  0.5114310000000  0.4540680000000 1.0
C      1  0.5562730000000  0.5537790000000  0.4818310000000 1.0
C      1  0.5439900000000  0.5350790000000  0.4624410000000 1.0
C      1  0.5459770000000  0.4859760000000  0.4528990000000 1.0
C      1  0.5455890000000  0.4518440000000  0.4897680000000 1.0
C      1  0.5430770000000  0.4645530000000  0.5366200000000 1.0
C      1  0.5385370000000  0.5165080000000  0.5506400000000 1.0
C      1  0.5441150000000  0.5496230000000  0.5084990000000 1.0
C      1  0.5965670000000  0.5474070000000  0.5092840000000 1.0
C      1  0.5977660000000  0.5135630000000  0.5426360000000 1.0
C      1  0.5958010000000  0.4671350000000  0.5370450000000 1.0
C      1  0.5992430000000  0.4525680000000  0.4927690000000 1.0
C      1  0.6031680000000  0.4882110000000  0.4614630000000 1.0
C      1  0.6003840000000  0.5367660000000  0.4643360000000 1.0
C      1  0.5867530000000  0.5512730000000  0.4837140000000 1.0
C      1  0.5895470000000  0.5119960000000  0.4588740000000 1.0
C      1  0.5898740000000  0.4657070000000  0.4704140000000 1.0
C      1  0.5867380000000  0.4502530000000  0.5172920000000 1.0
C      1  0.5851140000000  0.4899140000000  0.5482660000000 1.0
C      1  0.5858600000000  0.5356230000000  0.5317840000000 1.0
C      1  0.4288200000000  0.4301190000000  0.4384640000000 1.0
C      1  0.4376760000000  0.5143260000000  0.4067420000000 1.0
C      1  0.4343360000000  0.5893070000000  0.4660760000000 1.0
C      1  0.4288020000000  0.5752040000000  0.5620390000000 1.0
C      1  0.4399320000000  0.4827850000000  0.5987940000000 1.0
C      1  0.4334320000000  0.4106390000000  0.5320840000000 1.0
C      1  0.4344380000000  0.4255500000000  0.5589430000000 1.0
C      1  0.4395150000000  0.5138700000000  0.5975120000000 1.0
C      1  0.4268960000000  0.5892020000000  0.5346690000000 1.0
C      1  0.4351400000000  0.5764790000000  0.4383270000000 1.0
C      1  0.4379730000000  0.4838390000000  0.4046580000000 1.0
C      1  0.4286410000000  0.4112490000000  0.4619030000000 1.0
C      1  0.4426500000000  0.5536330000000  0.5135230000000 1.0
C      1  0.4664650000000  0.5161120000000  0.5549430000000 1.0
C      1  0.4484770000000  0.4581720000000  0.5324190000000 1.0
C      1  0.4463040000000  0.4464280000000  0.4823280000000 1.0
C      1  0.4459180000000  0.4890680000000  0.4562640000000 1.0
C      1  0.4485870000000  0.5405170000000  0.4611600000000 1.0
C      1  0.4591600000000  0.5528750000000  0.4873870000000 1.0
C      1  0.4618420000000  0.5144380000000  0.4507610000000 1.0
C      1  0.4598230000000  0.4622420000000  0.4594200000000 1.0
C      1  0.4607570000000  0.4433560000000  0.5091780000000 1.0
C      1  0.4536800000000  0.4883670000000  0.5569620000000 1.0
C      1  0.4489390000000  0.5391200000000  0.5418280000000 1.0
C      1  0.4992730000000  0.4630180000000  0.5328690000000 1.0
C      1  0.5018720000000  0.4557550000000  0.4853580000000 1.0
C      1  0.5017630000000  0.4889240000000  0.4531420000000 1.0
C      1  0.4913680000000  0.5170980000000  0.4891220000000 1.0
C      1  0.4967500000000  0.5554150000000  0.5166780000000 1.0
C      1  0.4949970000000  0.5131420000000  0.5439540000000 1.0
C      1  0.4898850000000  0.4650110000000  0.4618360000000 1.0
C      1  0.4891940000000  0.4506920000000  0.5097190000000 1.0
C      1  0.5058280000000  0.4876850000000  0.5420610000000 1.0
C      1  0.5095870000000  0.5342600000000  0.5316770000000 1.0
C      1  0.4862200000000  0.5439500000000  0.4927980000000 1.0
C      1  0.4890590000000  0.5120280000000  0.4620190000000 1.0
C      1  0.5119430000000  0.5933470000000  0.4835530000000 1.0
C      1  0.4927960000000  0.5861330000000  0.5836510000000 1.0
C      1  0.5118010000000  0.4656560000000  0.5959970000000 1.0
C      1  0.5124870000000  0.4054630000000  0.5159530000000 1.0
C      1  0.4927720000000  0.4158680000000  0.4131560000000 1.0
C      1  0.5095360000000  0.5268170000000  0.4023490000000 1.0
C      1  0.4998620000000  0.6056600000000  0.5276310000000 1.0
C      1  0.5012920000000  0.5842980000000  0.4227070000000 1.0
C      1  0.5172130000000  0.4701340000000  0.4138130000000 1.0
C      1  0.5004600000000  0.3959530000000  0.4707840000000 1.0
C      1  0.4947050000000  0.4147890000000  0.5798760000000 1.0
C      1  0.5157640000000  0.5274050000000  0.6015590000000 1.0
C      1  0.5114850000000  0.5467340000000  0.4253340000000 1.0
C      1  0.5273730000000  0.5570170000000  0.5704610000000 1.0
C      1  0.5122560000000  0.4477180000000  0.5717190000000 1.0
C      1  0.5100940000000  0.4182130000000  0.4880310000000 1.0
C      1  0.5150190000000  0.4444400000000  0.4321030000000 1.0
C      1  0.5108190000000  0.5823770000000  0.5127870000000 1.0
END
