TITL C-3578209-2550-475 -3.56914894112257e-06 125000 -1189.9711579069 0 0 186 (C1) n - 1
REM
REM in /home/bkarasulu/work/CARBON/AIRSS/Generating-Clusters/EDIP-Nigel-Params/with-SteepDescent/Higher-Symm/SD-CG/HFTN-CG
REM
REM
REM
REM
REM
REM ./C.cell (12c818d87b63d06a65506943cc24bca4)
REM
REM compiler GCC version 9.2.1 20190827 (Red Hat 9.2.1-1)
REM options -cpp -mtune=generic -march=x86-64 -g -O0 -fpre-include=/usr/include/finclude/math-vector-fortran.h
REM seed -2115011102 -2133510222 -1818493692 9208845 1744677660 -32072454 1881960750 648419246 -2069047503 -727503692 1577758361 909404440 -201346511 -2075715419 -745968057 937163618 921874470 -884097788 17570351 1973881885 -1996056395 1448413125 1251736030 1702554184 896602457 -1391702286 -904442404 1250597967 -2052794298 1562548580 -981692249 982240325 -1978506735
REM
CELL 1.54180   50.00000   50.00000   50.00000   90.00000   90.00000   90.00000
LATT -1
SFAC C  
C      1  0.5281530000000  0.4972800000000  0.4830500000000 1.0
C      1  0.5086100000000  0.4728720000000  0.4813960000000 1.0
C      1  0.4786190000000  0.4752000000000  0.4744680000000 1.0
C      1  0.4685080000000  0.4998790000000  0.4849340000000 1.0
C      1  0.4861910000000  0.5243420000000  0.4832620000000 1.0
C      1  0.5177740000000  0.5245430000000  0.4759350000000 1.0
C      1  0.5305540000000  0.5018660000000  0.5271330000000 1.0
C      1  0.5108380000000  0.5239900000000  0.5196790000000 1.0
C      1  0.4802610000000  0.5202590000000  0.5271710000000 1.0
C      1  0.4686710000000  0.4930060000000  0.5288180000000 1.0
C      1  0.4865430000000  0.4723520000000  0.5191000000000 1.0
C      1  0.5157490000000  0.4729830000000  0.5248730000000 1.0
C      1  0.4258390000000  0.4740280000000  0.4542870000000 1.0
C      1  0.4288260000000  0.5575490000000  0.4452020000000 1.0
C      1  0.5145220000000  0.5886950000000  0.4498970000000 1.0
C      1  0.5721210000000  0.5245180000000  0.4578000000000 1.0
C      1  0.5722910000000  0.4431340000000  0.4470740000000 1.0
C      1  0.4909110000000  0.4173520000000  0.4540350000000 1.0
C      1  0.4284950000000  0.5340210000000  0.5447250000000 1.0
C      1  0.4423910000000  0.4488140000000  0.5458880000000 1.0
C      1  0.5122430000000  0.4220330000000  0.5444270000000 1.0
C      1  0.5838350000000  0.4676350000000  0.5515910000000 1.0
C      1  0.5578750000000  0.5498710000000  0.5439970000000 1.0
C      1  0.4863900000000  0.5903290000000  0.5534770000000 1.0
C      1  0.4614730000000  0.5131500000000  0.4427650000000 1.0
C      1  0.4837500000000  0.5338490000000  0.4495460000000 1.0
C      1  0.5191530000000  0.5202930000000  0.4459480000000 1.0
C      1  0.5319570000000  0.4894170000000  0.4422370000000 1.0
C      1  0.5086210000000  0.4681510000000  0.4427270000000 1.0
C      1  0.4751960000000  0.4823170000000  0.4439840000000 1.0
C      1  0.4717810000000  0.4872000000000  0.5583370000000 1.0
C      1  0.4939380000000  0.4645820000000  0.5614410000000 1.0
C      1  0.5234180000000  0.4774930000000  0.5631850000000 1.0
C      1  0.5283760000000  0.5114050000000  0.5581760000000 1.0
C      1  0.5066820000000  0.5365410000000  0.5598730000000 1.0
C      1  0.4769370000000  0.5246850000000  0.5592560000000 1.0
C      1  0.4530580000000  0.4238260000000  0.5586990000000 1.0
C      1  0.4213900000000  0.5036950000000  0.5436860000000 1.0
C      1  0.4601380000000  0.5783020000000  0.5512570000000 1.0
C      1  0.5469580000000  0.5753330000000  0.5553000000000 1.0
C      1  0.5823760000000  0.4965260000000  0.5454900000000 1.0
C      1  0.5411770000000  0.4229200000000  0.5525570000000 1.0
C      1  0.4524580000000  0.5737840000000  0.4486860000000 1.0
C      1  0.4105420000000  0.4970100000000  0.4423300000000 1.0
C      1  0.4626710000000  0.4286650000000  0.4562530000000 1.0
C      1  0.5495450000000  0.4251730000000  0.4478050000000 1.0
C      1  0.5894060000000  0.5032940000000  0.4454370000000 1.0
C      1  0.5388330000000  0.5728610000000  0.4562570000000 1.0
C      1  0.4295180000000  0.4925320000000  0.5707890000000 1.0
C      1  0.4566940000000  0.5600350000000  0.5742680000000 1.0
C      1  0.5294580000000  0.5695030000000  0.5785210000000 1.0
C      1  0.5724680000000  0.5090540000000  0.5714780000000 1.0
C      1  0.5452530000000  0.4413230000000  0.5753420000000 1.0
C      1  0.4716260000000  0.4315400000000  0.5807290000000 1.0
C      1  0.4251140000000  0.5091690000000  0.4193660000000 1.0
C      1  0.4579600000000  0.4424460000000  0.4296170000000 1.0
C      1  0.5304260000000  0.4334330000000  0.4271010000000 1.0
C      1  0.5753840000000  0.4906590000000  0.4222960000000 1.0
C      1  0.5441600000000  0.5573520000000  0.4305750000000 1.0
C      1  0.4715960000000  0.5678460000000  0.4275410000000 1.0
C      1  0.5916870000000  0.5822420000000  0.5322370000000 1.0
C      1  0.6118980000000  0.4662460000000  0.5107500000000 1.0
C      1  0.5240420000000  0.3858590000000  0.5124440000000 1.0
C      1  0.4096790000000  0.4163660000000  0.5332550000000 1.0
C      1  0.3865930000000  0.5356120000000  0.5208200000000 1.0
C      1  0.4765180000000  0.6155080000000  0.5107200000000 1.0
C      1  0.5885340000000  0.4211350000000  0.4900640000000 1.0
C      1  0.6172740000000  0.5376860000000  0.4688570000000 1.0
C      1  0.5272500000000  0.6138990000000  0.4904160000000 1.0
C      1  0.4116920000000  0.5795820000000  0.4875280000000 1.0
C      1  0.3820020000000  0.4627360000000  0.4677950000000 1.0
C      1  0.4734880000000  0.3823610000000  0.4794430000000 1.0
C      1  0.5306940000000  0.4950330000000  0.5993180000000 1.0
C      1  0.5107730000000  0.4714850000000  0.6010240000000 1.0
C      1  0.4812030000000  0.4785790000000  0.6009820000000 1.0
C      1  0.4715790000000  0.5071080000000  0.5975120000000 1.0
C      1  0.4906410000000  0.5296310000000  0.6002160000000 1.0
C      1  0.5197420000000  0.5235890000000  0.6000550000000 1.0
C      1  0.5293050000000  0.5058070000000  0.4018510000000 1.0
C      1  0.5098470000000  0.5284190000000  0.4039090000000 1.0
C      1  0.4814040000000  0.5227540000000  0.4045650000000 1.0
C      1  0.4718900000000  0.4951160000000  0.4014970000000 1.0
C      1  0.4910870000000  0.4722380000000  0.4037780000000 1.0
C      1  0.5201980000000  0.4776500000000  0.4016840000000 1.0
C      1  0.5584840000000  0.4884920000000  0.5873740000000 1.0
C      1  0.5199060000000  0.4439530000000  0.5906670000000 1.0
C      1  0.4618300000000  0.4582090000000  0.5912470000000 1.0
C      1  0.4439900000000  0.5132040000000  0.5860790000000 1.0
C      1  0.4814610000000  0.5561610000000  0.5898940000000 1.0
C      1  0.5390620000000  0.5432220000000  0.5894510000000 1.0
C      1  0.5561640000000  0.5122130000000  0.4127880000000 1.0
C      1  0.5180660000000  0.5540070000000  0.4170230000000 1.0
C      1  0.4628290000000  0.5441420000000  0.4120680000000 1.0
C      1  0.4445730000000  0.4878280000000  0.4103070000000 1.0
C      1  0.4833480000000  0.4451070000000  0.4149100000000 1.0
C      1  0.5390630000000  0.4574120000000  0.4127560000000 1.0
C      1  0.3773840000000  0.5090640000000  0.5216480000000 1.0
C      1  0.4481090000000  0.6143590000000  0.5199620000000 1.0
C      1  0.5728530000000  0.6018060000000  0.5251350000000 1.0
C      1  0.6254560000000  0.4914070000000  0.5206600000000 1.0
C      1  0.5528190000000  0.3862850000000  0.5216500000000 1.0
C      1  0.4287600000000  0.3968410000000  0.5264940000000 1.0
C      1  0.3752690000000  0.4892530000000  0.4743520000000 1.0
C      1  0.4458370000000  0.3880640000000  0.4787830000000 1.0
C      1  0.5729040000000  0.3973340000000  0.4805790000000 1.0
C      1  0.6247900000000  0.5115690000000  0.4759410000000 1.0
C      1  0.5559560000000  0.6128520000000  0.4806000000000 1.0
C      1  0.4277670000000  0.6033840000000  0.4785570000000 1.0
C      1  0.4245990000000  0.5682020000000  0.5128940000000 1.0
C      1  0.5226740000000  0.5979210000000  0.5163440000000 1.0
C      1  0.5986290000000  0.5342600000000  0.5225540000000 1.0
C      1  0.5760740000000  0.4326280000000  0.5158670000000 1.0
C      1  0.4777670000000  0.4003910000000  0.5190900000000 1.0
C      1  0.4013790000000  0.4645120000000  0.5242190000000 1.0
C      1  0.4193400000000  0.4312390000000  0.4764710000000 1.0
C      1  0.5205900000000  0.4015020000000  0.4863680000000 1.0
C      1  0.5959000000000  0.4701760000000  0.4847800000000 1.0
C      1  0.5796030000000  0.5679230000000  0.4788740000000 1.0
C      1  0.4800910000000  0.5988930000000  0.4851010000000 1.0
C      1  0.4017790000000  0.5309240000000  0.4797720000000 1.0
C      1  0.5024790000000  0.4269750000000  0.4282450000000 1.0
C      1  0.4487040000000  0.4694060000000  0.4338670000000 1.0
C      1  0.4364400000000  0.5367770000000  0.4240860000000 1.0
C      1  0.4997240000000  0.5705740000000  0.4320170000000 1.0
C      1  0.5501780000000  0.5296810000000  0.4365540000000 1.0
C      1  0.5623920000000  0.4653000000000  0.4288210000000 1.0
C      1  0.5004310000000  0.5733170000000  0.5746210000000 1.0
C      1  0.4372850000000  0.5387830000000  0.5729160000000 1.0
C      1  0.4479950000000  0.4705100000000  0.5673410000000 1.0
C      1  0.5005110000000  0.4284370000000  0.5738090000000 1.0
C      1  0.5637880000000  0.4634050000000  0.5731090000000 1.0
C      1  0.5523910000000  0.5291990000000  0.5661660000000 1.0
C      1  0.5920510000000  0.5476800000000  0.4613610000000 1.0
C      1  0.5910730000000  0.4436530000000  0.4703520000000 1.0
C      1  0.4973670000000  0.3924320000000  0.4688830000000 1.0
C      1  0.4059800000000  0.4511640000000  0.4587760000000 1.0
C      1  0.4080010000000  0.5578130000000  0.4666840000000 1.0
C      1  0.5053090000000  0.6078040000000  0.4705240000000 1.0
C      1  0.5958930000000  0.4503490000000  0.5306560000000 1.0
C      1  0.5877110000000  0.5554860000000  0.5399640000000 1.0
C      1  0.4970140000000  0.6066070000000  0.5307370000000 1.0
C      1  0.4072720000000  0.5511260000000  0.5313180000000 1.0
C      1  0.4122840000000  0.4429990000000  0.5419350000000 1.0
C      1  0.5041480000000  0.3957810000000  0.5323620000000 1.0
C      1  0.5466760000000  0.4047320000000  0.4687800000000 1.0
C      1  0.4385800000000  0.4117590000000  0.4631370000000 1.0
C      1  0.3902420000000  0.5103860000000  0.4600910000000 1.0
C      1  0.4543860000000  0.5961570000000  0.4671170000000 1.0
C      1  0.5628220000000  0.5885850000000  0.4644170000000 1.0
C      1  0.6079940000000  0.4903540000000  0.4648380000000 1.0
C      1  0.5460370000000  0.5980670000000  0.5361690000000 1.0
C      1  0.4409070000000  0.5878640000000  0.5310700000000 1.0
C      1  0.3945520000000  0.4912080000000  0.5370410000000 1.0
C      1  0.4550030000000  0.3998350000000  0.5397730000000 1.0
C      1  0.5620220000000  0.4119510000000  0.5345540000000 1.0
C      1  0.6079580000000  0.5093730000000  0.5369850000000 1.0
C      1  0.4381680000000  0.4958620000000  0.5188980000000 1.0
C      1  0.4559400000000  0.5403580000000  0.5291600000000 1.0
C      1  0.5210600000000  0.5495780000000  0.5303530000000 1.0
C      1  0.5627210000000  0.5007860000000  0.5194140000000 1.0
C      1  0.5280730000000  0.4457380000000  0.5175330000000 1.0
C      1  0.4787230000000  0.4474190000000  0.5317580000000 1.0
C      1  0.4443380000000  0.5049440000000  0.4696750000000 1.0
C      1  0.4649440000000  0.4470220000000  0.4815400000000 1.0
C      1  0.5152700000000  0.4447450000000  0.4669910000000 1.0
C      1  0.5539070000000  0.4920380000000  0.4693360000000 1.0
C      1  0.5328740000000  0.5537860000000  0.4822620000000 1.0
C      1  0.4705960000000  0.5509840000000  0.4817780000000 1.0
C      1  0.5667490000000  0.4784380000000  0.4953420000000 1.0
C      1  0.5114830000000  0.4305770000000  0.4955670000000 1.0
C      1  0.4371560000000  0.4508210000000  0.4901400000000 1.0
C      1  0.4297740000000  0.5204160000000  0.4922320000000 1.0
C      1  0.4872810000000  0.5714430000000  0.4949070000000 1.0
C      1  0.5606350000000  0.5491720000000  0.4925440000000 1.0
C      1  0.5727750000000  0.5273610000000  0.5091410000000 1.0
C      1  0.5159530000000  0.5685820000000  0.5057230000000 1.0
C      1  0.4454910000000  0.5457970000000  0.5009800000000 1.0
C      1  0.4270480000000  0.4699160000000  0.5102240000000 1.0
C      1  0.4817490000000  0.4297740000000  0.5062320000000 1.0
C      1  0.5551030000000  0.4515870000000  0.5058660000000 1.0
C      1  0.5702240000000  0.3781880000000  0.5010370000000 1.0
C      1  0.5744520000000  0.6165410000000  0.5015600000000 1.0
C      1  0.6379050000000  0.5056040000000  0.4997520000000 1.0
C      1  0.4300270000000  0.3845740000000  0.5015260000000 1.0
C      1  0.3656940000000  0.4970050000000  0.4993360000000 1.0
C      1  0.4304660000000  0.6221200000000  0.4994120000000 1.0
END
