TITL C-3578194-7807-601 -3.65656899874758e-07 125000 -1122.15258808864 0 0 181 (C1) n - 1
REM
REM in /home/bkarasulu/work/CARBON/AIRSS/Generating-Clusters/EDIP-Nigel-Params/with-SteepDescent/Higher-Symm/SD-CG/HFTN-CG
REM
REM
REM
REM
REM
REM ./C.cell (12c818d87b63d06a65506943cc24bca4)
REM
REM compiler GCC version 9.2.1 20190827 (Red Hat 9.2.1-1)
REM options -cpp -mtune=generic -march=x86-64 -g -O0 -fpre-include=/usr/include/finclude/math-vector-fortran.h
REM seed -1813396456 -1123293898 841125853 -608983855 164270597 1796787333 -844123963 -235850020 -1403659763 1692516612 817241525 365193313 1329761965 1000400192 -429614777 -1847828808 275768330 1801882381 2059114333 -1067700064 -119097893 1611130392 19265289 -257699273 1148369920 -266597020 1585178802 -883139627 -110698691 -2030163223 -701037981 1919807747 -1170799152
REM
CELL 1.54180   50.00000   50.00000   50.00000   90.00000   90.00000   90.00000
LATT -1
SFAC C  
C      1  0.5433050000000  0.4649330000000  0.4045330000000 1.0
C      1  0.4565520000000  0.3998520000000  0.5370200000000 1.0
C      1  0.4036590000000  0.5396640000000  0.4687210000000 1.0
C      1  0.5386080000000  0.5420350000000  0.6039200000000 1.0
C      1  0.4597830000000  0.4618880000000  0.6018050000000 1.0
C      1  0.4575810000000  0.5360580000000  0.3998120000000 1.0
C      1  0.4676940000000  0.5966310000000  0.4565000000000 1.0
C      1  0.5380820000000  0.3961310000000  0.4627590000000 1.0
C      1  0.5323560000000  0.6012280000000  0.5414800000000 1.0
C      1  0.3970050000000  0.4548680000000  0.5372660000000 1.0
C      1  0.5957040000000  0.5455350000000  0.5347710000000 1.0
C      1  0.5976840000000  0.4554030000000  0.4690210000000 1.0
C      1  0.4197250000000  0.5518120000000  0.4928790000000 1.0
C      1  0.5686310000000  0.4797970000000  0.4063510000000 1.0
C      1  0.4869060000000  0.4152570000000  0.5511470000000 1.0
C      1  0.4035830000000  0.4425130000000  0.5080070000000 1.0
C      1  0.5938850000000  0.5697410000000  0.5184950000000 1.0
C      1  0.5829080000000  0.4418900000000  0.4921410000000 1.0
C      1  0.5430110000000  0.5045120000000  0.5748160000000 1.0
C      1  0.4430130000000  0.4844410000000  0.5894310000000 1.0
C      1  0.4466160000000  0.5105210000000  0.4151530000000 1.0
C      1  0.4896210000000  0.5930500000000  0.4364870000000 1.0
C      1  0.5029580000000  0.4273720000000  0.4581250000000 1.0
C      1  0.5074590000000  0.5861020000000  0.5540130000000 1.0
C      1  0.4931980000000  0.4744270000000  0.4140850000000 1.0
C      1  0.4698180000000  0.4083000000000  0.4919030000000 1.0
C      1  0.4094840000000  0.4919610000000  0.4766240000000 1.0
C      1  0.4976320000000  0.5276250000000  0.5925600000000 1.0
C      1  0.5085900000000  0.4715840000000  0.5938510000000 1.0
C      1  0.5029570000000  0.5282560000000  0.4083770000000 1.0
C      1  0.4726130000000  0.5832610000000  0.5050580000000 1.0
C      1  0.5237040000000  0.4073030000000  0.5057670000000 1.0
C      1  0.5300910000000  0.5919970000000  0.4939140000000 1.0
C      1  0.4110720000000  0.5022170000000  0.5324260000000 1.0
C      1  0.5830360000000  0.4976310000000  0.5282620000000 1.0
C      1  0.5909440000000  0.5030530000000  0.4712580000000 1.0
C      1  0.4329640000000  0.5868170000000  0.5377640000000 1.0
C      1  0.5890400000000  0.5389440000000  0.4323430000000 1.0
C      1  0.5455920000000  0.4329030000000  0.5877950000000 1.0
C      1  0.4333030000000  0.4115460000000  0.4522250000000 1.0
C      1  0.5710610000000  0.5912100000000  0.4537090000000 1.0
C      1  0.5637610000000  0.4149100000000  0.5398350000000 1.0
C      1  0.5881020000000  0.4623220000000  0.5647350000000 1.0
C      1  0.4113010000000  0.5426810000000  0.5688300000000 1.0
C      1  0.4166140000000  0.4605520000000  0.4364270000000 1.0
C      1  0.5408990000000  0.5690230000000  0.4080940000000 1.0
C      1  0.4613350000000  0.4342250000000  0.4106050000000 1.0
C      1  0.4604930000000  0.5641520000000  0.5841050000000 1.0
C      1  0.4338790000000  0.4171880000000  0.5276260000000 1.0
C      1  0.4213940000000  0.5315370000000  0.4455110000000 1.0
C      1  0.5362940000000  0.4449640000000  0.4266610000000 1.0
C      1  0.4471640000000  0.5747740000000  0.4621120000000 1.0
C      1  0.5553770000000  0.4181250000000  0.4666850000000 1.0
C      1  0.5562930000000  0.5870710000000  0.5338910000000 1.0
C      1  0.4190700000000  0.4588210000000  0.5581260000000 1.0
C      1  0.5737760000000  0.5388990000000  0.5557900000000 1.0
C      1  0.5846680000000  0.4631170000000  0.4442710000000 1.0
C      1  0.5343070000000  0.5594300000000  0.5817800000000 1.0
C      1  0.4675150000000  0.4382720000000  0.5835150000000 1.0
C      1  0.4658950000000  0.5583880000000  0.4162940000000 1.0
C      1  0.5737960000000  0.5128040000000  0.5722590000000 1.0
C      1  0.5097220000000  0.5755660000000  0.5834350000000 1.0
C      1  0.5754130000000  0.5910950000000  0.5123880000000 1.0
C      1  0.5903870000000  0.4842970000000  0.4251280000000 1.0
C      1  0.4114980000000  0.5089050000000  0.4299520000000 1.0
C      1  0.4157780000000  0.4833880000000  0.5763640000000 1.0
C      1  0.5102280000000  0.4293830000000  0.4264570000000 1.0
C      1  0.4884250000000  0.5758820000000  0.4130780000000 1.0
C      1  0.4937040000000  0.4247460000000  0.5877310000000 1.0
C      1  0.5716260000000  0.4144690000000  0.4904000000000 1.0
C      1  0.4292110000000  0.5794210000000  0.4862340000000 1.0
C      1  0.4212540000000  0.4089260000000  0.5023800000000 1.0
C      1  0.5103200000000  0.5224570000000  0.5653690000000 1.0
C      1  0.5296050000000  0.5644870000000  0.5061130000000 1.0
C      1  0.5505080000000  0.5046490000000  0.5287380000000 1.0
C      1  0.5028250000000  0.4737690000000  0.4513910000000 1.0
C      1  0.4913310000000  0.5245430000000  0.4373850000000 1.0
C      1  0.4958010000000  0.4728000000000  0.5660520000000 1.0
C      1  0.5195740000000  0.4351540000000  0.4921510000000 1.0
C      1  0.4706900000000  0.5490260000000  0.4974960000000 1.0
C      1  0.4705520000000  0.4361680000000  0.5050450000000 1.0
C      1  0.5626970000000  0.4945660000000  0.4700830000000 1.0
C      1  0.4387150000000  0.5026080000000  0.4794620000000 1.0
C      1  0.4402370000000  0.4910720000000  0.5329590000000 1.0
C      1  0.5518130000000  0.4844530000000  0.4455930000000 1.0
C      1  0.4722710000000  0.4552820000000  0.5595000000000 1.0
C      1  0.4625860000000  0.5488760000000  0.4676820000000 1.0
C      1  0.5495190000000  0.5348980000000  0.5385780000000 1.0
C      1  0.4457160000000  0.4631680000000  0.5433950000000 1.0
C      1  0.4467140000000  0.5229640000000  0.4594470000000 1.0
C      1  0.4858150000000  0.5509710000000  0.4488170000000 1.0
C      1  0.5326200000000  0.4622610000000  0.4508740000000 1.0
C      1  0.5248840000000  0.5453560000000  0.5546360000000 1.0
C      1  0.4462540000000  0.4440820000000  0.5196890000000 1.0
C      1  0.5544990000000  0.5526350000000  0.5156910000000 1.0
C      1  0.5419360000000  0.4449920000000  0.4755870000000 1.0
C      1  0.4139490000000  0.4375220000000  0.4551670000000 1.0
C      1  0.4439050000000  0.4582550000000  0.4096070000000 1.0
C      1  0.4595970000000  0.4219400000000  0.4381700000000 1.0
C      1  0.4197250000000  0.5591250000000  0.5409250000000 1.0
C      1  0.5870540000000  0.4461110000000  0.5384950000000 1.0
C      1  0.5875490000000  0.5607210000000  0.4540080000000 1.0
C      1  0.4395900000000  0.5424480000000  0.5853040000000 1.0
C      1  0.5613650000000  0.4592580000000  0.5785530000000 1.0
C      1  0.5595210000000  0.5457140000000  0.4084340000000 1.0
C      1  0.4574510000000  0.5877410000000  0.5544670000000 1.0
C      1  0.5419060000000  0.4157350000000  0.5604470000000 1.0
C      1  0.5446810000000  0.5843270000000  0.4353890000000 1.0
C      1  0.5169880000000  0.3918970000000  0.4807710000000 1.0
C      1  0.3911650000000  0.4812160000000  0.5243590000000 1.0
C      1  0.4809820000000  0.5192260000000  0.3900840000000 1.0
C      1  0.5170430000000  0.6077360000000  0.5166820000000 1.0
C      1  0.4758910000000  0.3915370000000  0.5161990000000 1.0
C      1  0.4829580000000  0.5980640000000  0.4810390000000 1.0
C      1  0.3949220000000  0.5164640000000  0.4856210000000 1.0
C      1  0.6047510000000  0.4794390000000  0.4843510000000 1.0
C      1  0.5983640000000  0.5213330000000  0.5180400000000 1.0
C      1  0.4831340000000  0.4800860000000  0.6078810000000 1.0
C      1  0.5212660000000  0.5203850000000  0.6097810000000 1.0
C      1  0.5193100000000  0.4822710000000  0.4008630000000 1.0
C      1  0.4409280000000  0.4029500000000  0.4815060000000 1.0
C      1  0.4053080000000  0.4861680000000  0.4467210000000 1.0
C      1  0.4900320000000  0.4443610000000  0.4090360000000 1.0
C      1  0.4438060000000  0.5918100000000  0.5092850000000 1.0
C      1  0.5540020000000  0.4056860000000  0.5130330000000 1.0
C      1  0.5606330000000  0.5975660000000  0.4859900000000 1.0
C      1  0.4050690000000  0.5097670000000  0.5615010000000 1.0
C      1  0.5905050000000  0.4922740000000  0.5571610000000 1.0
C      1  0.5962040000000  0.5100160000000  0.4412850000000 1.0
C      1  0.4883180000000  0.5570480000000  0.5931220000000 1.0
C      1  0.5162510000000  0.4414600000000  0.5975970000000 1.0
C      1  0.5117420000000  0.5585820000000  0.4056700000000 1.0
C      1  0.4874260000000  0.4522530000000  0.4644110000000 1.0
C      1  0.4357570000000  0.4620800000000  0.4966500000000 1.0
C      1  0.4641860000000  0.5081090000000  0.4401300000000 1.0
C      1  0.4989670000000  0.5524070000000  0.5350550000000 1.0
C      1  0.5007750000000  0.4415400000000  0.5365440000000 1.0
C      1  0.5113440000000  0.5603920000000  0.4643100000000 1.0
C      1  0.4490880000000  0.5326910000000  0.5106080000000 1.0
C      1  0.5516810000000  0.4644850000000  0.5000820000000 1.0
C      1  0.5629800000000  0.5359220000000  0.4909920000000 1.0
C      1  0.4662300000000  0.5049660000000  0.5657320000000 1.0
C      1  0.5359730000000  0.4895720000000  0.5496120000000 1.0
C      1  0.5353890000000  0.5091400000000  0.4359770000000 1.0
C      1  0.4600660000000  0.4874040000000  0.4934390000000 1.0
C      1  0.4981930000000  0.4959940000000  0.4721560000000 1.0
C      1  0.4828050000000  0.4597330000000  0.4933800000000 1.0
C      1  0.4611020000000  0.5050320000000  0.5180450000000 1.0
C      1  0.5346260000000  0.4944500000000  0.5042580000000 1.0
C      1  0.5438780000000  0.5127500000000  0.4819290000000 1.0
C      1  0.4901370000000  0.5105200000000  0.5439270000000 1.0
C      1  0.5070950000000  0.4852390000000  0.5419770000000 1.0
C      1  0.5132650000000  0.5163890000000  0.4571380000000 1.0
C      1  0.4962250000000  0.5344180000000  0.5072120000000 1.0
C      1  0.5088210000000  0.4585960000000  0.5098210000000 1.0
C      1  0.5161710000000  0.5459540000000  0.4896500000000 1.0
C      1  0.5619990000000  0.5573270000000  0.4707820000000 1.0
C      1  0.5454830000000  0.4623420000000  0.5522580000000 1.0
C      1  0.4696970000000  0.5613410000000  0.5462990000000 1.0
C      1  0.5586180000000  0.4515940000000  0.5281370000000 1.0
C      1  0.4465350000000  0.5444080000000  0.5377700000000 1.0
C      1  0.4385950000000  0.4451760000000  0.4718290000000 1.0
C      1  0.5506260000000  0.5347730000000  0.4346150000000 1.0
C      1  0.4538460000000  0.4713300000000  0.4340770000000 1.0
C      1  0.4453110000000  0.5251620000000  0.5604610000000 1.0
C      1  0.4610510000000  0.4490860000000  0.4525240000000 1.0
C      1  0.5391680000000  0.5579250000000  0.4509270000000 1.0
C      1  0.5248750000000  0.4414880000000  0.5553880000000 1.0
C      1  0.4712380000000  0.4915380000000  0.3995770000000 1.0
C      1  0.4912310000000  0.4026140000000  0.4704290000000 1.0
C      1  0.3941820000000  0.4710810000000  0.4960240000000 1.0
C      1  0.4748670000000  0.5076650000000  0.5961840000000 1.0
C      1  0.5306880000000  0.4931920000000  0.5999440000000 1.0
C      1  0.5257770000000  0.5093040000000  0.4079290000000 1.0
C      1  0.4909950000000  0.5948580000000  0.5268010000000 1.0
C      1  0.5029610000000  0.3985570000000  0.5274580000000 1.0
C      1  0.5096960000000  0.5906370000000  0.4698670000000 1.0
C      1  0.4057510000000  0.5246850000000  0.5126660000000 1.0
C      1  0.5930230000000  0.4738030000000  0.5121420000000 1.0
C      1  0.5913220000000  0.5267300000000  0.4902200000000 1.0
C      1  0.5015360000000  0.4989880000000  0.5031270000000 1.0
END
