TITL C-3577087-600-168 -1.04663937917722e-07 125000 -856.377951044018 0 0 136 (C1) n - 1
REM
REM in /home/bkarasulu/work/CARBON/AIRSS/Generating-Clusters/EDIP-Nigel-Params/with-SteepDescent/Higher-Symm/SD-CG/HFTN-CG
REM
REM
REM
REM
REM
REM ./C.cell (12c818d87b63d06a65506943cc24bca4)
REM
REM compiler GCC version 9.2.1 20190827 (Red Hat 9.2.1-1)
REM options -cpp -mtune=generic -march=x86-64 -g -O0 -fpre-include=/usr/include/finclude/math-vector-fortran.h
REM seed 273111998 520389704 1022382973 -1465773720 -870471059 423922896 357605151 -901965429 1430885660 1017145279 -1480922517 -1405885558 -1598016199 950692285 2011142145 1221615531 -1996048399 -528105991 1648995527 -2116116340 1823986919 -798293128 226933616 -1212401596 483688849 -1816876088 -1545491282 -1475687009 1476084745 1272374464 1536104420 1183831965 855526181
REM
CELL 1.54180   50.00000   50.00000   50.00000   90.00000   90.00000   90.00000
LATT -1
SFAC C  
C      1  0.4522650000000  0.4813500000000  0.5288350000000 1.0
C      1  0.4444940000000  0.5184260000000  0.5264000000000 1.0
C      1  0.4567920000000  0.5141910000000  0.4993170000000 1.0
C      1  0.4488480000000  0.4918260000000  0.4804540000000 1.0
C      1  0.4462010000000  0.4664990000000  0.5029780000000 1.0
C      1  0.5555890000000  0.4817270000000  0.5108570000000 1.0
C      1  0.5512540000000  0.5110100000000  0.5075400000000 1.0
C      1  0.5523300000000  0.5301550000000  0.4829800000000 1.0
C      1  0.5539560000000  0.4833980000000  0.4602610000000 1.0
C      1  0.5428290000000  0.4693540000000  0.4864200000000 1.0
C      1  0.5154380000000  0.4256180000000  0.4559030000000 1.0
C      1  0.5109460000000  0.4306900000000  0.5610010000000 1.0
C      1  0.5156630000000  0.5393670000000  0.5856920000000 1.0
C      1  0.5156700000000  0.5889110000000  0.4920480000000 1.0
C      1  0.5157040000000  0.5197620000000  0.4126080000000 1.0
C      1  0.4858990000000  0.4234110000000  0.4533770000000 1.0
C      1  0.4807730000000  0.4317510000000  0.5594810000000 1.0
C      1  0.4850240000000  0.5393860000000  0.5856770000000 1.0
C      1  0.4877070000000  0.5814020000000  0.4939850000000 1.0
C      1  0.4862530000000  0.5196430000000  0.4131060000000 1.0
C      1  0.5296850000000  0.4940790000000  0.4061100000000 1.0
C      1  0.5286800000000  0.4222280000000  0.4822440000000 1.0
C      1  0.5246990000000  0.4523060000000  0.5769070000000 1.0
C      1  0.5299980000000  0.5581370000000  0.5660920000000 1.0
C      1  0.5312660000000  0.5793690000000  0.4663650000000 1.0
C      1  0.4714900000000  0.4929980000000  0.4093670000000 1.0
C      1  0.4697810000000  0.4149780000000  0.4781780000000 1.0
C      1  0.4667330000000  0.4575820000000  0.5687060000000 1.0
C      1  0.4701480000000  0.5613480000000  0.5699430000000 1.0
C      1  0.4724980000000  0.5735460000000  0.4696260000000 1.0
C      1  0.5200080000000  0.5505650000000  0.5142820000000 1.0
C      1  0.5451270000000  0.5147660000000  0.4579190000000 1.0
C      1  0.5290800000000  0.4725510000000  0.4439430000000 1.0
C      1  0.5184160000000  0.4535740000000  0.5240200000000 1.0
C      1  0.5280140000000  0.4918410000000  0.5568350000000 1.0
C      1  0.4555680000000  0.5480430000000  0.5323040000000 1.0
C      1  0.4698470000000  0.5178380000000  0.4579980000000 1.0
C      1  0.4650730000000  0.4641580000000  0.4630360000000 1.0
C      1  0.4728340000000  0.4482860000000  0.5073890000000 1.0
C      1  0.4739890000000  0.5126690000000  0.5507160000000 1.0
C      1  0.4212020000000  0.4674400000000  0.4565710000000 1.0
C      1  0.4095940000000  0.4478010000000  0.5177390000000 1.0
C      1  0.4117990000000  0.5064300000000  0.5509440000000 1.0
C      1  0.4152800000000  0.5496250000000  0.5150810000000 1.0
C      1  0.4112680000000  0.5291320000000  0.4532600000000 1.0
C      1  0.5891430000000  0.4666190000000  0.4571650000000 1.0
C      1  0.5857030000000  0.4588960000000  0.5196340000000 1.0
C      1  0.5814060000000  0.5033100000000  0.5490930000000 1.0
C      1  0.5906390000000  0.5566590000000  0.5121230000000 1.0
C      1  0.5865260000000  0.5283860000000  0.4502500000000 1.0
C      1  0.5296960000000  0.4427470000000  0.4346120000000 1.0
C      1  0.5253510000000  0.4262900000000  0.5324560000000 1.0
C      1  0.5275570000000  0.5113940000000  0.5903180000000 1.0
C      1  0.5278960000000  0.5809390000000  0.5196960000000 1.0
C      1  0.5310480000000  0.5393140000000  0.4316030000000 1.0
C      1  0.4719550000000  0.4468230000000  0.4362210000000 1.0
C      1  0.4691510000000  0.4157310000000  0.5351500000000 1.0
C      1  0.4695900000000  0.5065240000000  0.5801690000000 1.0
C      1  0.4743650000000  0.5859470000000  0.5206490000000 1.0
C      1  0.4720930000000  0.5374880000000  0.4341090000000 1.0
C      1  0.5250790000000  0.5144160000000  0.5188700000000 1.0
C      1  0.5244480000000  0.5463340000000  0.4858180000000 1.0
C      1  0.5155550000000  0.5111840000000  0.4613860000000 1.0
C      1  0.5081490000000  0.4754610000000  0.4868570000000 1.0
C      1  0.5379890000000  0.4725400000000  0.5342710000000 1.0
C      1  0.4949970000000  0.5335680000000  0.5479260000000 1.0
C      1  0.4850790000000  0.5212170000000  0.4995560000000 1.0
C      1  0.4774840000000  0.4890930000000  0.4495080000000 1.0
C      1  0.4859120000000  0.4557060000000  0.4835180000000 1.0
C      1  0.4839700000000  0.4865300000000  0.5333360000000 1.0
C      1  0.5554080000000  0.5479790000000  0.5538410000000 1.0
C      1  0.5605260000000  0.5658130000000  0.4716020000000 1.0
C      1  0.5572150000000  0.4937420000000  0.4175760000000 1.0
C      1  0.5531420000000  0.4404380000000  0.4854460000000 1.0
C      1  0.5529250000000  0.4562920000000  0.5660180000000 1.0
C      1  0.4390490000000  0.5559650000000  0.5671390000000 1.0
C      1  0.4461050000000  0.5617000000000  0.4741290000000 1.0
C      1  0.4440080000000  0.4947660000000  0.4211320000000 1.0
C      1  0.4438410000000  0.4291560000000  0.4802950000000 1.0
C      1  0.4419700000000  0.4666140000000  0.5537220000000 1.0
C      1  0.5100110000000  0.4769840000000  0.5874020000000 1.0
C      1  0.5149350000000  0.5778730000000  0.5488620000000 1.0
C      1  0.5158270000000  0.5624390000000  0.4456430000000 1.0
C      1  0.5149660000000  0.4664250000000  0.4081540000000 1.0
C      1  0.5141650000000  0.4128350000000  0.5069780000000 1.0
C      1  0.4809420000000  0.4786190000000  0.5833290000000 1.0
C      1  0.4853900000000  0.5769310000000  0.5482200000000 1.0
C      1  0.4863800000000  0.5627310000000  0.4454400000000 1.0
C      1  0.4856010000000  0.4661770000000  0.4134790000000 1.0
C      1  0.4838360000000  0.4106730000000  0.5064030000000 1.0
C      1  0.5579730000000  0.5854180000000  0.5196950000000 1.0
C      1  0.5582840000000  0.5472020000000  0.4221470000000 1.0
C      1  0.5601850000000  0.4423140000000  0.4342900000000 1.0
C      1  0.5554160000000  0.4252120000000  0.5343130000000 1.0
C      1  0.5571910000000  0.5076400000000  0.5859110000000 1.0
C      1  0.4454480000000  0.5861020000000  0.5182930000000 1.0
C      1  0.4437920000000  0.5439540000000  0.4269370000000 1.0
C      1  0.4435640000000  0.4410170000000  0.4292950000000 1.0
C      1  0.4398100000000  0.4189900000000  0.5323680000000 1.0
C      1  0.4401220000000  0.5066080000000  0.5850090000000 1.0
C      1  0.4255010000000  0.4871920000000  0.5682780000000 1.0
C      1  0.4228990000000  0.5669710000000  0.5425780000000 1.0
C      1  0.4296170000000  0.5522560000000  0.4514050000000 1.0
C      1  0.4283200000000  0.4709200000000  0.4269990000000 1.0
C      1  0.4278900000000  0.4262140000000  0.5048100000000 1.0
C      1  0.5687850000000  0.4825440000000  0.5710790000000 1.0
C      1  0.5723070000000  0.5657230000000  0.5372930000000 1.0
C      1  0.5758140000000  0.5568930000000  0.4467130000000 1.0
C      1  0.5707270000000  0.4682960000000  0.4233020000000 1.0
C      1  0.5688910000000  0.4370030000000  0.5112030000000 1.0
C      1  0.4065980000000  0.5231760000000  0.5046070000000 1.0
C      1  0.4103860000000  0.5128000000000  0.4772160000000 1.0
C      1  0.4064520000000  0.4836340000000  0.4765570000000 1.0
C      1  0.4083950000000  0.4761530000000  0.5060080000000 1.0
C      1  0.4043590000000  0.5009250000000  0.5232060000000 1.0
C      1  0.5916700000000  0.5281460000000  0.5032210000000 1.0
C      1  0.5934870000000  0.5161130000000  0.4761030000000 1.0
C      1  0.5937420000000  0.4871030000000  0.4787860000000 1.0
C      1  0.5986580000000  0.4811530000000  0.5071160000000 1.0
C      1  0.5965260000000  0.5062810000000  0.5231220000000 1.0
C      1  0.5711120000000  0.5264350000000  0.5661230000000 1.0
C      1  0.5755610000000  0.5777690000000  0.4948700000000 1.0
C      1  0.5721040000000  0.5192590000000  0.4235390000000 1.0
C      1  0.5724580000000  0.4409070000000  0.4616760000000 1.0
C      1  0.5670660000000  0.4321220000000  0.5589850000000 1.0
C      1  0.4266850000000  0.5308750000000  0.5765060000000 1.0
C      1  0.4328780000000  0.5675510000000  0.4995630000000 1.0
C      1  0.4289030000000  0.5194400000000  0.4214730000000 1.0
C      1  0.4291890000000  0.4385320000000  0.4569820000000 1.0
C      1  0.4243790000000  0.4431940000000  0.5454080000000 1.0
C      1  0.4896660000000  0.5446650000000  0.5186220000000 1.0
C      1  0.5064700000000  0.4858060000000  0.4584260000000 1.0
C      1  0.4963060000000  0.5298580000000  0.4729130000000 1.0
C      1  0.5225100000000  0.5191570000000  0.5470430000000 1.0
C      1  0.4901160000000  0.4568340000000  0.5314520000000 1.0
C      1  0.5007260000000  0.4977010000000  0.5091040000000 1.0
END
