TITL C-3578199-7832-717 -2.44845733826382e-06 125000 -687.262825599675 0 0 111 (C1) n - 1
REM
REM in /home/bkarasulu/work/CARBON/AIRSS/Generating-Clusters/EDIP-Nigel-Params/with-SteepDescent/Higher-Symm/SD-CG/HFTN-CG
REM
REM
REM
REM
REM
REM ./C.cell (12c818d87b63d06a65506943cc24bca4)
REM
REM compiler GCC version 9.2.1 20190827 (Red Hat 9.2.1-1)
REM options -cpp -mtune=generic -march=x86-64 -g -O0 -fpre-include=/usr/include/finclude/math-vector-fortran.h
REM seed -1752417809 -660186100 -1221448060 -552690431 722557326 1684091828 1321266706 -1896532814 428707035 148724298 167548457 -412967461 2101697287 1561602084 1120580756 -1590991177 4827751 2040535097 -1557615416 -1217855632 -1110877702 -1936140861 -1949486111 -126424173 -1498348937 -1843186033 987682136 1207730200 -2025730742 76786151 1606626753 409651976 -806797147
REM
CELL 1.54180   50.00000   50.00000   50.00000   90.00000   90.00000   90.00000
LATT -1
SFAC C  
C      1  0.4600010000000  0.5316930000000  0.4244980000000 1.0
C      1  0.5960800000000  0.5329110000000  0.5004350000000 1.0
C      1  0.4541070000000  0.5305580000000  0.5757590000000 1.0
C      1  0.4527160000000  0.5759660000000  0.5249980000000 1.0
C      1  0.5052820000000  0.5712570000000  0.4507130000000 1.0
C      1  0.5374320000000  0.5756260000000  0.5244670000000 1.0
C      1  0.5613980000000  0.4190810000000  0.4830800000000 1.0
C      1  0.4892870000000  0.4224690000000  0.5539100000000 1.0
C      1  0.4559400000000  0.4203840000000  0.4505860000000 1.0
C      1  0.4408420000000  0.5053870000000  0.5822280000000 1.0
C      1  0.4617920000000  0.5084960000000  0.4071070000000 1.0
C      1  0.6053180000000  0.5068810000000  0.5112410000000 1.0
C      1  0.5049200000000  0.4271490000000  0.4637640000000 1.0
C      1  0.5446120000000  0.4209340000000  0.5264830000000 1.0
C      1  0.4555620000000  0.4208600000000  0.5199840000000 1.0
C      1  0.5137730000000  0.4879240000000  0.5796000000000 1.0
C      1  0.4166060000000  0.4879720000000  0.4623410000000 1.0
C      1  0.5685860000000  0.4875400000000  0.4504920000000 1.0
C      1  0.5259780000000  0.4977240000000  0.4541900000000 1.0
C      1  0.5244340000000  0.4992620000000  0.5514550000000 1.0
C      1  0.4445850000000  0.5107570000000  0.5088270000000 1.0
C      1  0.4556040000000  0.4836000000000  0.5109370000000 1.0
C      1  0.5066750000000  0.4775790000000  0.4643010000000 1.0
C      1  0.5228480000000  0.4783980000000  0.5304570000000 1.0
C      1  0.5594470000000  0.4938990000000  0.5661760000000 1.0
C      1  0.4015360000000  0.4906770000000  0.5236920000000 1.0
C      1  0.5307450000000  0.4886070000000  0.4171700000000 1.0
C      1  0.5525620000000  0.5648340000000  0.5454700000000 1.0
C      1  0.4278920000000  0.5630560000000  0.5216030000000 1.0
C      1  0.5155820000000  0.5616320000000  0.4262150000000 1.0
C      1  0.4610810000000  0.4836780000000  0.5828760000000 1.0
C      1  0.4477130000000  0.4863030000000  0.4205000000000 1.0
C      1  0.5928220000000  0.4860460000000  0.4944040000000 1.0
C      1  0.4841920000000  0.4193460000000  0.5267330000000 1.0
C      1  0.4762580000000  0.4251880000000  0.4692170000000 1.0
C      1  0.5389940000000  0.4192380000000  0.4994510000000 1.0
C      1  0.4701290000000  0.5784820000000  0.5025100000000 1.0
C      1  0.5201040000000  0.5888850000000  0.4670480000000 1.0
C      1  0.5111840000000  0.5849840000000  0.5286560000000 1.0
C      1  0.4264130000000  0.5344180000000  0.4650590000000 1.0
C      1  0.5703250000000  0.5357810000000  0.4518430000000 1.0
C      1  0.5075540000000  0.5382470000000  0.5833860000000 1.0
C      1  0.4267810000000  0.4988900000000  0.4367120000000 1.0
C      1  0.5883040000000  0.4974030000000  0.4688580000000 1.0
C      1  0.4864620000000  0.4972680000000  0.5865330000000 1.0
C      1  0.5679080000000  0.4461860000000  0.4796300000000 1.0
C      1  0.4893030000000  0.4512470000000  0.5574570000000 1.0
C      1  0.4441760000000  0.4454370000000  0.4463650000000 1.0
C      1  0.4710110000000  0.4428180000000  0.4920350000000 1.0
C      1  0.5186690000000  0.4384590000000  0.4890520000000 1.0
C      1  0.4952780000000  0.4421840000000  0.5098960000000 1.0
C      1  0.4803430000000  0.5611260000000  0.4591630000000 1.0
C      1  0.5448260000000  0.5645670000000  0.4998840000000 1.0
C      1  0.4695580000000  0.5646330000000  0.5447130000000 1.0
C      1  0.4239250000000  0.4492000000000  0.4956020000000 1.0
C      1  0.5397130000000  0.4487140000000  0.4381660000000 1.0
C      1  0.5375450000000  0.4479850000000  0.5653140000000 1.0
C      1  0.5212110000000  0.5362190000000  0.5119300000000 1.0
C      1  0.4790650000000  0.5424530000000  0.5143430000000 1.0
C      1  0.5037700000000  0.5374700000000  0.4793610000000 1.0
C      1  0.5536530000000  0.4410990000000  0.5430950000000 1.0
C      1  0.4377720000000  0.4438290000000  0.5200890000000 1.0
C      1  0.5120020000000  0.4416580000000  0.4388810000000 1.0
C      1  0.5130760000000  0.4581850000000  0.5752820000000 1.0
C      1  0.4288620000000  0.4608240000000  0.4689710000000 1.0
C      1  0.5613450000000  0.4591540000000  0.4535290000000 1.0
C      1  0.5634240000000  0.5127970000000  0.4349160000000 1.0
C      1  0.5305040000000  0.5212370000000  0.5892840000000 1.0
C      1  0.4130120000000  0.5126800000000  0.4794070000000 1.0
C      1  0.5328190000000  0.4868040000000  0.5047130000000 1.0
C      1  0.4799350000000  0.4895830000000  0.5248360000000 1.0
C      1  0.4851400000000  0.4893480000000  0.4781790000000 1.0
C      1  0.5492300000000  0.5547860000000  0.4540940000000 1.0
C      1  0.5133140000000  0.5572260000000  0.5636590000000 1.0
C      1  0.4363050000000  0.5574630000000  0.4785020000000 1.0
C      1  0.4959270000000  0.5744290000000  0.5495420000000 1.0
C      1  0.4607620000000  0.5720570000000  0.4766020000000 1.0
C      1  0.5431960000000  0.5745890000000  0.4735800000000 1.0
C      1  0.4347110000000  0.5269370000000  0.4383530000000 1.0
C      1  0.5879150000000  0.5258370000000  0.4732290000000 1.0
C      1  0.4822150000000  0.5243420000000  0.5798880000000 1.0
C      1  0.4178890000000  0.4989070000000  0.5676430000000 1.0
C      1  0.4884890000000  0.5024780000000  0.3999910000000 1.0
C      1  0.5978730000000  0.5034860000000  0.5385430000000 1.0
C      1  0.5098390000000  0.5263100000000  0.5410640000000 1.0
C      1  0.4610870000000  0.5307360000000  0.4917970000000 1.0
C      1  0.5322210000000  0.5247290000000  0.4711740000000 1.0
C      1  0.5550250000000  0.5216850000000  0.5727600000000 1.0
C      1  0.4057750000000  0.5156690000000  0.5099480000000 1.0
C      1  0.5392540000000  0.5165550000000  0.4172450000000 1.0
C      1  0.4603250000000  0.4606770000000  0.5645320000000 1.0
C      1  0.4612460000000  0.4618000000000  0.4289760000000 1.0
C      1  0.5817100000000  0.4602210000000  0.5022610000000 1.0
C      1  0.5430990000000  0.5150890000000  0.5023190000000 1.0
C      1  0.4796300000000  0.5182500000000  0.5363100000000 1.0
C      1  0.4810340000000  0.5172820000000  0.4696440000000 1.0
C      1  0.4967210000000  0.4654060000000  0.5304260000000 1.0
C      1  0.4624380000000  0.4715320000000  0.4855960000000 1.0
C      1  0.5301040000000  0.4679770000000  0.4808160000000 1.0
C      1  0.4376130000000  0.4611040000000  0.5442620000000 1.0
C      1  0.4913660000000  0.4601970000000  0.4265600000000 1.0
C      1  0.5727250000000  0.4602800000000  0.5310890000000 1.0
C      1  0.5674770000000  0.5220700000000  0.5232320000000 1.0
C      1  0.4404060000000  0.5209090000000  0.5410400000000 1.0
C      1  0.4934580000000  0.5167180000000  0.4360070000000 1.0
C      1  0.5772200000000  0.4854400000000  0.5455640000000 1.0
C      1  0.4179520000000  0.4828950000000  0.5450400000000 1.0
C      1  0.5037460000000  0.4816390000000  0.4112860000000 1.0
C      1  0.5566480000000  0.5371240000000  0.5472900000000 1.0
C      1  0.4176720000000  0.5381800000000  0.5296020000000 1.0
C      1  0.5180800000000  0.5338200000000  0.4304740000000 1.0
END
