TITL C-3578198-8939-65 4.36657241586635e-07 125000 -328.867113587279 0 0 55 (C1) n - 1
REM
REM in /home/bkarasulu/work/CARBON/AIRSS/Generating-Clusters/EDIP-Nigel-Params/with-SteepDescent/Higher-Symm/SD-CG/HFTN-CG
REM
REM
REM
REM
REM
REM ./C.cell (12c818d87b63d06a65506943cc24bca4)
REM
REM compiler GCC version 9.2.1 20190827 (Red Hat 9.2.1-1)
REM options -cpp -mtune=generic -march=x86-64 -g -O0 -fpre-include=/usr/include/finclude/math-vector-fortran.h
REM seed 1256904104 1391102138 -1223202015 266078073 -1512488441 979781885 -1293868926 392250401 794643640 1421125751 1101717816 -1121092448 235027764 1597337726 919862583 1968903945 -127407904 1334140263 1168254115 1734117921 -1574046302 43885481 -750237410 8369041 -1268619246 1375751687 2109227274 766671323 -1475772503 -1856608281 -983095210 -1319259170 173534641
REM
CELL 1.54180   50.00000   50.00000   50.00000   90.00000   90.00000   90.00000
LATT -1
SFAC C  
C      1  0.4625510000000  0.5589820000000  0.5073210000000 1.0
C      1  0.4566900000000  0.5485250000000  0.4560820000000 1.0
C      1  0.5362350000000  0.5381510000000  0.4460720000000 1.0
C      1  0.5583760000000  0.5514660000000  0.5148410000000 1.0
C      1  0.5383860000000  0.5475050000000  0.5558810000000 1.0
C      1  0.4747380000000  0.5520840000000  0.5546600000000 1.0
C      1  0.5427920000000  0.4428790000000  0.5074830000000 1.0
C      1  0.5265660000000  0.4410950000000  0.4440250000000 1.0
C      1  0.4752830000000  0.4447140000000  0.4492350000000 1.0
C      1  0.4475600000000  0.4469020000000  0.4937180000000 1.0
C      1  0.4678680000000  0.4497020000000  0.5414000000000 1.0
C      1  0.5361920000000  0.4509310000000  0.5551060000000 1.0
C      1  0.5083960000000  0.4746790000000  0.5251970000000 1.0
C      1  0.4815570000000  0.4885160000000  0.5223660000000 1.0
C      1  0.4721570000000  0.4867690000000  0.4924460000000 1.0
C      1  0.4928620000000  0.4807870000000  0.4685680000000 1.0
C      1  0.5196430000000  0.4691480000000  0.4775660000000 1.0
C      1  0.5270090000000  0.4843440000000  0.5028650000000 1.0
C      1  0.4816250000000  0.5175180000000  0.5277080000000 1.0
C      1  0.5099530000000  0.5268550000000  0.5238630000000 1.0
C      1  0.5388000000000  0.5292880000000  0.4835500000000 1.0
C      1  0.5015350000000  0.5078360000000  0.4604210000000 1.0
C      1  0.4706450000000  0.5164540000000  0.4825480000000 1.0
C      1  0.4607760000000  0.5288530000000  0.5081310000000 1.0
C      1  0.4525380000000  0.5190260000000  0.4590940000000 1.0
C      1  0.5252670000000  0.5118500000000  0.4450710000000 1.0
C      1  0.5651740000000  0.5296400000000  0.4981130000000 1.0
C      1  0.5265120000000  0.5231430000000  0.5485960000000 1.0
C      1  0.4723430000000  0.5230840000000  0.5550420000000 1.0
C      1  0.4348170000000  0.5168820000000  0.5131440000000 1.0
C      1  0.5373370000000  0.4666630000000  0.4528650000000 1.0
C      1  0.4769520000000  0.4743600000000  0.4441830000000 1.0
C      1  0.4443880000000  0.4761690000000  0.4915530000000 1.0
C      1  0.4639770000000  0.4782470000000  0.5435520000000 1.0
C      1  0.5219170000000  0.4749100000000  0.5516320000000 1.0
C      1  0.5554780000000  0.4782310000000  0.5087110000000 1.0
C      1  0.4826290000000  0.5655970000000  0.5300140000000 1.0
C      1  0.4708230000000  0.5649590000000  0.4780170000000 1.0
C      1  0.4939250000000  0.5504590000000  0.4667620000000 1.0
C      1  0.5228660000000  0.5536360000000  0.4671160000000 1.0
C      1  0.5376080000000  0.5622460000000  0.5313180000000 1.0
C      1  0.5100050000000  0.5565920000000  0.5186790000000 1.0
C      1  0.5289530000000  0.4355150000000  0.5324290000000 1.0
C      1  0.5224630000000  0.4399520000000  0.4847830000000 1.0
C      1  0.5013430000000  0.4318830000000  0.4533150000000 1.0
C      1  0.4559760000000  0.4377800000000  0.4685560000000 1.0
C      1  0.4642740000000  0.4377160000000  0.5157740000000 1.0
C      1  0.5016100000000  0.4452860000000  0.5227560000000 1.0
C      1  0.5693260000000  0.5030670000000  0.5075960000000 1.0
C      1  0.4270730000000  0.4913070000000  0.5080190000000 1.0
C      1  0.5390480000000  0.4892090000000  0.4366120000000 1.0
C      1  0.4563610000000  0.4951870000000  0.4428560000000 1.0
C      1  0.5310240000000  0.4990070000000  0.5609940000000 1.0
C      1  0.4630380000000  0.4975440000000  0.5646660000000 1.0
C      1  0.5203760000000  0.5130220000000  0.4998400000000 1.0
END
