TITL C-3577081-279-550 4.34684533769345e-06 125000 -965.979198496219 0 0 156 (C1) n - 1
REM
REM in /home/bkarasulu/work/CARBON/AIRSS/Generating-Clusters/EDIP-Nigel-Params/with-SteepDescent/Higher-Symm/SD-CG/HFTN-CG
REM
REM
REM
REM
REM
REM ./C.cell (12c818d87b63d06a65506943cc24bca4)
REM
REM compiler GCC version 9.2.1 20190827 (Red Hat 9.2.1-1)
REM options -cpp -mtune=generic -march=x86-64 -g -O0 -fpre-include=/usr/include/finclude/math-vector-fortran.h
REM seed -1933741895 -792665809 998660773 1197356571 -964306075 -1895143050 -25811454 -1459433410 -2017605970 -625793052 -1456614464 -681609731 -395356946 467375676 536988179 -1163448271 254704945 -127637895 -1707139905 -287628070 -679797838 -1679213614 -6650237 328338953 -590570707 -1566495045 175610 -1499249575 -1016463115 972518514 1016987637 -1329136875 -1101608755
REM
CELL 1.54180   50.00000   50.00000   50.00000   90.00000   90.00000   90.00000
LATT -1
SFAC C  
C      1  0.4346720000000  0.4837390000000  0.4800190000000 1.0
C      1  0.4353640000000  0.5249570000000  0.4960200000000 1.0
C      1  0.4334810000000  0.4906230000000  0.5236750000000 1.0
C      1  0.5706140000000  0.4836260000000  0.4805420000000 1.0
C      1  0.5717120000000  0.5252700000000  0.4954950000000 1.0
C      1  0.5708540000000  0.4915250000000  0.5241800000000 1.0
C      1  0.5117530000000  0.5555040000000  0.4171570000000 1.0
C      1  0.5113220000000  0.5440940000000  0.5894520000000 1.0
C      1  0.5122180000000  0.4004730000000  0.4934340000000 1.0
C      1  0.4876110000000  0.5702970000000  0.4188980000000 1.0
C      1  0.4872420000000  0.5350120000000  0.6013640000000 1.0
C      1  0.4882830000000  0.3944490000000  0.4794780000000 1.0
C      1  0.5726600000000  0.4592950000000  0.4345780000000 1.0
C      1  0.5725070000000  0.5773050000000  0.4974350000000 1.0
C      1  0.5723150000000  0.4640040000000  0.5684010000000 1.0
C      1  0.4254740000000  0.4600100000000  0.4345030000000 1.0
C      1  0.4251850000000  0.5762270000000  0.4981310000000 1.0
C      1  0.4250510000000  0.4630210000000  0.5667090000000 1.0
C      1  0.5993500000000  0.5417760000000  0.5300790000000 1.0
C      1  0.5995780000000  0.4547010000000  0.5211650000000 1.0
C      1  0.5994930000000  0.5054130000000  0.4502900000000 1.0
C      1  0.4035210000000  0.5400350000000  0.5285420000000 1.0
C      1  0.4033120000000  0.4534350000000  0.5207480000000 1.0
C      1  0.4034170000000  0.5041480000000  0.4504740000000 1.0
C      1  0.5271460000000  0.4233740000000  0.5432170000000 1.0
C      1  0.5272360000000  0.5010770000000  0.4119280000000 1.0
C      1  0.5268230000000  0.5758400000000  0.5448800000000 1.0
C      1  0.4696400000000  0.4212910000000  0.5499190000000 1.0
C      1  0.4696550000000  0.4959850000000  0.4067960000000 1.0
C      1  0.4692980000000  0.5826620000000  0.5430250000000 1.0
C      1  0.4388700000000  0.5301120000000  0.4067010000000 1.0
C      1  0.4384940000000  0.5654530000000  0.5727400000000 1.0
C      1  0.4391380000000  0.4036570000000  0.5201520000000 1.0
C      1  0.5653450000000  0.5288070000000  0.4042890000000 1.0
C      1  0.5648330000000  0.5689030000000  0.5728800000000 1.0
C      1  0.5655950000000  0.4029740000000  0.5233920000000 1.0
C      1  0.5570540000000  0.4219550000000  0.5418200000000 1.0
C      1  0.5571070000000  0.5032250000000  0.4113890000000 1.0
C      1  0.5566670000000  0.5753420000000  0.5470950000000 1.0
C      1  0.4407630000000  0.4199960000000  0.5429600000000 1.0
C      1  0.4406150000000  0.5022100000000  0.4092610000000 1.0
C      1  0.4403310000000  0.5771300000000  0.5472640000000 1.0
C      1  0.6001960000000  0.5229260000000  0.5052950000000 1.0
C      1  0.5994940000000  0.4857490000000  0.5174150000000 1.0
C      1  0.5987520000000  0.4939160000000  0.4793430000000 1.0
C      1  0.4068110000000  0.5206670000000  0.5047770000000 1.0
C      1  0.4045250000000  0.4838230000000  0.5169250000000 1.0
C      1  0.4055820000000  0.4918960000000  0.4787300000000 1.0
C      1  0.4878050000000  0.4783880000000  0.4766000000000 1.0
C      1  0.4879260000000  0.5311440000000  0.4928820000000 1.0
C      1  0.4875500000000  0.4906150000000  0.5301680000000 1.0
C      1  0.5160790000000  0.4838620000000  0.4824050000000 1.0
C      1  0.5161980000000  0.5233570000000  0.4947250000000 1.0
C      1  0.5159240000000  0.4929580000000  0.5227540000000 1.0
C      1  0.4810520000000  0.5615490000000  0.5611800000000 1.0
C      1  0.4814980000000  0.4161890000000  0.5226340000000 1.0
C      1  0.4814490000000  0.5222690000000  0.4160070000000 1.0
C      1  0.5093490000000  0.5671020000000  0.5694710000000 1.0
C      1  0.5098510000000  0.4063140000000  0.5233200000000 1.0
C      1  0.5097770000000  0.5267210000000  0.4071220000000 1.0
C      1  0.4523470000000  0.4984680000000  0.6024020000000 1.0
C      1  0.4533090000000  0.4116420000000  0.4472910000000 1.0
C      1  0.4526100000000  0.5894870000000  0.4497300000000 1.0
C      1  0.5423990000000  0.5029090000000  0.6003150000000 1.0
C      1  0.5433170000000  0.4119850000000  0.4524650000000 1.0
C      1  0.5427580000000  0.5855510000000  0.4475980000000 1.0
C      1  0.4762030000000  0.4635880000000  0.5307920000000 1.0
C      1  0.4765250000000  0.4913200000000  0.4528340000000 1.0
C      1  0.4765260000000  0.5452020000000  0.5159820000000 1.0
C      1  0.5267220000000  0.4650440000000  0.5278840000000 1.0
C      1  0.5267990000000  0.4935510000000  0.4556710000000 1.0
C      1  0.5268340000000  0.5417040000000  0.5164650000000 1.0
C      1  0.5962660000000  0.4434140000000  0.4943710000000 1.0
C      1  0.5963540000000  0.5342780000000  0.4533840000000 1.0
C      1  0.5958090000000  0.5238650000000  0.5529340000000 1.0
C      1  0.4056550000000  0.4400120000000  0.4962400000000 1.0
C      1  0.4055330000000  0.5321700000000  0.4508280000000 1.0
C      1  0.4049270000000  0.5264230000000  0.5529990000000 1.0
C      1  0.4467150000000  0.4639580000000  0.5212030000000 1.0
C      1  0.4471170000000  0.4992090000000  0.4579790000000 1.0
C      1  0.4472320000000  0.5366850000000  0.5203220000000 1.0
C      1  0.5565550000000  0.4659740000000  0.5228180000000 1.0
C      1  0.5565750000000  0.4975440000000  0.4589770000000 1.0
C      1  0.5567310000000  0.5367700000000  0.5182290000000 1.0
C      1  0.5243780000000  0.4338920000000  0.4451610000000 1.0
C      1  0.5240430000000  0.5806100000000  0.4702510000000 1.0
C      1  0.5237150000000  0.4856730000000  0.5847060000000 1.0
C      1  0.4702020000000  0.4349530000000  0.4414260000000 1.0
C      1  0.4698560000000  0.5831760000000  0.4728060000000 1.0
C      1  0.4694770000000  0.4818840000000  0.5852300000000 1.0
C      1  0.5119340000000  0.5969320000000  0.4920290000000 1.0
C      1  0.5116640000000  0.4585790000000  0.5878140000000 1.0
C      1  0.5123270000000  0.4447130000000  0.4200990000000 1.0
C      1  0.4839800000000  0.6027610000000  0.4877570000000 1.0
C      1  0.4836470000000  0.4591930000000  0.5947710000000 1.0
C      1  0.4843950000000  0.4381350000000  0.4170420000000 1.0
C      1  0.5313370000000  0.5369950000000  0.4709810000000 1.0
C      1  0.5309190000000  0.5067690000000  0.5465090000000 1.0
C      1  0.5310620000000  0.4564340000000  0.4826080000000 1.0
C      1  0.4752790000000  0.5351480000000  0.4673030000000 1.0
C      1  0.4747800000000  0.5106420000000  0.5464270000000 1.0
C      1  0.4751930000000  0.4541480000000  0.4857920000000 1.0
C      1  0.4878240000000  0.5367240000000  0.5429150000000 1.0
C      1  0.4879350000000  0.4444460000000  0.5102810000000 1.0
C      1  0.4880710000000  0.5188340000000  0.4466530000000 1.0
C      1  0.5171150000000  0.5328770000000  0.5423530000000 1.0
C      1  0.5172000000000  0.4470030000000  0.5073090000000 1.0
C      1  0.5173420000000  0.5203890000000  0.4503540000000 1.0
C      1  0.5129220000000  0.4752170000000  0.4240000000000 1.0
C      1  0.5126210000000  0.5782270000000  0.5164730000000 1.0
C      1  0.5125630000000  0.4467230000000  0.5594410000000 1.0
C      1  0.4808370000000  0.4754860000000  0.4265400000000 1.0
C      1  0.4805420000000  0.5758770000000  0.5153980000000 1.0
C      1  0.4804590000000  0.4487590000000  0.5576910000000 1.0
C      1  0.5709420000000  0.4261860000000  0.4527500000000 1.0
C      1  0.5705230000000  0.5785020000000  0.4596510000000 1.0
C      1  0.5701840000000  0.4961700000000  0.5881830000000 1.0
C      1  0.4259310000000  0.4257090000000  0.4512120000000 1.0
C      1  0.4253250000000  0.5787490000000  0.4601320000000 1.0
C      1  0.4250760000000  0.4947100000000  0.5880450000000 1.0
C      1  0.5380170000000  0.5327180000000  0.5963000000000 1.0
C      1  0.5389930000000  0.4006220000000  0.4803050000000 1.0
C      1  0.5384370000000  0.5671230000000  0.4237950000000 1.0
C      1  0.4597500000000  0.5275000000000  0.6007650000000 1.0
C      1  0.4607780000000  0.3986020000000  0.4732650000000 1.0
C      1  0.4600520000000  0.5734260000000  0.4255220000000 1.0
C      1  0.5803300000000  0.5220740000000  0.5770200000000 1.0
C      1  0.5811740000000  0.4230330000000  0.4808060000000 1.0
C      1  0.5807330000000  0.5559040000000  0.4428140000000 1.0
C      1  0.4184280000000  0.5214940000000  0.5768420000000 1.0
C      1  0.4192970000000  0.4220020000000  0.4799910000000 1.0
C      1  0.4187610000000  0.5554050000000  0.4428140000000 1.0
C      1  0.5733260000000  0.4483010000000  0.5416970000000 1.0
C      1  0.5734480000000  0.4902730000000  0.4342660000000 1.0
C      1  0.5731480000000  0.5620630000000  0.5245050000000 1.0
C      1  0.4275650000000  0.4476960000000  0.5400370000000 1.0
C      1  0.4275790000000  0.4907750000000  0.4347940000000 1.0
C      1  0.4274550000000  0.5606370000000  0.5245940000000 1.0
C      1  0.5606950000000  0.4590200000000  0.4934000000000 1.0
C      1  0.5610960000000  0.5264550000000  0.4677990000000 1.0
C      1  0.5606630000000  0.5148190000000  0.5390790000000 1.0
C      1  0.4449210000000  0.4563810000000  0.4884440000000 1.0
C      1  0.4451500000000  0.5314120000000  0.4680330000000 1.0
C      1  0.4444150000000  0.5118160000000  0.5430700000000 1.0
C      1  0.4503490000000  0.4556270000000  0.4499650000000 1.0
C      1  0.4501670000000  0.5652930000000  0.4864840000000 1.0
C      1  0.4497640000000  0.4788870000000  0.5629120000000 1.0
C      1  0.5454710000000  0.4555780000000  0.4466990000000 1.0
C      1  0.5453000000000  0.5686790000000  0.4882090000000 1.0
C      1  0.5450660000000  0.4761480000000  0.5654400000000 1.0
C      1  0.4404310000000  0.4075130000000  0.4925470000000 1.0
C      1  0.4400050000000  0.5519290000000  0.4240220000000 1.0
C      1  0.4395860000000  0.5396040000000  0.5831450000000 1.0
C      1  0.5619920000000  0.4084170000000  0.4963170000000 1.0
C      1  0.5616330000000  0.5496260000000  0.4224060000000 1.0
C      1  0.5611820000000  0.5427930000000  0.5818680000000 1.0
END
