TITL C-3578206-1180-204 -1.32109037143473e-06 125000 -760.785616383172 0 0 124 (C1) n - 1
REM
REM in /home/bkarasulu/work/CARBON/AIRSS/Generating-Clusters/EDIP-Nigel-Params/with-SteepDescent/Higher-Symm/SD-CG/HFTN-CG
REM
REM
REM
REM
REM
REM ./C.cell (12c818d87b63d06a65506943cc24bca4)
REM
REM compiler GCC version 9.2.1 20190827 (Red Hat 9.2.1-1)
REM options -cpp -mtune=generic -march=x86-64 -g -O0 -fpre-include=/usr/include/finclude/math-vector-fortran.h
REM seed 77817251 -1326926880 1241751988 -1921716871 -358393209 -222577338 -1565609332 1350273032 -570954127 -601796047 1163068355 1891195887 -1358487964 -269989335 -107210560 -1720511644 1738952150 -833744559 -1528022471 -859597187 1715905066 -1861542232 -658971329 1745733043 1481241548 -1723700758 248300135 -366534625 -927413659 -1857606959 1319156342 140125392 320313034
REM
CELL 1.54180   50.00000   50.00000   50.00000   90.00000   90.00000   90.00000
LATT -1
SFAC C  
C      1  0.5858310000000  0.4865920000000  0.5329730000000 1.0
C      1  0.5128380000000  0.5804920000000  0.5392110000000 1.0
C      1  0.4084770000000  0.5123200000000  0.5374730000000 1.0
C      1  0.4867370000000  0.4171330000000  0.5387130000000 1.0
C      1  0.4151610000000  0.4895420000000  0.4662450000000 1.0
C      1  0.4876210000000  0.5935920000000  0.4658520000000 1.0
C      1  0.5815030000000  0.5108060000000  0.4622060000000 1.0
C      1  0.5152160000000  0.4113910000000  0.4687660000000 1.0
C      1  0.4499250000000  0.4403890000000  0.5471590000000 1.0
C      1  0.5608970000000  0.4547950000000  0.5511530000000 1.0
C      1  0.5431150000000  0.5391490000000  0.5406010000000 1.0
C      1  0.4493080000000  0.5398810000000  0.5466070000000 1.0
C      1  0.5530120000000  0.4290240000000  0.4506540000000 1.0
C      1  0.4345090000000  0.4512080000000  0.4496040000000 1.0
C      1  0.4525550000000  0.5747900000000  0.4464710000000 1.0
C      1  0.5605510000000  0.5505310000000  0.4445440000000 1.0
C      1  0.5747610000000  0.4650810000000  0.4818610000000 1.0
C      1  0.5328330000000  0.5781400000000  0.4804830000000 1.0
C      1  0.4349600000000  0.5424670000000  0.4814160000000 1.0
C      1  0.4651400000000  0.4316570000000  0.4851630000000 1.0
C      1  0.4241540000000  0.4689220000000  0.5189850000000 1.0
C      1  0.4690070000000  0.5769380000000  0.5187240000000 1.0
C      1  0.5784880000000  0.5311920000000  0.5153230000000 1.0
C      1  0.5314150000000  0.4288500000000  0.5215530000000 1.0
C      1  0.5058710000000  0.4141330000000  0.5171620000000 1.0
C      1  0.5903050000000  0.5042940000000  0.5106610000000 1.0
C      1  0.4950610000000  0.5926400000000  0.5176110000000 1.0
C      1  0.4064560000000  0.4931410000000  0.5153960000000 1.0
C      1  0.4977720000000  0.4237060000000  0.4896720000000 1.0
C      1  0.4186190000000  0.5077880000000  0.4901180000000 1.0
C      1  0.5063570000000  0.5916390000000  0.4883140000000 1.0
C      1  0.5883120000000  0.4921870000000  0.4832320000000 1.0
C      1  0.5909230000000  0.5493790000000  0.4937980000000 1.0
C      1  0.4498270000000  0.5869050000000  0.4974060000000 1.0
C      1  0.4167450000000  0.4497510000000  0.4971430000000 1.0
C      1  0.5521920000000  0.4188290000000  0.5021680000000 1.0
C      1  0.4170000000000  0.5490850000000  0.5057880000000 1.0
C      1  0.5490350000000  0.5788530000000  0.5060100000000 1.0
C      1  0.5923020000000  0.4478240000000  0.5009760000000 1.0
C      1  0.4507630000000  0.4117980000000  0.5041790000000 1.0
C      1  0.4081850000000  0.4236620000000  0.5017870000000 1.0
C      1  0.5761730000000  0.4077740000000  0.5114970000000 1.0
C      1  0.5927130000000  0.5764160000000  0.4992010000000 1.0
C      1  0.4235310000000  0.5929270000000  0.5041340000000 1.0
C      1  0.5963940000000  0.4203270000000  0.4989630000000 1.0
C      1  0.4245780000000  0.4025890000000  0.4992500000000 1.0
C      1  0.4064310000000  0.5741000000000  0.5124050000000 1.0
C      1  0.5735340000000  0.5917050000000  0.5098800000000 1.0
C      1  0.4805060000000  0.5482510000000  0.5116270000000 1.0
C      1  0.4531290000000  0.4796530000000  0.5144040000000 1.0
C      1  0.5238170000000  0.4574590000000  0.5131340000000 1.0
C      1  0.5504050000000  0.5316050000000  0.4876590000000 1.0
C      1  0.5247350000000  0.5477060000000  0.4826410000000 1.0
C      1  0.5492600000000  0.4727410000000  0.5006600000000 1.0
C      1  0.4707500000000  0.4603260000000  0.4981590000000 1.0
C      1  0.4635650000000  0.5326840000000  0.4915430000000 1.0
C      1  0.4147330000000  0.4598740000000  0.4697070000000 1.0
C      1  0.5442080000000  0.4129570000000  0.4739530000000 1.0
C      1  0.5743060000000  0.5388520000000  0.4700390000000 1.0
C      1  0.4589480000000  0.5922060000000  0.4697400000000 1.0
C      1  0.5761800000000  0.4599160000000  0.5258800000000 1.0
C      1  0.4579920000000  0.4162460000000  0.5329860000000 1.0
C      1  0.4297020000000  0.5296780000000  0.5255320000000 1.0
C      1  0.5311220000000  0.5621630000000  0.5246860000000 1.0
C      1  0.5091110000000  0.4695480000000  0.4658020000000 1.0
C      1  0.5337630000000  0.4970870000000  0.4674960000000 1.0
C      1  0.5103000000000  0.5121010000000  0.4552740000000 1.0
C      1  0.4885180000000  0.4931710000000  0.4577760000000 1.0
C      1  0.4828200000000  0.4604130000000  0.5472280000000 1.0
C      1  0.4668420000000  0.4866320000000  0.5410930000000 1.0
C      1  0.4866140000000  0.5074440000000  0.5366100000000 1.0
C      1  0.5130960000000  0.4978550000000  0.5383080000000 1.0
C      1  0.4937720000000  0.4275060000000  0.5647070000000 1.0
C      1  0.5616940000000  0.4937130000000  0.5503650000000 1.0
C      1  0.4994040000000  0.5620890000000  0.5570220000000 1.0
C      1  0.4181360000000  0.5015060000000  0.5635380000000 1.0
C      1  0.5157390000000  0.4238100000000  0.4419290000000 1.0
C      1  0.4371380000000  0.4897620000000  0.4463110000000 1.0
C      1  0.4900460000000  0.5794100000000  0.4403670000000 1.0
C      1  0.5519940000000  0.5266110000000  0.4304170000000 1.0
C      1  0.5190270000000  0.4396240000000  0.5701170000000 1.0
C      1  0.5694120000000  0.5167840000000  0.5683650000000 1.0
C      1  0.4746600000000  0.5678260000000  0.5698840000000 1.0
C      1  0.4231400000000  0.4717050000000  0.5697050000000 1.0
C      1  0.4805740000000  0.4395230000000  0.4333820000000 1.0
C      1  0.4500610000000  0.5255230000000  0.4377050000000 1.0
C      1  0.5123610000000  0.5594600000000  0.4388800000000 1.0
C      1  0.5608330000000  0.4763840000000  0.4332000000000 1.0
C      1  0.4255270000000  0.4549830000000  0.5456980000000 1.0
C      1  0.5402940000000  0.4351040000000  0.5503090000000 1.0
C      1  0.5718100000000  0.5391020000000  0.5468920000000 1.0
C      1  0.4541440000000  0.5705360000000  0.5475750000000 1.0
C      1  0.5652650000000  0.4552290000000  0.4537280000000 1.0
C      1  0.4586750000000  0.4366790000000  0.4552840000000 1.0
C      1  0.4384980000000  0.5498810000000  0.4516290000000 1.0
C      1  0.5393700000000  0.5715320000000  0.4480660000000 1.0
C      1  0.5477050000000  0.5198850000000  0.5864400000000 1.0
C      1  0.4724170000000  0.5461660000000  0.5882680000000 1.0
C      1  0.4563450000000  0.4816430000000  0.5874350000000 1.0
C      1  0.5205060000000  0.4594270000000  0.5901610000000 1.0
C      1  0.4633610000000  0.5258130000000  0.4124200000000 1.0
C      1  0.5142220000000  0.5448340000000  0.4136560000000 1.0
C      1  0.5432560000000  0.4746770000000  0.4114060000000 1.0
C      1  0.4748250000000  0.4585170000000  0.4122820000000 1.0
C      1  0.4898930000000  0.4810010000000  0.4033630000000 1.0
C      1  0.5195370000000  0.4894100000000  0.4067460000000 1.0
C      1  0.5109590000000  0.5197430000000  0.4005870000000 1.0
C      1  0.4818950000000  0.5106690000000  0.3979400000000 1.0
C      1  0.5102720000000  0.4849070000000  0.5965160000000 1.0
C      1  0.4809720000000  0.4945640000000  0.5965700000000 1.0
C      1  0.4895770000000  0.5236300000000  0.5917230000000 1.0
C      1  0.5206580000000  0.5134560000000  0.5921870000000 1.0
C      1  0.5572320000000  0.5023350000000  0.4470610000000 1.0
C      1  0.5066680000000  0.5398750000000  0.4607010000000 1.0
C      1  0.4611230000000  0.5039770000000  0.4579020000000 1.0
C      1  0.5069240000000  0.4514980000000  0.4421770000000 1.0
C      1  0.4504150000000  0.4992650000000  0.5647090000000 1.0
C      1  0.4789010000000  0.5357050000000  0.5390710000000 1.0
C      1  0.5399950000000  0.5092080000000  0.5330030000000 1.0
C      1  0.5112160000000  0.4694110000000  0.5380500000000 1.0
C      1  0.5107680000000  0.5469390000000  0.5076690000000 1.0
C      1  0.4487510000000  0.5065450000000  0.5003510000000 1.0
C      1  0.5017700000000  0.4556820000000  0.4919940000000 1.0
C      1  0.5467460000000  0.5040300000000  0.5036290000000 1.0
END
