TITL C-3577090-796-648 -1.43593994916777e-07 125000 -123.112952186722 0 0 21 (C1) n - 1
REM
REM in /home/bkarasulu/work/CARBON/AIRSS/Generating-Clusters/EDIP-Nigel-Params/with-SteepDescent/Higher-Symm/SD-CG/HFTN-CG
REM
REM
REM
REM
REM
REM ./C.cell (12c818d87b63d06a65506943cc24bca4)
REM
REM compiler GCC version 9.2.1 20190827 (Red Hat 9.2.1-1)
REM options -cpp -mtune=generic -march=x86-64 -g -O0 -fpre-include=/usr/include/finclude/math-vector-fortran.h
REM seed 919130360 191626158 57799662 -1771676274 594931380 1641594467 -535298738 -768292938 499258075 -900884223 1190723146 317007744 -1980185253 606774188 -791028708 1107161508 1902700561 -1611011187 1023429786 -831139809 571750420 1827626412 -136241631 -1298632972 -1471522403 1781730299 194332955 -1031659607 682706512 255264083 2016686093 1255013043 2016802467
REM
CELL 1.54180   50.00000   50.00000   50.00000   90.00000   90.00000   90.00000
LATT -1
SFAC C  
C      1  0.5320830000000  0.5289220000000  0.5145770000000 1.0
C      1  0.5295740000000  0.5457210000000  0.4915830000000 1.0
C      1  0.5214670000000  0.5269650000000  0.4717270000000 1.0
C      1  0.4916670000000  0.5260680000000  0.4658410000000 1.0
C      1  0.4732390000000  0.5372620000000  0.4911860000000 1.0
C      1  0.4830330000000  0.5399310000000  0.5189780000000 1.0
C      1  0.5076830000000  0.5283550000000  0.5317990000000 1.0
C      1  0.5295100000000  0.4770070000000  0.5134080000000 1.0
C      1  0.5202690000000  0.4766860000000  0.4756300000000 1.0
C      1  0.4937710000000  0.4724460000000  0.4646800000000 1.0
C      1  0.4777510000000  0.4540080000000  0.4793960000000 1.0
C      1  0.4741700000000  0.4628970000000  0.5058950000000 1.0
C      1  0.4904520000000  0.4528210000000  0.5265460000000 1.0
C      1  0.5109650000000  0.4707620000000  0.5347530000000 1.0
C      1  0.4691510000000  0.4913280000000  0.5083150000000 1.0
C      1  0.4756660000000  0.5055900000000  0.5331220000000 1.0
C      1  0.4995120000000  0.4944390000000  0.5469030000000 1.0
C      1  0.5428140000000  0.5019710000000  0.5054740000000 1.0
C      1  0.5357990000000  0.5011610000000  0.4764620000000 1.0
C      1  0.4788360000000  0.4976300000000  0.4590580000000 1.0
C      1  0.4625870000000  0.5080300000000  0.4846660000000 1.0
END
