TITL C-3578209-2550-253 2.34721872371984e-06 125000 -1047.4106615942 0 0 165 (C1) n - 1
REM
REM in /home/bkarasulu/work/CARBON/AIRSS/Generating-Clusters/EDIP-Nigel-Params/with-SteepDescent/Higher-Symm/SD-CG/HFTN-CG
REM
REM
REM
REM
REM
REM ./C.cell (12c818d87b63d06a65506943cc24bca4)
REM
REM compiler GCC version 9.2.1 20190827 (Red Hat 9.2.1-1)
REM options -cpp -mtune=generic -march=x86-64 -g -O0 -fpre-include=/usr/include/finclude/math-vector-fortran.h
REM seed 1116541141 190489964 -1798801310 -1194659815 1453820838 -246219809 -1941389887 -355168853 -2145740878 -752989257 -1032701097 2147289334 1262222504 -1132256086 -273055491 93068784 -977986561 760093715 -785229151 2102631821 -76749428 -1500613232 -1496648600 -1851827774 -296517790 1078962962 -1370871274 -1441815243 7753755 -1234108822 2001369921 -968756702 1631668507
REM
CELL 1.54180   50.00000   50.00000   50.00000   90.00000   90.00000   90.00000
LATT -1
SFAC C  
C      1  0.4398770000000  0.4139340000000  0.4845840000000 1.0
C      1  0.3986200000000  0.5306480000000  0.4835360000000 1.0
C      1  0.4971070000000  0.6018060000000  0.4824910000000 1.0
C      1  0.6014610000000  0.5349520000000  0.4828700000000 1.0
C      1  0.5598730000000  0.4250330000000  0.4751240000000 1.0
C      1  0.4987740000000  0.5421180000000  0.6263970000000 1.0
C      1  0.5379360000000  0.5141870000000  0.6260270000000 1.0
C      1  0.5220560000000  0.4690790000000  0.6287970000000 1.0
C      1  0.4736930000000  0.4690010000000  0.6278240000000 1.0
C      1  0.4592960000000  0.5143830000000  0.6262980000000 1.0
C      1  0.4980190000000  0.4574190000000  0.6212690000000 1.0
C      1  0.4560490000000  0.4880390000000  0.6181520000000 1.0
C      1  0.4726400000000  0.5374190000000  0.6184440000000 1.0
C      1  0.5251060000000  0.5378390000000  0.6188680000000 1.0
C      1  0.5407710000000  0.4873280000000  0.6193280000000 1.0
C      1  0.5579320000000  0.4799190000000  0.5965450000000 1.0
C      1  0.4985840000000  0.4426880000000  0.5964630000000 1.0
C      1  0.4421130000000  0.4831440000000  0.5929410000000 1.0
C      1  0.4638970000000  0.5497920000000  0.5937330000000 1.0
C      1  0.5346420000000  0.5502070000000  0.5942100000000 1.0
C      1  0.4018490000000  0.4793800000000  0.4994470000000 1.0
C      1  0.4484270000000  0.5876510000000  0.4989320000000 1.0
C      1  0.5682130000000  0.5736500000000  0.4999070000000 1.0
C      1  0.5959140000000  0.4586130000000  0.4959670000000 1.0
C      1  0.4904150000000  0.4005610000000  0.4983710000000 1.0
C      1  0.4908630000000  0.5832980000000  0.5266890000000 1.0
C      1  0.5851800000000  0.5260840000000  0.5355640000000 1.0
C      1  0.5578840000000  0.4345150000000  0.5209840000000 1.0
C      1  0.4515840000000  0.4252390000000  0.5337270000000 1.0
C      1  0.4117880000000  0.5250690000000  0.5332660000000 1.0
C      1  0.5278790000000  0.5948120000000  0.5210000000000 1.0
C      1  0.6059810000000  0.5021680000000  0.5174810000000 1.0
C      1  0.5381640000000  0.4069340000000  0.5135290000000 1.0
C      1  0.4176400000000  0.4377630000000  0.5203500000000 1.0
C      1  0.4126730000000  0.5597860000000  0.5190120000000 1.0
C      1  0.5001140000000  0.4161900000000  0.5449670000000 1.0
C      1  0.4071820000000  0.4768190000000  0.5493280000000 1.0
C      1  0.4449390000000  0.5765990000000  0.5492210000000 1.0
C      1  0.5611790000000  0.5709250000000  0.5496730000000 1.0
C      1  0.5845740000000  0.4706290000000  0.5462290000000 1.0
C      1  0.5092570000000  0.4027760000000  0.5209440000000 1.0
C      1  0.4043340000000  0.4634620000000  0.5241090000000 1.0
C      1  0.4325890000000  0.5807440000000  0.5231700000000 1.0
C      1  0.5559260000000  0.5844180000000  0.5246670000000 1.0
C      1  0.6007000000000  0.4736860000000  0.5218130000000 1.0
C      1  0.4639160000000  0.4461280000000  0.4219400000000 1.0
C      1  0.4372610000000  0.5162950000000  0.4204040000000 1.0
C      1  0.4962520000000  0.5637320000000  0.4204710000000 1.0
C      1  0.5598220000000  0.5229510000000  0.4222480000000 1.0
C      1  0.5412740000000  0.4502010000000  0.4199880000000 1.0
C      1  0.4984350000000  0.5628390000000  0.4817720000000 1.0
C      1  0.5614850000000  0.5213300000000  0.4714390000000 1.0
C      1  0.5405880000000  0.4488540000000  0.4758520000000 1.0
C      1  0.4646640000000  0.4473590000000  0.4711080000000 1.0
C      1  0.4388300000000  0.5176350000000  0.4725790000000 1.0
C      1  0.5116540000000  0.4399580000000  0.4766860000000 1.0
C      1  0.4456350000000  0.4708530000000  0.4756180000000 1.0
C      1  0.4551980000000  0.5426750000000  0.4797220000000 1.0
C      1  0.5276070000000  0.5541170000000  0.4799680000000 1.0
C      1  0.5628550000000  0.4905980000000  0.4758670000000 1.0
C      1  0.4085990000000  0.5098020000000  0.5048100000000 1.0
C      1  0.4761420000000  0.5994130000000  0.5048470000000 1.0
C      1  0.5817190000000  0.5452480000000  0.5046520000000 1.0
C      1  0.5803770000000  0.4322600000000  0.4985800000000 1.0
C      1  0.4633830000000  0.4173170000000  0.5048040000000 1.0
C      1  0.4873560000000  0.5380530000000  0.5578250000000 1.0
C      1  0.5316430000000  0.5199750000000  0.5618940000000 1.0
C      1  0.5298280000000  0.4739050000000  0.5627210000000 1.0
C      1  0.4846500000000  0.4669890000000  0.5620250000000 1.0
C      1  0.4571240000000  0.5057110000000  0.5545610000000 1.0
C      1  0.5090230000000  0.4588860000000  0.5493700000000 1.0
C      1  0.4650250000000  0.4799640000000  0.5442050000000 1.0
C      1  0.4629150000000  0.5319490000000  0.5427530000000 1.0
C      1  0.5142580000000  0.5365730000000  0.5454660000000 1.0
C      1  0.5412430000000  0.4962050000000  0.5487840000000 1.0
C      1  0.5487440000000  0.4568570000000  0.5762840000000 1.0
C      1  0.4738770000000  0.4437210000000  0.5764540000000 1.0
C      1  0.4353250000000  0.5074220000000  0.5742920000000 1.0
C      1  0.4850700000000  0.5622820000000  0.5738300000000 1.0
C      1  0.5541780000000  0.5316160000000  0.5772040000000 1.0
C      1  0.4887320000000  0.5200890000000  0.3582160000000 1.0
C      1  0.5149800000000  0.5132790000000  0.3488480000000 1.0
C      1  0.5181920000000  0.4870910000000  0.3601320000000 1.0
C      1  0.4940470000000  0.4735470000000  0.3526450000000 1.0
C      1  0.4743940000000  0.4927010000000  0.3610000000000 1.0
C      1  0.5354140000000  0.5340620000000  0.4116170000000 1.0
C      1  0.5448690000000  0.4762640000000  0.4061480000000 1.0
C      1  0.4909980000000  0.4511650000000  0.4116620000000 1.0
C      1  0.4487090000000  0.4928680000000  0.4073220000000 1.0
C      1  0.4775690000000  0.5453080000000  0.4066520000000 1.0
C      1  0.5175780000000  0.5154130000000  0.4566900000000 1.0
C      1  0.5220640000000  0.4882010000000  0.4521140000000 1.0
C      1  0.4965700000000  0.4770820000000  0.4472360000000 1.0
C      1  0.4774010000000  0.4971830000000  0.4532030000000 1.0
C      1  0.4905440000000  0.5219370000000  0.4544830000000 1.0
C      1  0.5338270000000  0.5398260000000  0.5043440000000 1.0
C      1  0.5520880000000  0.4841290000000  0.5036360000000 1.0
C      1  0.5003410000000  0.4489770000000  0.5025050000000 1.0
C      1  0.4507400000000  0.4829130000000  0.5021490000000 1.0
C      1  0.4698310000000  0.5359290000000  0.5122100000000 1.0
C      1  0.4740010000000  0.5817510000000  0.5529310000000 1.0
C      1  0.5723040000000  0.5454590000000  0.5569320000000 1.0
C      1  0.5669600000000  0.4472730000000  0.5503520000000 1.0
C      1  0.4732420000000  0.4220620000000  0.5548060000000 1.0
C      1  0.4108620000000  0.5045850000000  0.5563100000000 1.0
C      1  0.4468350000000  0.4160780000000  0.4564910000000 1.0
C      1  0.4046030000000  0.5251110000000  0.4558030000000 1.0
C      1  0.4897810000000  0.5965230000000  0.4557030000000 1.0
C      1  0.5929790000000  0.5373430000000  0.4552610000000 1.0
C      1  0.5712690000000  0.4234580000000  0.4489120000000 1.0
C      1  0.5925830000000  0.4819190000000  0.4739890000000 1.0
C      1  0.5105870000000  0.4091780000000  0.4755200000000 1.0
C      1  0.4159890000000  0.4617060000000  0.4768000000000 1.0
C      1  0.4371160000000  0.5673860000000  0.4771900000000 1.0
C      1  0.5455520000000  0.5786120000000  0.4784130000000 1.0
C      1  0.5371890000000  0.5352520000000  0.4586740000000 1.0
C      1  0.5463770000000  0.4730020000000  0.4575950000000 1.0
C      1  0.4917100000000  0.4498010000000  0.4562010000000 1.0
C      1  0.4493740000000  0.4936420000000  0.4564390000000 1.0
C      1  0.4794460000000  0.5474210000000  0.4632270000000 1.0
C      1  0.4409360000000  0.4589460000000  0.5482600000000 1.0
C      1  0.4376910000000  0.5473250000000  0.5520070000000 1.0
C      1  0.5234780000000  0.5671350000000  0.5486480000000 1.0
C      1  0.5724200000000  0.4975610000000  0.5528410000000 1.0
C      1  0.5223960000000  0.4238270000000  0.5597030000000 1.0
C      1  0.5258130000000  0.4358470000000  0.5853500000000 1.0
C      1  0.4451060000000  0.4562520000000  0.5794330000000 1.0
C      1  0.4383340000000  0.5389920000000  0.5819470000000 1.0
C      1  0.5161340000000  0.5691260000000  0.5789100000000 1.0
C      1  0.5713490000000  0.5031010000000  0.5834220000000 1.0
C      1  0.4137290000000  0.5063340000000  0.4357710000000 1.0
C      1  0.4782680000000  0.5810750000000  0.4359380000000 1.0
C      1  0.5727250000000  0.5456760000000  0.4363600000000 1.0
C      1  0.5679400000000  0.4455110000000  0.4321370000000 1.0
C      1  0.4671540000000  0.4203720000000  0.4361930000000 1.0
C      1  0.4180700000000  0.4333060000000  0.4914740000000 1.0
C      1  0.4098260000000  0.5575820000000  0.4902480000000 1.0
C      1  0.5260210000000  0.5987530000000  0.4914690000000 1.0
C      1  0.6080750000000  0.5062450000000  0.4886480000000 1.0
C      1  0.5399270000000  0.4031660000000  0.4840330000000 1.0
C      1  0.5171320000000  0.5168570000000  0.3980940000000 1.0
C      1  0.5214760000000  0.4883420000000  0.3910490000000 1.0
C      1  0.4960850000000  0.4778510000000  0.4028290000000 1.0
C      1  0.4744970000000  0.4949310000000  0.3920500000000 1.0
C      1  0.4893780000000  0.5233000000000  0.3897610000000 1.0
C      1  0.5139780000000  0.4353330000000  0.4213880000000 1.0
C      1  0.4420350000000  0.4678280000000  0.4216550000000 1.0
C      1  0.4512850000000  0.5432420000000  0.4203810000000 1.0
C      1  0.5264880000000  0.5591480000000  0.4234980000000 1.0
C      1  0.5655080000000  0.4931750000000  0.4196190000000 1.0
C      1  0.5061100000000  0.4711720000000  0.5214630000000 1.0
C      1  0.4780070000000  0.4852260000000  0.5162970000000 1.0
C      1  0.4877150000000  0.5133810000000  0.5093070000000 1.0
C      1  0.5153130000000  0.5216250000000  0.5180590000000 1.0
C      1  0.5298290000000  0.4947880000000  0.5211670000000 1.0
C      1  0.4371270000000  0.5084170000000  0.5008610000000 1.0
C      1  0.4901110000000  0.5577740000000  0.5102060000000 1.0
C      1  0.5591670000000  0.5275820000000  0.5002840000000 1.0
C      1  0.5438980000000  0.4563900000000  0.5040440000000 1.0
C      1  0.4721840000000  0.4443980000000  0.4995720000000 1.0
C      1  0.4527330000000  0.5654360000000  0.4417960000000 1.0
C      1  0.5505640000000  0.5675020000000  0.4415610000000 1.0
C      1  0.5799750000000  0.4733090000000  0.4384170000000 1.0
C      1  0.4981160000000  0.4153420000000  0.4395330000000 1.0
C      1  0.4186050000000  0.4756200000000  0.4406900000000 1.0
END
