TITL C-3577091-527-221 3.14724347054737e-06 125000 -771.940822510366 0 0 125 (C1) n - 1
REM
REM in /home/bkarasulu/work/CARBON/AIRSS/Generating-Clusters/EDIP-Nigel-Params/with-SteepDescent/Higher-Symm/SD-CG/HFTN-CG
REM
REM
REM
REM
REM
REM ./C.cell (12c818d87b63d06a65506943cc24bca4)
REM
REM compiler GCC version 9.2.1 20190827 (Red Hat 9.2.1-1)
REM options -cpp -mtune=generic -march=x86-64 -g -O0 -fpre-include=/usr/include/finclude/math-vector-fortran.h
REM seed -1459833644 -19084603 1179921422 1666062150 -1044251335 -720484523 -96549663 -2124935072 1787431963 -40070038 1204708451 1832074002 1939044212 294148484 -1766253289 -1282999201 642369961 660612497 1501854354 -1723056529 803668632 -91944196 -169145008 817561472 -2127809343 -845330606 1018097156 239784290 593461282 1738194923 1489520361 1635618597 -1348408461
REM
CELL 1.54180   50.00000   50.00000   50.00000   90.00000   90.00000   90.00000
LATT -1
SFAC C  
C      1  0.4109080000000  0.5270020000000  0.4825170000000 1.0
C      1  0.5716830000000  0.5624980000000  0.4839250000000 1.0
C      1  0.5190440000000  0.4082110000000  0.4848910000000 1.0
C      1  0.4108230000000  0.5281430000000  0.5121640000000 1.0
C      1  0.5709730000000  0.5627090000000  0.5136120000000 1.0
C      1  0.5194100000000  0.4067720000000  0.5144010000000 1.0
C      1  0.5768320000000  0.4830950000000  0.5249290000000 1.0
C      1  0.4458860000000  0.4376230000000  0.5258450000000 1.0
C      1  0.4769060000000  0.5748610000000  0.5223650000000 1.0
C      1  0.5760600000000  0.4833160000000  0.4729240000000 1.0
C      1  0.4446850000000  0.4375710000000  0.4748000000000 1.0
C      1  0.4797440000000  0.5727000000000  0.4707330000000 1.0
C      1  0.5249900000000  0.4744180000000  0.5157740000000 1.0
C      1  0.4651570000000  0.4890040000000  0.5116250000000 1.0
C      1  0.5090400000000  0.5333550000000  0.5126920000000 1.0
C      1  0.5245630000000  0.4775540000000  0.4860040000000 1.0
C      1  0.4708390000000  0.4884620000000  0.4813070000000 1.0
C      1  0.5121030000000  0.5387770000000  0.4842240000000 1.0
C      1  0.5592140000000  0.5542950000000  0.4260600000000 1.0
C      1  0.5162510000000  0.4229630000000  0.4297900000000 1.0
C      1  0.4219640000000  0.5238520000000  0.4307790000000 1.0
C      1  0.5581580000000  0.5541460000000  0.5704040000000 1.0
C      1  0.5175700000000  0.4214650000000  0.5722120000000 1.0
C      1  0.4238120000000  0.5225090000000  0.5699250000000 1.0
C      1  0.5735880000000  0.5328550000000  0.5208650000000 1.0
C      1  0.4913360000000  0.4171810000000  0.5223620000000 1.0
C      1  0.4333250000000  0.5457990000000  0.5205510000000 1.0
C      1  0.5734490000000  0.5327460000000  0.4765360000000 1.0
C      1  0.4912710000000  0.4190320000000  0.4779450000000 1.0
C      1  0.4379380000000  0.5555430000000  0.4780550000000 1.0
C      1  0.4795420000000  0.5617710000000  0.5497300000000 1.0
C      1  0.5632520000000  0.4867160000000  0.5512820000000 1.0
C      1  0.4561520000000  0.4491160000000  0.5519570000000 1.0
C      1  0.4823450000000  0.5568440000000  0.4445910000000 1.0
C      1  0.5627090000000  0.4870790000000  0.4464290000000 1.0
C      1  0.4533450000000  0.4499440000000  0.4482020000000 1.0
C      1  0.4821190000000  0.4790300000000  0.3991090000000 1.0
C      1  0.4876750000000  0.5275270000000  0.3960650000000 1.0
C      1  0.5265600000000  0.4969650000000  0.3956650000000 1.0
C      1  0.4820180000000  0.4773410000000  0.6023210000000 1.0
C      1  0.4888220000000  0.5260430000000  0.6011680000000 1.0
C      1  0.5268650000000  0.4962210000000  0.6006140000000 1.0
C      1  0.4469560000000  0.5250780000000  0.5371610000000 1.0
C      1  0.5485520000000  0.5333980000000  0.5376900000000 1.0
C      1  0.5034310000000  0.4395090000000  0.5391530000000 1.0
C      1  0.4433080000000  0.5293880000000  0.4625660000000 1.0
C      1  0.5484930000000  0.5340690000000  0.4592910000000 1.0
C      1  0.5022240000000  0.4420530000000  0.4619700000000 1.0
C      1  0.4939760000000  0.4346080000000  0.5816900000000 1.0
C      1  0.4470010000000  0.5364110000000  0.5793320000000 1.0
C      1  0.5575040000000  0.5272730000000  0.5800060000000 1.0
C      1  0.4938410000000  0.4369510000000  0.4194710000000 1.0
C      1  0.4448090000000  0.5375100000000  0.4195080000000 1.0
C      1  0.5573760000000  0.5273620000000  0.4171340000000 1.0
C      1  0.4699500000000  0.4292750000000  0.4352040000000 1.0
C      1  0.4538550000000  0.5615730000000  0.4339410000000 1.0
C      1  0.5749260000000  0.5102450000000  0.4334550000000 1.0
C      1  0.4705890000000  0.4269980000000  0.5654860000000 1.0
C      1  0.4530220000000  0.5603340000000  0.5626860000000 1.0
C      1  0.5753370000000  0.5103610000000  0.5639100000000 1.0
C      1  0.5888530000000  0.5263150000000  0.4527410000000 1.0
C      1  0.4782590000000  0.4089300000000  0.4538690000000 1.0
C      1  0.4357830000000  0.5713820000000  0.4537520000000 1.0
C      1  0.5890820000000  0.5265530000000  0.5445980000000 1.0
C      1  0.4788020000000  0.4068310000000  0.5466210000000 1.0
C      1  0.4322110000000  0.5634650000000  0.5431040000000 1.0
C      1  0.5484860000000  0.4641660000000  0.4316900000000 1.0
C      1  0.4442400000000  0.4768300000000  0.4351360000000 1.0
C      1  0.5086100000000  0.5627590000000  0.4284060000000 1.0
C      1  0.5473210000000  0.4639520000000  0.5652320000000 1.0
C      1  0.4465070000000  0.4756940000000  0.5644440000000 1.0
C      1  0.5064630000000  0.5601850000000  0.5648750000000 1.0
C      1  0.4983880000000  0.4640400000000  0.5814220000000 1.0
C      1  0.4695220000000  0.5167760000000  0.5807340000000 1.0
C      1  0.5291080000000  0.5176370000000  0.5802440000000 1.0
C      1  0.5009820000000  0.4661880000000  0.4181180000000 1.0
C      1  0.4683550000000  0.5196660000000  0.4180150000000 1.0
C      1  0.5284160000000  0.5187460000000  0.4161150000000 1.0
C      1  0.4994720000000  0.4662240000000  0.5277930000000 1.0
C      1  0.4719920000000  0.5135540000000  0.5265260000000 1.0
C      1  0.5265820000000  0.5169460000000  0.5279480000000 1.0
C      1  0.4989670000000  0.4717140000000  0.4710360000000 1.0
C      1  0.4691990000000  0.5160540000000  0.4693230000000 1.0
C      1  0.5258420000000  0.5181940000000  0.4685720000000 1.0
C      1  0.4852310000000  0.5090170000000  0.5534190000000 1.0
C      1  0.5163910000000  0.5060050000000  0.5534580000000 1.0
C      1  0.4893190000000  0.4777870000000  0.5541150000000 1.0
C      1  0.4839630000000  0.5250200000000  0.4448960000000 1.0
C      1  0.5116350000000  0.5107750000000  0.4434600000000 1.0
C      1  0.5028840000000  0.4825290000000  0.4440310000000 1.0
C      1  0.5218970000000  0.5688310000000  0.4840240000000 1.0
C      1  0.5482870000000  0.4510940000000  0.4856520000000 1.0
C      1  0.4328100000000  0.4802180000000  0.4820960000000 1.0
C      1  0.5201890000000  0.5706870000000  0.5137200000000 1.0
C      1  0.5488760000000  0.4497510000000  0.5154280000000 1.0
C      1  0.4344570000000  0.4831260000000  0.5132010000000 1.0
C      1  0.5110630000000  0.5407670000000  0.5878660000000 1.0
C      1  0.5276120000000  0.4699450000000  0.5871190000000 1.0
C      1  0.4588280000000  0.4894910000000  0.5883360000000 1.0
C      1  0.5118430000000  0.5422770000000  0.4065310000000 1.0
C      1  0.5295150000000  0.4694650000000  0.4079860000000 1.0
C      1  0.4593730000000  0.4909890000000  0.4134250000000 1.0
C      1  0.4132600000000  0.4989890000000  0.4704720000000 1.0
C      1  0.5477930000000  0.5760700000000  0.4709020000000 1.0
C      1  0.5412240000000  0.4252520000000  0.4726690000000 1.0
C      1  0.4129410000000  0.5005790000000  0.5251450000000 1.0
C      1  0.5461290000000  0.5758790000000  0.5267290000000 1.0
C      1  0.5421450000000  0.4228540000000  0.5272740000000 1.0
C      1  0.5377860000000  0.5669020000000  0.4412760000000 1.0
C      1  0.5371080000000  0.4369580000000  0.4443990000000 1.0
C      1  0.4221710000000  0.4969560000000  0.4424580000000 1.0
C      1  0.5363900000000  0.5663380000000  0.5549660000000 1.0
C      1  0.5384320000000  0.4347060000000  0.5561750000000 1.0
C      1  0.4251840000000  0.4974670000000  0.5544140000000 1.0
C      1  0.4217450000000  0.4515510000000  0.4849100000000 1.0
C      1  0.5024110000000  0.5880090000000  0.4747310000000 1.0
C      1  0.5756050000000  0.4561900000000  0.4777730000000 1.0
C      1  0.4240980000000  0.4536460000000  0.5159990000000 1.0
C      1  0.5002460000000  0.5903010000000  0.5198390000000 1.0
C      1  0.5763740000000  0.4555790000000  0.5221930000000 1.0
C      1  0.5744410000000  0.5005950000000  0.4988560000000 1.0
C      1  0.4642740000000  0.5645270000000  0.4949690000000 1.0
C      1  0.4614730000000  0.4295450000000  0.5003610000000 1.0
C      1  0.4980550000000  0.5007870000000  0.3859130000000 1.0
C      1  0.4994630000000  0.5000390000000  0.6125930000000 1.0
END
