TITL C-3577076-40-215 -2.56662481600864e-06 125000 -942.0897312914 0 0 152 (C1) n - 1
REM
REM in /home/bkarasulu/work/CARBON/AIRSS/Generating-Clusters/EDIP-Nigel-Params/with-SteepDescent/Higher-Symm/SD-CG/HFTN-CG
REM
REM
REM
REM
REM
REM ./C.cell (12c818d87b63d06a65506943cc24bca4)
REM
REM compiler GCC version 9.2.1 20190827 (Red Hat 9.2.1-1)
REM options -cpp -mtune=generic -march=x86-64 -g -O0 -fpre-include=/usr/include/finclude/math-vector-fortran.h
REM seed -203574925 -1967576703 -2096780912 -1354478520 -369401406 1930865510 -1094063662 486042733 -1724804046 1070520587 -988852900 -1348584034 689409899 -874597202 1983089218 -1064754302 -1585790416 1194191423 -2118552376 -1187706861 1085677700 1264236320 182964024 -333167670 380170011 -705363182 -1856963947 147158446 -1037364682 -915511273 1048165670 1311605681 -1776323839
REM
CELL 1.54180   50.00000   50.00000   50.00000   90.00000   90.00000   90.00000
LATT -1
SFAC C  
C      1  0.5355990000000  0.5098940000000  0.4762170000000 1.0
C      1  0.4899040000000  0.5348860000000  0.4744470000000 1.0
C      1  0.4615750000000  0.4906000000000  0.4740120000000 1.0
C      1  0.5108500000000  0.4645980000000  0.4791670000000 1.0
C      1  0.4266330000000  0.4639660000000  0.4350260000000 1.0
C      1  0.5369390000000  0.4281260000000  0.4326140000000 1.0
C      1  0.5719530000000  0.5363890000000  0.4335410000000 1.0
C      1  0.4631020000000  0.5729660000000  0.4330840000000 1.0
C      1  0.4316270000000  0.4132750000000  0.4896210000000 1.0
C      1  0.5871630000000  0.4306700000000  0.4909930000000 1.0
C      1  0.5681580000000  0.5848100000000  0.4913900000000 1.0
C      1  0.4159460000000  0.5671910000000  0.4925860000000 1.0
C      1  0.5318640000000  0.5589850000000  0.5589650000000 1.0
C      1  0.4422440000000  0.5309420000000  0.5532820000000 1.0
C      1  0.4631270000000  0.4319430000000  0.5563590000000 1.0
C      1  0.5618100000000  0.4705920000000  0.5605130000000 1.0
C      1  0.5354490000000  0.4600830000000  0.5507640000000 1.0
C      1  0.5391140000000  0.5302050000000  0.5505400000000 1.0
C      1  0.4709230000000  0.5391700000000  0.5478310000000 1.0
C      1  0.4478130000000  0.4577360000000  0.5471330000000 1.0
C      1  0.4218870000000  0.5473810000000  0.5365700000000 1.0
C      1  0.4506500000000  0.4150810000000  0.5343190000000 1.0
C      1  0.5821950000000  0.4473970000000  0.5372030000000 1.0
C      1  0.5498410000000  0.5802640000000  0.5372790000000 1.0
C      1  0.5577830000000  0.4858750000000  0.4819070000000 1.0
C      1  0.5138980000000  0.5566580000000  0.4803170000000 1.0
C      1  0.4409700000000  0.5142830000000  0.4818160000000 1.0
C      1  0.4863440000000  0.4439900000000  0.4817440000000 1.0
C      1  0.4970700000000  0.5933550000000  0.4620000000000 1.0
C      1  0.4036360000000  0.4957940000000  0.4668700000000 1.0
C      1  0.5039380000000  0.4078410000000  0.4629950000000 1.0
C      1  0.5939510000000  0.5035090000000  0.4639600000000 1.0
C      1  0.4869910000000  0.5705860000000  0.4482120000000 1.0
C      1  0.4249270000000  0.4891300000000  0.4490040000000 1.0
C      1  0.5147500000000  0.4309130000000  0.4504140000000 1.0
C      1  0.5708600000000  0.5124650000000  0.4492270000000 1.0
C      1  0.5595690000000  0.5262640000000  0.4087110000000 1.0
C      1  0.4722110000000  0.5612900000000  0.4076100000000 1.0
C      1  0.4393110000000  0.4738570000000  0.4100290000000 1.0
C      1  0.5252080000000  0.4410760000000  0.4086750000000 1.0
C      1  0.5632420000000  0.4944340000000  0.5427210000000 1.0
C      1  0.5063900000000  0.5631380000000  0.5429750000000 1.0
C      1  0.4383320000000  0.5049690000000  0.5403860000000 1.0
C      1  0.4904570000000  0.4414010000000  0.5438570000000 1.0
C      1  0.4225450000000  0.4298910000000  0.4663440000000 1.0
C      1  0.5703430000000  0.4233940000000  0.4669800000000 1.0
C      1  0.5760030000000  0.5691790000000  0.4669780000000 1.0
C      1  0.4300300000000  0.5759830000000  0.4670930000000 1.0
C      1  0.4925200000000  0.5892350000000  0.5505270000000 1.0
C      1  0.4197300000000  0.4888680000000  0.5559270000000 1.0
C      1  0.5122350000000  0.4224860000000  0.5511890000000 1.0
C      1  0.5805910000000  0.5150050000000  0.5512490000000 1.0
C      1  0.5533230000000  0.4808310000000  0.5891750000000 1.0
C      1  0.5209730000000  0.5541200000000  0.5885880000000 1.0
C      1  0.4454890000000  0.5273200000000  0.5850040000000 1.0
C      1  0.4829310000000  0.4406960000000  0.5889040000000 1.0
C      1  0.4716400000000  0.4094330000000  0.5141460000000 1.0
C      1  0.5897320000000  0.4685970000000  0.5181190000000 1.0
C      1  0.5299550000000  0.5891710000000  0.5162460000000 1.0
C      1  0.4070760000000  0.5279690000000  0.5183310000000 1.0
C      1  0.4278040000000  0.5064810000000  0.5117770000000 1.0
C      1  0.4850380000000  0.4368400000000  0.5121140000000 1.0
C      1  0.5643640000000  0.4841290000000  0.5143190000000 1.0
C      1  0.5148420000000  0.5624460000000  0.5119460000000 1.0
C      1  0.4578600000000  0.4586780000000  0.4751010000000 1.0
C      1  0.5435990000000  0.4578030000000  0.4750310000000 1.0
C      1  0.5417410000000  0.5418240000000  0.4748320000000 1.0
C      1  0.4577500000000  0.5422920000000  0.4760250000000 1.0
C      1  0.5455880000000  0.4384600000000  0.5043780000000 1.0
C      1  0.5605370000000  0.5429010000000  0.5046350000000 1.0
C      1  0.4613440000000  0.5599250000000  0.5044080000000 1.0
C      1  0.4413250000000  0.4570980000000  0.5031440000000 1.0
C      1  0.5695350000000  0.5693560000000  0.5170730000000 1.0
C      1  0.4338500000000  0.5663490000000  0.5165370000000 1.0
C      1  0.4321250000000  0.4294830000000  0.5147260000000 1.0
C      1  0.5718940000000  0.4281510000000  0.5168290000000 1.0
C      1  0.4822030000000  0.5169210000000  0.6156190000000 1.0
C      1  0.4692610000000  0.4914060000000  0.6112330000000 1.0
C      1  0.5103120000000  0.4835390000000  0.6161780000000 1.0
C      1  0.5103200000000  0.5114650000000  0.6170490000000 1.0
C      1  0.5538350000000  0.5114840000000  0.5928590000000 1.0
C      1  0.4909290000000  0.5601260000000  0.5917420000000 1.0
C      1  0.4450610000000  0.4988560000000  0.5960420000000 1.0
C      1  0.5126010000000  0.4417500000000  0.5934590000000 1.0
C      1  0.4051650000000  0.5242980000000  0.4709470000000 1.0
C      1  0.4754000000000  0.4105700000000  0.4664710000000 1.0
C      1  0.5927020000000  0.4751460000000  0.4696320000000 1.0
C      1  0.5253210000000  0.5912860000000  0.4678650000000 1.0
C      1  0.5343780000000  0.5392930000000  0.4043470000000 1.0
C      1  0.4605920000000  0.5353730000000  0.4048840000000 1.0
C      1  0.4657370000000  0.4626200000000  0.4076040000000 1.0
C      1  0.5377990000000  0.4664680000000  0.4041890000000 1.0
C      1  0.4862760000000  0.4840460000000  0.4066980000000 1.0
C      1  0.5171110000000  0.4880660000000  0.4034170000000 1.0
C      1  0.5127370000000  0.5189540000000  0.4012490000000 1.0
C      1  0.4820200000000  0.5148420000000  0.4053440000000 1.0
C      1  0.5567600000000  0.4456180000000  0.4468040000000 1.0
C      1  0.5542720000000  0.5556190000000  0.4481370000000 1.0
C      1  0.4439380000000  0.5553220000000  0.4479470000000 1.0
C      1  0.4446500000000  0.4449520000000  0.4498980000000 1.0
C      1  0.5160820000000  0.4789240000000  0.5065800000000 1.0
C      1  0.5195540000000  0.5089840000000  0.5036360000000 1.0
C      1  0.4906460000000  0.5183000000000  0.5009570000000 1.0
C      1  0.4747360000000  0.4930040000000  0.5005630000000 1.0
C      1  0.4457290000000  0.5033690000000  0.4313620000000 1.0
C      1  0.4994350000000  0.4510410000000  0.4335200000000 1.0
C      1  0.5497280000000  0.4986120000000  0.4317370000000 1.0
C      1  0.5004610000000  0.5501540000000  0.4301480000000 1.0
C      1  0.4762720000000  0.5328910000000  0.5917020000000 1.0
C      1  0.4719100000000  0.4671980000000  0.5811670000000 1.0
C      1  0.5230430000000  0.4703660000000  0.5941420000000 1.0
C      1  0.5255280000000  0.5231330000000  0.5939390000000 1.0
C      1  0.4963670000000  0.5218620000000  0.4469320000000 1.0
C      1  0.4730430000000  0.4995830000000  0.4460950000000 1.0
C      1  0.5044940000000  0.4768660000000  0.4519480000000 1.0
C      1  0.5219580000000  0.5025880000000  0.4491910000000 1.0
C      1  0.6012160000000  0.5248550000000  0.4839560000000 1.0
C      1  0.4754400000000  0.6022330000000  0.4810830000000 1.0
C      1  0.3978720000000  0.4735280000000  0.4864090000000 1.0
C      1  0.5245840000000  0.3994630000000  0.4834820000000 1.0
C      1  0.5282380000000  0.4294990000000  0.5727720000000 1.0
C      1  0.5696420000000  0.5270870000000  0.5740070000000 1.0
C      1  0.4766270000000  0.5714790000000  0.5678600000000 1.0
C      1  0.4341860000000  0.4778110000000  0.5787910000000 1.0
C      1  0.4779920000000  0.5858650000000  0.5050620000000 1.0
C      1  0.4177290000000  0.4768290000000  0.5091510000000 1.0
C      1  0.5239880000000  0.4176370000000  0.5066250000000 1.0
C      1  0.5834020000000  0.5234740000000  0.5076120000000 1.0
C      1  0.4889430000000  0.4703310000000  0.5565390000000 1.0
C      1  0.5154590000000  0.4801570000000  0.5647670000000 1.0
C      1  0.5160370000000  0.5122480000000  0.5657770000000 1.0
C      1  0.4873830000000  0.5206550000000  0.5653390000000 1.0
C      1  0.4696420000000  0.4421900000000  0.4290460000000 1.0
C      1  0.5584950000000  0.4699180000000  0.4256720000000 1.0
C      1  0.5298600000000  0.5587850000000  0.4264860000000 1.0
C      1  0.4391490000000  0.5324660000000  0.4258460000000 1.0
C      1  0.4793970000000  0.6003920000000  0.5289840000000 1.0
C      1  0.4126840000000  0.4675930000000  0.5376700000000 1.0
C      1  0.5223030000000  0.4057170000000  0.5317090000000 1.0
C      1  0.5960960000000  0.5278340000000  0.5321300000000 1.0
C      1  0.5509200000000  0.4036480000000  0.4732380000000 1.0
C      1  0.5965380000000  0.5506970000000  0.4729530000000 1.0
C      1  0.4490980000000  0.5965120000000  0.4717220000000 1.0
C      1  0.4022130000000  0.4480800000000  0.4745180000000 1.0
C      1  0.5416700000000  0.5980580000000  0.4905680000000 1.0
C      1  0.3999850000000  0.5415770000000  0.4930200000000 1.0
C      1  0.4593360000000  0.4014600000000  0.4882630000000 1.0
C      1  0.5990380000000  0.4580780000000  0.4919390000000 1.0
C      1  0.5346840000000  0.5334720000000  0.5198280000000 1.0
C      1  0.4777680000000  0.5395410000000  0.5193840000000 1.0
C      1  0.4647460000000  0.4687630000000  0.5200110000000 1.0
C      1  0.5387580000000  0.4648020000000  0.5199830000000 1.0
END
