TITL C-3578195-8548-568 1.36398165559962e-06 125000 -635.049900980846 0 0 101 (C1) n - 1
REM
REM in /home/bkarasulu/work/CARBON/AIRSS/Generating-Clusters/EDIP-Nigel-Params/with-SteepDescent/Higher-Symm/SD-CG/HFTN-CG
REM
REM
REM
REM
REM
REM ./C.cell (12c818d87b63d06a65506943cc24bca4)
REM
REM compiler GCC version 9.2.1 20190827 (Red Hat 9.2.1-1)
REM options -cpp -mtune=generic -march=x86-64 -g -O0 -fpre-include=/usr/include/finclude/math-vector-fortran.h
REM seed 97590951 1048874224 1082354806 2086912017 1850790176 868667858 -2138706755 623142805 1617071620 -1984596587 323353175 -1423421752 514230126 1406530896 -781835840 255477456 -800264504 -1749949384 949581749 -1061061986 887555976 1662064705 -1634406701 -1486049649 1088434109 1157651098 2073853981 456431668 -345996192 1459243103 978625366 -1691546494 2095430334
REM
CELL 1.54180   50.00000   50.00000   50.00000   90.00000   90.00000   90.00000
LATT -1
SFAC C  
C      1  0.5500890000000  0.5664270000000  0.5071100000000 1.0
C      1  0.4339650000000  0.4812150000000  0.5516110000000 1.0
C      1  0.4240050000000  0.5109070000000  0.5602370000000 1.0
C      1  0.4446280000000  0.5165000000000  0.4525480000000 1.0
C      1  0.5421970000000  0.4427720000000  0.5277540000000 1.0
C      1  0.4920190000000  0.4363640000000  0.5773710000000 1.0
C      1  0.5278890000000  0.4782600000000  0.4931860000000 1.0
C      1  0.5199360000000  0.4928420000000  0.4421840000000 1.0
C      1  0.5659490000000  0.5390200000000  0.5217970000000 1.0
C      1  0.4505880000000  0.4383130000000  0.5142930000000 1.0
C      1  0.4234320000000  0.5446880000000  0.4823220000000 1.0
C      1  0.5279070000000  0.5701490000000  0.5605660000000 1.0
C      1  0.4935500000000  0.5308090000000  0.5794040000000 1.0
C      1  0.4893280000000  0.5552660000000  0.4284050000000 1.0
C      1  0.4608140000000  0.5417810000000  0.5451870000000 1.0
C      1  0.4236550000000  0.4994230000000  0.4646730000000 1.0
C      1  0.5121410000000  0.4424010000000  0.5218290000000 1.0
C      1  0.4661160000000  0.4445000000000  0.5398520000000 1.0
C      1  0.4318220000000  0.5562770000000  0.5084960000000 1.0
C      1  0.4860410000000  0.4864500000000  0.4704890000000 1.0
C      1  0.4901390000000  0.5329540000000  0.4663680000000 1.0
C      1  0.5164720000000  0.5641890000000  0.4372460000000 1.0
C      1  0.5447400000000  0.5622330000000  0.4789530000000 1.0
C      1  0.5328320000000  0.4957110000000  0.4149570000000 1.0
C      1  0.5001930000000  0.4153700000000  0.5272990000000 1.0
C      1  0.5047660000000  0.5444470000000  0.5008800000000 1.0
C      1  0.4973530000000  0.5824970000000  0.5254660000000 1.0
C      1  0.5430180000000  0.5184530000000  0.4749450000000 1.0
C      1  0.5415350000000  0.4507460000000  0.4568630000000 1.0
C      1  0.5358200000000  0.4983990000000  0.5223890000000 1.0
C      1  0.5618950000000  0.5355930000000  0.4390420000000 1.0
C      1  0.4146570000000  0.4543080000000  0.4844730000000 1.0
C      1  0.5090010000000  0.4540770000000  0.4936880000000 1.0
C      1  0.5211770000000  0.5205000000000  0.5693490000000 1.0
C      1  0.4666860000000  0.5144830000000  0.5030900000000 1.0
C      1  0.5009070000000  0.4450660000000  0.4286450000000 1.0
C      1  0.5775280000000  0.4796640000000  0.4885580000000 1.0
C      1  0.5360780000000  0.5439000000000  0.4259020000000 1.0
C      1  0.4543490000000  0.5146340000000  0.5567080000000 1.0
C      1  0.4875990000000  0.5758950000000  0.4755170000000 1.0
C      1  0.4138040000000  0.5492820000000  0.5292670000000 1.0
C      1  0.5412060000000  0.4808510000000  0.4640710000000 1.0
C      1  0.4836870000000  0.5655160000000  0.5049490000000 1.0
C      1  0.5502650000000  0.4621480000000  0.5468670000000 1.0
C      1  0.5865850000000  0.5214160000000  0.5086170000000 1.0
C      1  0.4477770000000  0.5101110000000  0.4238040000000 1.0
C      1  0.5617710000000  0.4385800000000  0.5083570000000 1.0
C      1  0.4935920000000  0.5279240000000  0.4169250000000 1.0
C      1  0.5181870000000  0.5232620000000  0.4533430000000 1.0
C      1  0.4894580000000  0.4633610000000  0.5323680000000 1.0
C      1  0.5810720000000  0.4988670000000  0.4658140000000 1.0
C      1  0.4691650000000  0.5118690000000  0.4713780000000 1.0
C      1  0.5218520000000  0.5230070000000  0.4093910000000 1.0
C      1  0.4524210000000  0.4605200000000  0.4540650000000 1.0
C      1  0.5607650000000  0.4882930000000  0.5363340000000 1.0
C      1  0.4306840000000  0.4715330000000  0.4693930000000 1.0
C      1  0.5681340000000  0.5467550000000  0.4655530000000 1.0
C      1  0.4968050000000  0.5162530000000  0.5088670000000 1.0
C      1  0.5673620000000  0.5069680000000  0.4402130000000 1.0
C      1  0.5190790000000  0.4455770000000  0.5806240000000 1.0
C      1  0.5252490000000  0.5563920000000  0.5197540000000 1.0
C      1  0.4952260000000  0.4725540000000  0.4349280000000 1.0
C      1  0.5742490000000  0.4507530000000  0.4867350000000 1.0
C      1  0.4722660000000  0.5098330000000  0.5807050000000 1.0
C      1  0.4711080000000  0.4586760000000  0.5832080000000 1.0
C      1  0.5173140000000  0.5693930000000  0.4663660000000 1.0
C      1  0.5082500000000  0.4982560000000  0.4873720000000 1.0
C      1  0.4591920000000  0.5458980000000  0.5154370000000 1.0
C      1  0.5629910000000  0.5342330000000  0.5522330000000 1.0
C      1  0.5029970000000  0.4802380000000  0.5541380000000 1.0
C      1  0.5386160000000  0.5442000000000  0.5645340000000 1.0
C      1  0.5423000000000  0.5231980000000  0.5071740000000 1.0
C      1  0.4159880000000  0.5040130000000  0.5137190000000 1.0
C      1  0.4683560000000  0.4365300000000  0.4654770000000 1.0
C      1  0.4336580000000  0.4805140000000  0.5213000000000 1.0
C      1  0.4262690000000  0.4540680000000  0.5099050000000 1.0
C      1  0.5291640000000  0.4693170000000  0.5667760000000 1.0
C      1  0.5010210000000  0.5727830000000  0.5522880000000 1.0
C      1  0.4857160000000  0.5486980000000  0.5575610000000 1.0
C      1  0.4823440000000  0.4217580000000  0.5510730000000 1.0
C      1  0.5609400000000  0.4927410000000  0.4167550000000 1.0
C      1  0.4853400000000  0.4084840000000  0.5044610000000 1.0
C      1  0.4641560000000  0.4231870000000  0.4931690000000 1.0
C      1  0.4420140000000  0.5464230000000  0.4578050000000 1.0
C      1  0.5184640000000  0.4369080000000  0.4707210000000 1.0
C      1  0.5637000000000  0.5054770000000  0.5606640000000 1.0
C      1  0.4632730000000  0.4848710000000  0.5129670000000 1.0
C      1  0.4501050000000  0.4572090000000  0.5617750000000 1.0
C      1  0.4143530000000  0.5159510000000  0.4866710000000 1.0
C      1  0.4736370000000  0.5571440000000  0.4550320000000 1.0
C      1  0.4769620000000  0.4650110000000  0.4903900000000 1.0
C      1  0.5123250000000  0.5062020000000  0.5421000000000 1.0
C      1  0.4098170000000  0.5220290000000  0.5361760000000 1.0
C      1  0.4865420000000  0.4838990000000  0.5794790000000 1.0
C      1  0.5401260000000  0.4969430000000  0.5788330000000 1.0
C      1  0.4956890000000  0.4320920000000  0.4528250000000 1.0
C      1  0.4726940000000  0.5093970000000  0.4109720000000 1.0
C      1  0.5860430000000  0.5249540000000  0.4791840000000 1.0
C      1  0.4653200000000  0.4779090000000  0.4330090000000 1.0
C      1  0.5671370000000  0.4401090000000  0.4618200000000 1.0
C      1  0.5826030000000  0.4921810000000  0.5146580000000 1.0
END
