TITL C-3577091-527-338 -3.97195676481857e-07 125000 -361.352245117168 0 0 60 (Cs) n - 1
REM
REM in /home/bkarasulu/work/CARBON/AIRSS/Generating-Clusters/EDIP-Nigel-Params/with-SteepDescent/Higher-Symm/SD-CG/HFTN-CG
REM
REM
REM
REM
REM
REM ./C.cell (12c818d87b63d06a65506943cc24bca4)
REM
REM compiler GCC version 9.2.1 20190827 (Red Hat 9.2.1-1)
REM options -cpp -mtune=generic -march=x86-64 -g -O0 -fpre-include=/usr/include/finclude/math-vector-fortran.h
REM seed 167253304 -555508216 -2075729245 -91288286 1774238543 -276064375 438672384 -1294400363 -228976274 238697013 171357535 835631746 2127030987 -182547522 1568247301 -644860689 -770505911 -33597552 -656319458 590063725 -76643487 830708893 -2122591813 2015539172 1407357566 1409375950 811816629 -179419361 -539392020 1955939166 -1687562023 1252157489 -84392816
REM
CELL 1.54180   50.00000   50.00000   50.00000   90.00000   90.00000   90.00000
LATT -1
SFAC C  
C      1  0.4505040000000  0.4319240000000  0.5280610000000 1.0
C      1  0.4642010000000  0.4571640000000  0.4610000000000 1.0
C      1  0.4561670000000  0.5322680000000  0.4471220000000 1.0
C      1  0.4540810000000  0.5771260000000  0.5268180000000 1.0
C      1  0.4524040000000  0.5054960000000  0.5622510000000 1.0
C      1  0.4506000000000  0.4316490000000  0.4724420000000 1.0
C      1  0.4640660000000  0.4575510000000  0.5392970000000 1.0
C      1  0.4559850000000  0.5327880000000  0.5524050000000 1.0
C      1  0.4541750000000  0.5768570000000  0.4722630000000 1.0
C      1  0.4526200000000  0.5048800000000  0.4375330000000 1.0
C      1  0.5146960000000  0.4933390000000  0.5446750000000 1.0
C      1  0.5106880000000  0.4127100000000  0.5214120000000 1.0
C      1  0.5147860000000  0.4650830000000  0.4636410000000 1.0
C      1  0.5049640000000  0.5502660000000  0.4509350000000 1.0
C      1  0.5045090000000  0.5724880000000  0.5287200000000 1.0
C      1  0.5148500000000  0.4928980000000  0.4554440000000 1.0
C      1  0.5107610000000  0.4125030000000  0.4794880000000 1.0
C      1  0.5146590000000  0.4654440000000  0.5367530000000 1.0
C      1  0.5047950000000  0.5507480000000  0.5485830000000 1.0
C      1  0.5046090000000  0.5722010000000  0.4705810000000 1.0
C      1  0.5287680000000  0.5649390000000  0.4854390000000 1.0
C      1  0.5316020000000  0.5403950000000  0.5431970000000 1.0
C      1  0.5368390000000  0.4518180000000  0.5263410000000 1.0
C      1  0.5351600000000  0.4257160000000  0.4857960000000 1.0
C      1  0.5369740000000  0.5116960000000  0.4576690000000 1.0
C      1  0.5287180000000  0.5650800000000  0.5140190000000 1.0
C      1  0.5317520000000  0.5399670000000  0.4565160000000 1.0
C      1  0.5369290000000  0.4515610000000  0.4742630000000 1.0
C      1  0.5351090000000  0.4258610000000  0.5150580000000 1.0
C      1  0.5368280000000  0.5121140000000  0.5423410000000 1.0
C      1  0.4396370000000  0.5559870000000  0.5144100000000 1.0
C      1  0.4328600000000  0.4964550000000  0.5428240000000 1.0
C      1  0.4284370000000  0.4499050000000  0.5150580000000 1.0
C      1  0.4431690000000  0.4748770000000  0.4734130000000 1.0
C      1  0.4364760000000  0.5319820000000  0.4685800000000 1.0
C      1  0.4396880000000  0.5558410000000  0.4848290000000 1.0
C      1  0.4330080000000  0.4960310000000  0.4569810000000 1.0
C      1  0.4284880000000  0.4497580000000  0.4851900000000 1.0
C      1  0.4430770000000  0.4751390000000  0.5266380000000 1.0
C      1  0.4363680000000  0.5322900000000  0.5308830000000 1.0
C      1  0.4841930000000  0.5302180000000  0.4550370000000 1.0
C      1  0.4792220000000  0.5760170000000  0.5139690000000 1.0
C      1  0.4895120000000  0.5039860000000  0.5534630000000 1.0
C      1  0.4860060000000  0.4273810000000  0.5155890000000 1.0
C      1  0.4897680000000  0.4548800000000  0.4736910000000 1.0
C      1  0.4840380000000  0.5306600000000  0.5446070000000 1.0
C      1  0.4792720000000  0.5758750000000  0.4852090000000 1.0
C      1  0.4896970000000  0.5034570000000  0.4464650000000 1.0
C      1  0.4860590000000  0.4272300000000  0.4850800000000 1.0
C      1  0.4896760000000  0.4551420000000  0.5267180000000 1.0
C      1  0.5826350000000  0.5239920000000  0.4669790000000 1.0
C      1  0.5948930000000  0.5371520000000  0.5132730000000 1.0
C      1  0.5641160000000  0.5044670000000  0.5382360000000 1.0
C      1  0.5808140000000  0.4625470000000  0.5137050000000 1.0
C      1  0.5718190000000  0.4780140000000  0.4670810000000 1.0
C      1  0.5825210000000  0.5243180000000  0.5330680000000 1.0
C      1  0.5949390000000  0.5370210000000  0.4866890000000 1.0
C      1  0.5642480000000  0.5040900000000  0.4619440000000 1.0
C      1  0.5808600000000  0.4624150000000  0.4869450000000 1.0
C      1  0.5717050000000  0.4783420000000  0.5333830000000 1.0
END
