TITL C-3577089-586-411 -1.4387122351406e-05 125000 -452.598487815867 0 0 75 (C1) n - 1
REM
REM in /home/bkarasulu/work/CARBON/AIRSS/Generating-Clusters/EDIP-Nigel-Params/with-SteepDescent/Higher-Symm/SD-CG/HFTN-CG
REM
REM
REM
REM
REM
REM ./C.cell (12c818d87b63d06a65506943cc24bca4)
REM
REM compiler GCC version 9.2.1 20190827 (Red Hat 9.2.1-1)
REM options -cpp -mtune=generic -march=x86-64 -g -O0 -fpre-include=/usr/include/finclude/math-vector-fortran.h
REM seed -891919572 -160332172 -153636616 -576260885 -219724208 216591604 -146809116 1312910701 -416741943 383298940 -726702540 -1031657504 -1211510512 160854692 -915434056 186731256 1520463771 1356000349 -671130864 937438111 -1691518743 -1099070184 264185738 1262717373 1645913666 1562162304 -872597150 1131613374 1900704226 -1665514795 -1893411831 -948048225 183276453
REM
CELL 1.54180   50.00000   50.00000   50.00000   90.00000   90.00000   90.00000
LATT -1
SFAC C  
C      1  0.4429180000000  0.5428330000000  0.4806860000000 1.0
C      1  0.5549410000000  0.4568650000000  0.5171870000000 1.0
C      1  0.5566580000000  0.4713130000000  0.4702840000000 1.0
C      1  0.4420590000000  0.5293630000000  0.5301070000000 1.0
C      1  0.5267910000000  0.5118780000000  0.5695970000000 1.0
C      1  0.4748500000000  0.4895350000000  0.4272980000000 1.0
C      1  0.4232910000000  0.5037430000000  0.4915540000000 1.0
C      1  0.5791850000000  0.4951140000000  0.5081110000000 1.0
C      1  0.4681020000000  0.4509470000000  0.5507130000000 1.0
C      1  0.5330530000000  0.5508060000000  0.4516170000000 1.0
C      1  0.5412410000000  0.4427060000000  0.5418320000000 1.0
C      1  0.4580620000000  0.5567620000000  0.4566000000000 1.0
C      1  0.4694650000000  0.5011140000000  0.5670890000000 1.0
C      1  0.5319020000000  0.5003910000000  0.4336370000000 1.0
C      1  0.5183700000000  0.5338700000000  0.5533260000000 1.0
C      1  0.4824950000000  0.4693800000000  0.4462940000000 1.0
C      1  0.4949320000000  0.5112680000000  0.4270150000000 1.0
C      1  0.5064770000000  0.4905670000000  0.5703320000000 1.0
C      1  0.4842710000000  0.4567600000000  0.5050190000000 1.0
C      1  0.5117130000000  0.5403600000000  0.4941690000000 1.0
C      1  0.5486350000000  0.4250550000000  0.4791250000000 1.0
C      1  0.4504330000000  0.5748140000000  0.5186930000000 1.0
C      1  0.4779950000000  0.5688130000000  0.5115910000000 1.0
C      1  0.5210350000000  0.4308610000000  0.4861450000000 1.0
C      1  0.4368910000000  0.5518680000000  0.5110500000000 1.0
C      1  0.5620820000000  0.4477170000000  0.4877930000000 1.0
C      1  0.5258100000000  0.5677660000000  0.4960650000000 1.0
C      1  0.4676300000000  0.4304190000000  0.5067750000000 1.0
C      1  0.5254270000000  0.5726380000000  0.5263620000000 1.0
C      1  0.4745810000000  0.4299640000000  0.4707360000000 1.0
C      1  0.4269660000000  0.5194960000000  0.4683020000000 1.0
C      1  0.5724620000000  0.4785880000000  0.5296060000000 1.0
C      1  0.4445620000000  0.4673050000000  0.4758610000000 1.0
C      1  0.5551140000000  0.5353010000000  0.5215290000000 1.0
C      1  0.5464590000000  0.5240790000000  0.4462800000000 1.0
C      1  0.4543070000000  0.4772070000000  0.5559910000000 1.0
C      1  0.4980100000000  0.5160670000000  0.4570740000000 1.0
C      1  0.5015010000000  0.4860830000000  0.5403320000000 1.0
C      1  0.4641430000000  0.5223260000000  0.4929170000000 1.0
C      1  0.5333330000000  0.4748570000000  0.5076460000000 1.0
C      1  0.4712420000000  0.5068250000000  0.4674020000000 1.0
C      1  0.5288490000000  0.4945960000000  0.5283740000000 1.0
C      1  0.5348350000000  0.4718280000000  0.4470610000000 1.0
C      1  0.4653720000000  0.5295180000000  0.5532120000000 1.0
C      1  0.5475600000000  0.5604450000000  0.4760520000000 1.0
C      1  0.4514740000000  0.4389100000000  0.5299900000000 1.0
C      1  0.5643420000000  0.4962150000000  0.4841920000000 1.0
C      1  0.4336640000000  0.5038180000000  0.5179140000000 1.0
C      1  0.4933790000000  0.4567090000000  0.5349380000000 1.0
C      1  0.5058820000000  0.5443990000000  0.4636800000000 1.0
C      1  0.4586670000000  0.5374540000000  0.4338760000000 1.0
C      1  0.5410600000000  0.4633740000000  0.5635380000000 1.0
C      1  0.4822150000000  0.5356100000000  0.4179820000000 1.0
C      1  0.5179670000000  0.4658080000000  0.5797620000000 1.0
C      1  0.4621250000000  0.4778780000000  0.4967320000000 1.0
C      1  0.5347480000000  0.5194430000000  0.5070740000000 1.0
C      1  0.5139450000000  0.4336480000000  0.5352300000000 1.0
C      1  0.4849600000000  0.5669660000000  0.4629260000000 1.0
C      1  0.4622100000000  0.4536050000000  0.4592110000000 1.0
C      1  0.5385260000000  0.5493420000000  0.5394330000000 1.0
C      1  0.5080970000000  0.4548740000000  0.4466200000000 1.0
C      1  0.4921130000000  0.5473380000000  0.5537370000000 1.0
C      1  0.4493390000000  0.5116560000000  0.4463190000000 1.0
C      1  0.5506140000000  0.4890350000000  0.5504520000000 1.0
C      1  0.5577130000000  0.5228410000000  0.4743290000000 1.0
C      1  0.4408880000000  0.4777130000000  0.5290840000000 1.0
C      1  0.4852130000000  0.5826210000000  0.4868090000000 1.0
C      1  0.5134940000000  0.4182270000000  0.5113140000000 1.0
C      1  0.4960340000000  0.5717620000000  0.5357910000000 1.0
C      1  0.5029500000000  0.4290060000000  0.4619480000000 1.0
C      1  0.5124770000000  0.4615190000000  0.4899720000000 1.0
C      1  0.4849500000000  0.5398730000000  0.5066580000000 1.0
C      1  0.5217350000000  0.4983400000000  0.4722570000000 1.0
C      1  0.4769430000000  0.5025750000000  0.5277930000000 1.0
C      1  0.4972530000000  0.4985360000000  0.4978290000000 1.0
END
