TITL C-3578204-4308-630 -5.6807195350443e-06 125000 -528.532191814167 0 0 86 (C1) n - 1
REM
REM in /home/bkarasulu/work/CARBON/AIRSS/Generating-Clusters/EDIP-Nigel-Params/with-SteepDescent/Higher-Symm/SD-CG/HFTN-CG
REM
REM
REM
REM
REM
REM ./C.cell (12c818d87b63d06a65506943cc24bca4)
REM
REM compiler GCC version 9.2.1 20190827 (Red Hat 9.2.1-1)
REM options -cpp -mtune=generic -march=x86-64 -g -O0 -fpre-include=/usr/include/finclude/math-vector-fortran.h
REM seed -1373101662 405165706 1861653896 748574901 -1960476858 -1004636758 1106031077 -965040903 -897701764 2046323315 -1816624432 -533332208 -1235641573 508460423 -443224733 1298439676 -1351329945 -1395116189 -209624926 1100187887 -1708369129 714832316 472312749 157456230 2102347874 -1232806675 1950614675 2123393628 2050967410 261897076 -1377817649 1860169477 -1749692703
REM
CELL 1.54180   50.00000   50.00000   50.00000   90.00000   90.00000   90.00000
LATT -1
SFAC C  
C      1  0.5026310000000  0.4356390000000  0.4706550000000 1.0
C      1  0.4669100000000  0.5538070000000  0.4335160000000 1.0
C      1  0.4616630000000  0.5634470000000  0.4983450000000 1.0
C      1  0.5377810000000  0.4957670000000  0.5685170000000 1.0
C      1  0.5270540000000  0.5329390000000  0.5684790000000 1.0
C      1  0.5385470000000  0.4792150000000  0.4203940000000 1.0
C      1  0.5810590000000  0.5270070000000  0.5191270000000 1.0
C      1  0.5867100000000  0.4728040000000  0.5206990000000 1.0
C      1  0.4217640000000  0.5360140000000  0.5046690000000 1.0
C      1  0.5152480000000  0.5427320000000  0.4449570000000 1.0
C      1  0.4633940000000  0.5087900000000  0.5042420000000 1.0
C      1  0.5135330000000  0.4636300000000  0.4280300000000 1.0
C      1  0.5571180000000  0.5292290000000  0.4698260000000 1.0
C      1  0.5013920000000  0.4626780000000  0.4843630000000 1.0
C      1  0.4587670000000  0.4889860000000  0.5474940000000 1.0
C      1  0.4545510000000  0.5336910000000  0.5597730000000 1.0
C      1  0.5196630000000  0.5312530000000  0.5105740000000 1.0
C      1  0.5491160000000  0.5672070000000  0.5066690000000 1.0
C      1  0.4748140000000  0.5377590000000  0.5084490000000 1.0
C      1  0.4998820000000  0.5685050000000  0.5324520000000 1.0
C      1  0.5645700000000  0.4542940000000  0.5229830000000 1.0
C      1  0.4767800000000  0.4217570000000  0.4710180000000 1.0
C      1  0.5721900000000  0.5505430000000  0.5053350000000 1.0
C      1  0.5086090000000  0.4478160000000  0.5329370000000 1.0
C      1  0.4899780000000  0.4749100000000  0.5755040000000 1.0
C      1  0.4937000000000  0.5821250000000  0.4596050000000 1.0
C      1  0.5072060000000  0.5099810000000  0.5305860000000 1.0
C      1  0.5503700000000  0.4941930000000  0.5098580000000 1.0
C      1  0.4868140000000  0.5805910000000  0.5081190000000 1.0
C      1  0.5671380000000  0.4433690000000  0.4760740000000 1.0
C      1  0.5642720000000  0.5256310000000  0.5437000000000 1.0
C      1  0.5581550000000  0.4805070000000  0.4431010000000 1.0
C      1  0.4815610000000  0.5439150000000  0.5434080000000 1.0
C      1  0.4657530000000  0.5223720000000  0.4309170000000 1.0
C      1  0.4512940000000  0.4360810000000  0.4758530000000 1.0
C      1  0.4838120000000  0.5036590000000  0.4202050000000 1.0
C      1  0.4162960000000  0.4963990000000  0.4768710000000 1.0
C      1  0.5289390000000  0.5559460000000  0.5260430000000 1.0
C      1  0.5147970000000  0.4406050000000  0.4451900000000 1.0
C      1  0.4679970000000  0.4441490000000  0.5477650000000 1.0
C      1  0.5130110000000  0.4209830000000  0.5204110000000 1.0
C      1  0.4352900000000  0.5125720000000  0.5159890000000 1.0
C      1  0.5018370000000  0.5233960000000  0.5564140000000 1.0
C      1  0.4188230000000  0.5274260000000  0.4774580000000 1.0
C      1  0.4381140000000  0.4839970000000  0.4613090000000 1.0
C      1  0.5381130000000  0.4605030000000  0.5354970000000 1.0
C      1  0.4627040000000  0.5146410000000  0.5830270000000 1.0
C      1  0.5215710000000  0.5028950000000  0.4739800000000 1.0
C      1  0.4945130000000  0.5637030000000  0.4389990000000 1.0
C      1  0.5801990000000  0.4974800000000  0.5073380000000 1.0
C      1  0.4555490000000  0.5615380000000  0.4695200000000 1.0
C      1  0.4326910000000  0.4621090000000  0.5151670000000 1.0
C      1  0.5351270000000  0.5722870000000  0.4813530000000 1.0
C      1  0.5397460000000  0.5171450000000  0.4924050000000 1.0
C      1  0.5106910000000  0.4564780000000  0.5701410000000 1.0
C      1  0.5445110000000  0.5469330000000  0.5503650000000 1.0
C      1  0.4628900000000  0.4960080000000  0.4738810000000 1.0
C      1  0.5360560000000  0.4674340000000  0.5635510000000 1.0
C      1  0.4891500000000  0.5044520000000  0.5756640000000 1.0
C      1  0.4997400000000  0.5413230000000  0.4911150000000 1.0
C      1  0.4851480000000  0.4791820000000  0.4653120000000 1.0
C      1  0.4879720000000  0.4154470000000  0.5074090000000 1.0
C      1  0.4392390000000  0.5122120000000  0.5454770000000 1.0
C      1  0.4910350000000  0.4645770000000  0.5132540000000 1.0
C      1  0.5224970000000  0.5281580000000  0.4212060000000 1.0
C      1  0.4814960000000  0.4920800000000  0.5235330000000 1.0
C      1  0.4448380000000  0.4629210000000  0.5424710000000 1.0
C      1  0.4374390000000  0.5414320000000  0.4590450000000 1.0
C      1  0.4662840000000  0.4290420000000  0.5218410000000 1.0
C      1  0.4524240000000  0.4451040000000  0.5026760000000 1.0
C      1  0.4394770000000  0.4556460000000  0.4590530000000 1.0
C      1  0.5370630000000  0.4196430000000  0.5061440000000 1.0
C      1  0.5048270000000  0.5720980000000  0.4843780000000 1.0
C      1  0.5619000000000  0.5078890000000  0.4513240000000 1.0
C      1  0.5486970000000  0.4613460000000  0.4643760000000 1.0
C      1  0.4203220000000  0.4886510000000  0.5063070000000 1.0
C      1  0.4927620000000  0.4823660000000  0.4369410000000 1.0
C      1  0.5604020000000  0.4347070000000  0.5018660000000 1.0
C      1  0.5413030000000  0.5526810000000  0.4592880000000 1.0
C      1  0.4708330000000  0.5210730000000  0.4607120000000 1.0
C      1  0.5013130000000  0.5248510000000  0.4659830000000 1.0
C      1  0.5326560000000  0.5052490000000  0.4111710000000 1.0
C      1  0.5296430000000  0.4749720000000  0.4837280000000 1.0
C      1  0.5447140000000  0.5037710000000  0.5402230000000 1.0
C      1  0.4646900000000  0.4634500000000  0.5814740000000 1.0
C      1  0.4488710000000  0.4882100000000  0.5849240000000 1.0
END
