TITL C-3578205-846-67 4.88772532099e-07 125000 -173.480437473147 0 0 29 (C3) n - 1
REM
REM in /home/bkarasulu/work/CARBON/AIRSS/Generating-Clusters/EDIP-Nigel-Params/with-SteepDescent/Higher-Symm/SD-CG/HFTN-CG
REM
REM
REM
REM
REM
REM ./C.cell (12c818d87b63d06a65506943cc24bca4)
REM
REM compiler GCC version 9.2.1 20190827 (Red Hat 9.2.1-1)
REM options -cpp -mtune=generic -march=x86-64 -g -O0 -fpre-include=/usr/include/finclude/math-vector-fortran.h
REM seed -792127620 -32027613 -2024164497 1747600330 879842289 -1897330610 1939133912 2137806697 -854755102 2019832664 806058007 66001161 -21929253 -520579030 -1925953516 -710783850 2056266183 34256024 307068743 2118295792 1655532782 569976714 1195594235 903974895 1097954799 710251216 1799653043 1878434208 967331238 -1378665223 144925854 -572417737 -971139015
REM
CELL 1.54180   50.00000   50.00000   50.00000   90.00000   90.00000   90.00000
LATT -1
SFAC C  
C      1  0.4684210000000  0.5180970000000  0.5476850000000 1.0
C      1  0.5580010000000  0.5179660000000  0.5051730000000 1.0
C      1  0.4763950000000  0.5183440000000  0.4488510000000 1.0
C      1  0.4706790000000  0.4908480000000  0.5507800000000 1.0
C      1  0.5595040000000  0.4907380000000  0.5014940000000 1.0
C      1  0.4724090000000  0.4911200000000  0.4492120000000 1.0
C      1  0.5272040000000  0.5516890000000  0.4908820000000 1.0
C      1  0.4794760000000  0.5518420000000  0.4828850000000 1.0
C      1  0.4964140000000  0.5516720000000  0.5282170000000 1.0
C      1  0.5268360000000  0.4592290000000  0.4903250000000 1.0
C      1  0.4790140000000  0.4593810000000  0.4828840000000 1.0
C      1  0.4964810000000  0.4592100000000  0.5280200000000 1.0
C      1  0.4701670000000  0.4729750000000  0.5279100000000 1.0
C      1  0.5399220000000  0.4728240000000  0.5132570000000 1.0
C      1  0.4923550000000  0.4730990000000  0.4601740000000 1.0
C      1  0.4762530000000  0.5310880000000  0.5237720000000 1.0
C      1  0.5333980000000  0.5309680000000  0.5104310000000 1.0
C      1  0.4932720000000  0.5311950000000  0.4676120000000 1.0
C      1  0.5165970000000  0.4813030000000  0.5315630000000 1.0
C      1  0.5198870000000  0.4814580000000  0.4712760000000 1.0
C      1  0.4660310000000  0.4815310000000  0.4985710000000 1.0
C      1  0.5188600000000  0.5331250000000  0.5360170000000 1.0
C      1  0.5227030000000  0.5333020000000  0.4674230000000 1.0
C      1  0.4613780000000  0.5333860000000  0.4983920000000 1.0
C      1  0.4590950000000  0.5071770000000  0.4819460000000 1.0
C      1  0.5057130000000  0.5068740000000  0.5460480000000 1.0
C      1  0.5379170000000  0.5069830000000  0.4736250000000 1.0
C      1  0.5007440000000  0.4471170000000  0.5003760000000 1.0
C      1  0.5010650000000  0.5639430000000  0.5006950000000 1.0
END
