TITL C-3577080-309-21 3.52966715873513e-06 125000 -908.696862417209 0 0 147 (C1) n - 1
REM
REM in /home/bkarasulu/work/CARBON/AIRSS/Generating-Clusters/EDIP-Nigel-Params/with-SteepDescent/Higher-Symm/SD-CG/HFTN-CG
REM
REM
REM
REM
REM
REM ./C.cell (12c818d87b63d06a65506943cc24bca4)
REM
REM compiler GCC version 9.2.1 20190827 (Red Hat 9.2.1-1)
REM options -cpp -mtune=generic -march=x86-64 -g -O0 -fpre-include=/usr/include/finclude/math-vector-fortran.h
REM seed 1171125297 1994282644 -221233033 141550105 107404940 1870007074 -532083878 308794620 -170519427 162560629 -990374913 1410398685 -471085798 -1238878309 -326869216 851540051 -763652217 329060751 657432614 -1938450368 -52866740 -1884881836 2005487134 -760286885 1041964494 1443880787 428729359 -2127500217 1877285319 1728056954 200762290 -1605170974 188271081
REM
CELL 1.54180   50.00000   50.00000   50.00000   90.00000   90.00000   90.00000
LATT -1
SFAC C  
C      1  0.4617620000000  0.4655310000000  0.4625620000000 1.0
C      1  0.4032530000000  0.4671010000000  0.4886730000000 1.0
C      1  0.4852820000000  0.5772380000000  0.5588570000000 1.0
C      1  0.4621240000000  0.3938620000000  0.4974540000000 1.0
C      1  0.5378740000000  0.5260430000000  0.4957090000000 1.0
C      1  0.4512440000000  0.4941310000000  0.5587600000000 1.0
C      1  0.5640350000000  0.4949170000000  0.5631180000000 1.0
C      1  0.4766240000000  0.4861180000000  0.5128820000000 1.0
C      1  0.5664640000000  0.5243420000000  0.5291770000000 1.0
C      1  0.4516430000000  0.4172960000000  0.5359140000000 1.0
C      1  0.4089580000000  0.5120890000000  0.4749140000000 1.0
C      1  0.5973500000000  0.5169450000000  0.4770230000000 1.0
C      1  0.5042230000000  0.5130010000000  0.4647300000000 1.0
C      1  0.5085340000000  0.4227630000000  0.4520350000000 1.0
C      1  0.4531710000000  0.4644130000000  0.5667690000000 1.0
C      1  0.4648270000000  0.4710590000000  0.5941580000000 1.0
C      1  0.4423760000000  0.5183820000000  0.5125420000000 1.0
C      1  0.5371760000000  0.5733090000000  0.5392550000000 1.0
C      1  0.4657230000000  0.4881360000000  0.4438100000000 1.0
C      1  0.4364960000000  0.4941560000000  0.4117610000000 1.0
C      1  0.5416410000000  0.4505880000000  0.5780430000000 1.0
C      1  0.5104090000000  0.4724200000000  0.4355730000000 1.0
C      1  0.5731870000000  0.5620870000000  0.4648760000000 1.0
C      1  0.4908360000000  0.5537380000000  0.5219840000000 1.0
C      1  0.5596990000000  0.4966210000000  0.4834620000000 1.0
C      1  0.5375640000000  0.4317530000000  0.5089150000000 1.0
C      1  0.5507960000000  0.5545360000000  0.5841280000000 1.0
C      1  0.4319340000000  0.4308360000000  0.4629030000000 1.0
C      1  0.4949960000000  0.5153130000000  0.4138390000000 1.0
C      1  0.4947760000000  0.4332290000000  0.5887730000000 1.0
C      1  0.5483450000000  0.4690430000000  0.4819810000000 1.0
C      1  0.4817810000000  0.6055990000000  0.5026150000000 1.0
C      1  0.5746060000000  0.5121820000000  0.4299180000000 1.0
C      1  0.5326210000000  0.5717550000000  0.5695580000000 1.0
C      1  0.4305540000000  0.5595500000000  0.5202460000000 1.0
C      1  0.5767920000000  0.5383860000000  0.4188260000000 1.0
C      1  0.5349200000000  0.5171230000000  0.4656320000000 1.0
C      1  0.5279020000000  0.4053160000000  0.4650790000000 1.0
C      1  0.5136320000000  0.5395240000000  0.4122490000000 1.0
C      1  0.4314250000000  0.4223240000000  0.5548510000000 1.0
C      1  0.5041290000000  0.4206990000000  0.4223390000000 1.0
C      1  0.4209470000000  0.5516310000000  0.4931450000000 1.0
C      1  0.5170470000000  0.5895290000000  0.5241080000000 1.0
C      1  0.4149920000000  0.4496990000000  0.4495630000000 1.0
C      1  0.4901930000000  0.6086050000000  0.4753720000000 1.0
C      1  0.4948110000000  0.4962110000000  0.4406620000000 1.0
C      1  0.5334650000000  0.5346280000000  0.5558370000000 1.0
C      1  0.5045000000000  0.5669970000000  0.5776990000000 1.0
C      1  0.5112050000000  0.4722190000000  0.6094150000000 1.0
C      1  0.5219090000000  0.5166120000000  0.5792970000000 1.0
C      1  0.4544130000000  0.4657610000000  0.5126960000000 1.0
C      1  0.5092850000000  0.5708850000000  0.5022490000000 1.0
C      1  0.5488730000000  0.4424090000000  0.4275960000000 1.0
C      1  0.4168100000000  0.5512510000000  0.5434090000000 1.0
C      1  0.5890990000000  0.4530960000000  0.5079090000000 1.0
C      1  0.4383800000000  0.5049120000000  0.4827640000000 1.0
C      1  0.5602620000000  0.4910970000000  0.4168580000000 1.0
C      1  0.4782980000000  0.4566360000000  0.4045230000000 1.0
C      1  0.4199960000000  0.4991770000000  0.4336690000000 1.0
C      1  0.4941210000000  0.5402840000000  0.4553800000000 1.0
C      1  0.5659750000000  0.4981460000000  0.5152460000000 1.0
C      1  0.5088430000000  0.5310870000000  0.5342780000000 1.0
C      1  0.4217850000000  0.4633850000000  0.5321120000000 1.0
C      1  0.5054040000000  0.5886550000000  0.4620110000000 1.0
C      1  0.4279090000000  0.5524630000000  0.4622300000000 1.0
C      1  0.4171940000000  0.5072770000000  0.5282200000000 1.0
C      1  0.5365790000000  0.5578590000000  0.4987210000000 1.0
C      1  0.4918910000000  0.5085440000000  0.4952060000000 1.0
C      1  0.5617260000000  0.4471570000000  0.5221020000000 1.0
C      1  0.5164930000000  0.5112720000000  0.5125850000000 1.0
C      1  0.5140740000000  0.4524020000000  0.5065620000000 1.0
C      1  0.4874800000000  0.5174210000000  0.5473410000000 1.0
C      1  0.4826270000000  0.4121960000000  0.4910060000000 1.0
C      1  0.5663850000000  0.4658360000000  0.4303630000000 1.0
C      1  0.5633930000000  0.5729720000000  0.5223550000000 1.0
C      1  0.4982220000000  0.4996390000000  0.5675740000000 1.0
C      1  0.5193880000000  0.4666600000000  0.4819680000000 1.0
C      1  0.4322650000000  0.4315020000000  0.4936250000000 1.0
C      1  0.3935030000000  0.5214570000000  0.5213060000000 1.0
C      1  0.4301180000000  0.4502350000000  0.5564510000000 1.0
C      1  0.5534790000000  0.4435800000000  0.4657900000000 1.0
C      1  0.4141810000000  0.5266340000000  0.4485400000000 1.0
C      1  0.4587110000000  0.5632970000000  0.4410460000000 1.0
C      1  0.5695160000000  0.4298500000000  0.5445660000000 1.0
C      1  0.4818800000000  0.5553780000000  0.4793780000000 1.0
C      1  0.5724010000000  0.5421420000000  0.5731020000000 1.0
C      1  0.5158650000000  0.5525720000000  0.4385870000000 1.0
C      1  0.4760400000000  0.5345710000000  0.5011790000000 1.0
C      1  0.4711070000000  0.5314150000000  0.5919580000000 1.0
C      1  0.5572750000000  0.5853540000000  0.4719600000000 1.0
C      1  0.4554490000000  0.5132400000000  0.4560890000000 1.0
C      1  0.4988120000000  0.5423070000000  0.5927480000000 1.0
C      1  0.5576160000000  0.5905780000000  0.4997450000000 1.0
C      1  0.3993670000000  0.5316640000000  0.4955670000000 1.0
C      1  0.5050310000000  0.4739770000000  0.5514400000000 1.0
C      1  0.5426350000000  0.5389620000000  0.4441540000000 1.0
C      1  0.4924120000000  0.5954520000000  0.5377680000000 1.0
C      1  0.5250770000000  0.4392520000000  0.4099720000000 1.0
C      1  0.4580170000000  0.5902480000000  0.5031650000000 1.0
C      1  0.5685380000000  0.4477740000000  0.5658880000000 1.0
C      1  0.5204060000000  0.4780840000000  0.5260740000000 1.0
C      1  0.5172180000000  0.4523390000000  0.4558280000000 1.0
C      1  0.5504750000000  0.4763290000000  0.5315190000000 1.0
C      1  0.4754860000000  0.4321680000000  0.4203240000000 1.0
C      1  0.5763780000000  0.5467010000000  0.5136240000000 1.0
C      1  0.4136520000000  0.4492550000000  0.5077830000000 1.0
C      1  0.4240690000000  0.5070830000000  0.5576920000000 1.0
C      1  0.4565790000000  0.5730160000000  0.4787210000000 1.0
C      1  0.6050890000000  0.4961610000000  0.4965580000000 1.0
C      1  0.4421820000000  0.4087320000000  0.5095220000000 1.0
C      1  0.4602720000000  0.4369430000000  0.4518170000000 1.0
C      1  0.4579860000000  0.5719050000000  0.5638190000000 1.0
C      1  0.4579110000000  0.4772800000000  0.4073490000000 1.0
C      1  0.4803130000000  0.5855680000000  0.4457350000000 1.0
C      1  0.5841680000000  0.4724520000000  0.5590700000000 1.0
C      1  0.4885370000000  0.4564650000000  0.6044960000000 1.0
C      1  0.4416810000000  0.4734790000000  0.4843970000000 1.0
C      1  0.3942290000000  0.4864200000000  0.4700230000000 1.0
C      1  0.5751910000000  0.5209460000000  0.5556980000000 1.0
C      1  0.5122430000000  0.4207120000000  0.5500180000000 1.0
C      1  0.4527110000000  0.5452100000000  0.5730730000000 1.0
C      1  0.5450170000000  0.4976020000000  0.5866650000000 1.0
C      1  0.5072920000000  0.4648130000000  0.4077350000000 1.0
C      1  0.5956110000000  0.4711170000000  0.4845310000000 1.0
C      1  0.4703360000000  0.5345880000000  0.4381110000000 1.0
C      1  0.5364250000000  0.4719510000000  0.5972650000000 1.0
C      1  0.5748130000000  0.5598130000000  0.4366970000000 1.0
C      1  0.5333220000000  0.5918460000000  0.4580500000000 1.0
C      1  0.5115440000000  0.4932070000000  0.3964270000000 1.0
C      1  0.4907590000000  0.4468790000000  0.5533730000000 1.0
C      1  0.4818470000000  0.4179770000000  0.4627560000000 1.0
C      1  0.5949750000000  0.4762300000000  0.5284200000000 1.0
C      1  0.5896390000000  0.5021180000000  0.4523650000000 1.0
C      1  0.5402590000000  0.5016760000000  0.3978240000000 1.0
C      1  0.5293810000000  0.4129150000000  0.5289790000000 1.0
C      1  0.4049670000000  0.4761030000000  0.4449780000000 1.0
C      1  0.5415330000000  0.5299730000000  0.4060650000000 1.0
C      1  0.5452760000000  0.4200110000000  0.4814200000000 1.0
C      1  0.4728710000000  0.5009190000000  0.5862320000000 1.0
C      1  0.5219360000000  0.4279290000000  0.5775010000000 1.0
C      1  0.4870610000000  0.4372590000000  0.5061710000000 1.0
C      1  0.4566810000000  0.5719230000000  0.5257280000000 1.0
C      1  0.5837570000000  0.4734440000000  0.4555730000000 1.0
C      1  0.4698140000000  0.4410440000000  0.5297530000000 1.0
C      1  0.5819130000000  0.5417690000000  0.4847600000000 1.0
C      1  0.4262480000000  0.5357010000000  0.5649920000000 1.0
C      1  0.4649900000000  0.5044350000000  0.5325410000000 1.0
END
