TITL C-3578207-9274-716 1.87424220496364e-06 125000 -1075.32828611811 0 0 174 (C1) n - 1
REM
REM in /home/bkarasulu/work/CARBON/AIRSS/Generating-Clusters/EDIP-Nigel-Params/with-SteepDescent/Higher-Symm/SD-CG/HFTN-CG
REM
REM
REM
REM
REM
REM ./C.cell (12c818d87b63d06a65506943cc24bca4)
REM
REM compiler GCC version 9.2.1 20190827 (Red Hat 9.2.1-1)
REM options -cpp -mtune=generic -march=x86-64 -g -O0 -fpre-include=/usr/include/finclude/math-vector-fortran.h
REM seed -601032328 775000817 904687371 -1122435933 -1530669702 -1726566927 981666238 -1760556524 -877853814 389885311 -432519695 -610910741 -113564442 -1868402801 -1932184654 1453394062 -293704035 -1398756108 -2005853218 1661711579 -542698116 1414502094 -76892464 1257049942 -1497084104 -122253236 -1040265897 1336874481 2005181209 -64790319 -1605686194 -1276192572 -2106491636
REM
CELL 1.54180   50.00000   50.00000   50.00000   90.00000   90.00000   90.00000
LATT -1
SFAC C  
C      1  0.5991200000000  0.5156790000000  0.5506940000000 1.0
C      1  0.5508640000000  0.5965810000000  0.5158790000000 1.0
C      1  0.5163040000000  0.5507280000000  0.5984350000000 1.0
C      1  0.6005210000000  0.4846300000000  0.4473430000000 1.0
C      1  0.4052780000000  0.4821510000000  0.5533020000000 1.0
C      1  0.4014090000000  0.5203900000000  0.4446600000000 1.0
C      1  0.5492220000000  0.4060290000000  0.4865000000000 1.0
C      1  0.4484820000000  0.3976010000000  0.5196610000000 1.0
C      1  0.4493070000000  0.6006550000000  0.4822730000000 1.0
C      1  0.5168660000000  0.4490840000000  0.4033930000000 1.0
C      1  0.4863110000000  0.4481580000000  0.5992930000000 1.0
C      1  0.4821390000000  0.5547830000000  0.3997030000000 1.0
C      1  0.4166750000000  0.5092070000000  0.5469480000000 1.0
C      1  0.4461890000000  0.5999150000000  0.5198450000000 1.0
C      1  0.4856570000000  0.5499500000000  0.6005150000000 1.0
C      1  0.4011860000000  0.4824630000000  0.4487710000000 1.0
C      1  0.5981520000000  0.4851440000000  0.5495640000000 1.0
C      1  0.6002760000000  0.5157570000000  0.4478510000000 1.0
C      1  0.4476400000000  0.3994050000000  0.4818500000000 1.0
C      1  0.5482820000000  0.4059440000000  0.5162620000000 1.0
C      1  0.5502790000000  0.5953300000000  0.4857570000000 1.0
C      1  0.4803700000000  0.4471790000000  0.4004890000000 1.0
C      1  0.5171750000000  0.4484420000000  0.6000410000000 1.0
C      1  0.5190600000000  0.5530900000000  0.4013790000000 1.0
C      1  0.5156800000000  0.5147770000000  0.5735210000000 1.0
C      1  0.5746750000000  0.5157830000000  0.5144210000000 1.0
C      1  0.5144920000000  0.5720630000000  0.5152750000000 1.0
C      1  0.5153230000000  0.4823110000000  0.4310720000000 1.0
C      1  0.4833300000000  0.4822770000000  0.5718690000000 1.0
C      1  0.4880520000000  0.5148430000000  0.4178160000000 1.0
C      1  0.5737010000000  0.4858450000000  0.4817980000000 1.0
C      1  0.4291810000000  0.4794780000000  0.5167290000000 1.0
C      1  0.4302210000000  0.5117570000000  0.4770110000000 1.0
C      1  0.5148530000000  0.4333160000000  0.4852440000000 1.0
C      1  0.4798640000000  0.4238940000000  0.5169310000000 1.0
C      1  0.4841950000000  0.5745310000000  0.4833460000000 1.0
C      1  0.4844730000000  0.5140050000000  0.5753220000000 1.0
C      1  0.4429720000000  0.5192600000000  0.5050580000000 1.0
C      1  0.4841740000000  0.5784060000000  0.5136220000000 1.0
C      1  0.4858860000000  0.4870770000000  0.4197800000000 1.0
C      1  0.5157030000000  0.4832920000000  0.5736250000000 1.0
C      1  0.5155260000000  0.5195070000000  0.4283740000000 1.0
C      1  0.4236670000000  0.4842790000000  0.4867850000000 1.0
C      1  0.5738710000000  0.4843240000000  0.5129390000000 1.0
C      1  0.5747570000000  0.5167440000000  0.4835040000000 1.0
C      1  0.4807720000000  0.4273460000000  0.4856180000000 1.0
C      1  0.5108300000000  0.4292290000000  0.5169180000000 1.0
C      1  0.5173060000000  0.5663940000000  0.4833560000000 1.0
C      1  0.4764500000000  0.5260450000000  0.3936120000000 1.0
C      1  0.3935720000000  0.4713310000000  0.5284360000000 1.0
C      1  0.5238730000000  0.3964920000000  0.4768140000000 1.0
C      1  0.4755820000000  0.4736710000000  0.6086310000000 1.0
C      1  0.5249250000000  0.4750930000000  0.3940890000000 1.0
C      1  0.5272800000000  0.5255210000000  0.6085210000000 1.0
C      1  0.4013400000000  0.5233490000000  0.4740340000000 1.0
C      1  0.6098170000000  0.5265480000000  0.5256470000000 1.0
C      1  0.6095330000000  0.4748300000000  0.4735670000000 1.0
C      1  0.5256700000000  0.6072580000000  0.5258280000000 1.0
C      1  0.4752220000000  0.6099060000000  0.4724770000000 1.0
C      1  0.4753530000000  0.3884700000000  0.5280040000000 1.0
C      1  0.5272950000000  0.5269970000000  0.3919790000000 1.0
C      1  0.6090960000000  0.4743200000000  0.5247970000000 1.0
C      1  0.4741200000000  0.3915660000000  0.4735020000000 1.0
C      1  0.5267600000000  0.4746140000000  0.6093120000000 1.0
C      1  0.4752620000000  0.4754910000000  0.3932150000000 1.0
C      1  0.4758100000000  0.5244250000000  0.6111790000000 1.0
C      1  0.6102290000000  0.5259260000000  0.4737940000000 1.0
C      1  0.4079510000000  0.5177770000000  0.5211410000000 1.0
C      1  0.3971040000000  0.4752850000000  0.4776530000000 1.0
C      1  0.4749950000000  0.6057330000000  0.5247890000000 1.0
C      1  0.5246570000000  0.6041100000000  0.4762850000000 1.0
C      1  0.5240600000000  0.3941180000000  0.5260460000000 1.0
C      1  0.4847060000000  0.4031580000000  0.4490070000000 1.0
C      1  0.4465020000000  0.4856410000000  0.3956640000000 1.0
C      1  0.4021170000000  0.4456420000000  0.4867350000000 1.0
C      1  0.4849110000000  0.5989650000000  0.5528940000000 1.0
C      1  0.5159720000000  0.5953620000000  0.4503480000000 1.0
C      1  0.5156590000000  0.4033640000000  0.5520420000000 1.0
C      1  0.4496450000000  0.5149950000000  0.6019780000000 1.0
C      1  0.5512270000000  0.5154120000000  0.4032170000000 1.0
C      1  0.5519710000000  0.4847800000000  0.5984210000000 1.0
C      1  0.4098590000000  0.5463300000000  0.5156250000000 1.0
C      1  0.6006080000000  0.5520260000000  0.4839780000000 1.0
C      1  0.5989710000000  0.4486190000000  0.5152160000000 1.0
C      1  0.5147220000000  0.4056840000000  0.4511120000000 1.0
C      1  0.5498180000000  0.4855410000000  0.4040850000000 1.0
C      1  0.5986880000000  0.4498040000000  0.4843020000000 1.0
C      1  0.5157030000000  0.5970810000000  0.5513380000000 1.0
C      1  0.4859170000000  0.5991900000000  0.4471740000000 1.0
C      1  0.4854280000000  0.3999960000000  0.5534080000000 1.0
C      1  0.5523070000000  0.5152500000000  0.5976340000000 1.0
C      1  0.4471920000000  0.5161670000000  0.3962820000000 1.0
C      1  0.4494620000000  0.4836810000000  0.5997170000000 1.0
C      1  0.5994430000000  0.5519490000000  0.5152420000000 1.0
C      1  0.4071100000000  0.5511760000000  0.4853730000000 1.0
C      1  0.4021430000000  0.4450170000000  0.5181300000000 1.0
C      1  0.5436320000000  0.4835570000000  0.4639240000000 1.0
C      1  0.4658880000000  0.5501650000000  0.4791960000000 1.0
C      1  0.4757660000000  0.4584470000000  0.5390460000000 1.0
C      1  0.5300720000000  0.5161140000000  0.5434860000000 1.0
C      1  0.4538630000000  0.5134750000000  0.4484210000000 1.0
C      1  0.4545820000000  0.4872000000000  0.5448900000000 1.0
C      1  0.4555460000000  0.4598980000000  0.5124280000000 1.0
C      1  0.5352330000000  0.4606800000000  0.4869450000000 1.0
C      1  0.5475350000000  0.5287840000000  0.5174240000000 1.0
C      1  0.4797770000000  0.5256870000000  0.4650560000000 1.0
C      1  0.5073710000000  0.5443380000000  0.5286590000000 1.0
C      1  0.5090670000000  0.4666080000000  0.4585960000000 1.0
C      1  0.4645350000000  0.4844270000000  0.4405760000000 1.0
C      1  0.5388770000000  0.5399690000000  0.4861930000000 1.0
C      1  0.5058900000000  0.4569900000000  0.5307360000000 1.0
C      1  0.4668580000000  0.5187850000000  0.5507280000000 1.0
C      1  0.5419670000000  0.5174570000000  0.4623750000000 1.0
C      1  0.5317770000000  0.4836870000000  0.5446040000000 1.0
C      1  0.5466990000000  0.4716480000000  0.5173150000000 1.0
C      1  0.4629730000000  0.4523150000000  0.4822110000000 1.0
C      1  0.4582050000000  0.5435310000000  0.5067690000000 1.0
C      1  0.5106980000000  0.5330170000000  0.4570340000000 1.0
C      1  0.4753890000000  0.5453650000000  0.5327490000000 1.0
C      1  0.4793930000000  0.4739420000000  0.4656830000000 1.0
C      1  0.5367210000000  0.5751580000000  0.4446810000000 1.0
C      1  0.4435000000000  0.5374050000000  0.5825620000000 1.0
C      1  0.5767970000000  0.4451490000000  0.5352030000000 1.0
C      1  0.5360960000000  0.4242850000000  0.5576530000000 1.0
C      1  0.4649490000000  0.4243330000000  0.4441470000000 1.0
C      1  0.4652740000000  0.5774950000000  0.5593760000000 1.0
C      1  0.4446220000000  0.4664420000000  0.4254540000000 1.0
C      1  0.5564090000000  0.4658990000000  0.5762730000000 1.0
C      1  0.5568450000000  0.5344890000000  0.4246590000000 1.0
C      1  0.5787150000000  0.5561110000000  0.4641730000000 1.0
C      1  0.4252620000000  0.5562590000000  0.5393710000000 1.0
C      1  0.4276450000000  0.4447810000000  0.4673720000000 1.0
C      1  0.4657930000000  0.5779110000000  0.4430040000000 1.0
C      1  0.5556520000000  0.5336540000000  0.5746540000000 1.0
C      1  0.4246340000000  0.4405160000000  0.5371900000000 1.0
C      1  0.4651780000000  0.4208650000000  0.5585840000000 1.0
C      1  0.5345730000000  0.4268050000000  0.4461120000000 1.0
C      1  0.5343530000000  0.5743950000000  0.5548990000000 1.0
C      1  0.5559540000000  0.4665220000000  0.4253320000000 1.0
C      1  0.4447550000000  0.4622320000000  0.5788520000000 1.0
C      1  0.4458000000000  0.5328180000000  0.4252420000000 1.0
C      1  0.4300060000000  0.5557080000000  0.4646130000000 1.0
C      1  0.5771580000000  0.5559500000000  0.5349060000000 1.0
C      1  0.5771350000000  0.4451050000000  0.4648460000000 1.0
C      1  0.5365310000000  0.4445110000000  0.5778510000000 1.0
C      1  0.5780030000000  0.5350250000000  0.4438110000000 1.0
C      1  0.4422660000000  0.5800640000000  0.5414380000000 1.0
C      1  0.5385280000000  0.5568700000000  0.4227870000000 1.0
C      1  0.4641550000000  0.5587780000000  0.5820430000000 1.0
C      1  0.4604630000000  0.4412610000000  0.4209780000000 1.0
C      1  0.5771070000000  0.4655810000000  0.5560270000000 1.0
C      1  0.4210950000000  0.4614880000000  0.4430070000000 1.0
C      1  0.4265270000000  0.5344030000000  0.5591800000000 1.0
C      1  0.4420310000000  0.4196380000000  0.4614900000000 1.0
C      1  0.5564020000000  0.4248600000000  0.5367270000000 1.0
C      1  0.5568500000000  0.5746730000000  0.4657520000000 1.0
C      1  0.4659840000000  0.4420380000000  0.5785160000000 1.0
C      1  0.4209320000000  0.5416790000000  0.4387180000000 1.0
C      1  0.5546470000000  0.5740910000000  0.5340110000000 1.0
C      1  0.4641250000000  0.5573100000000  0.4225670000000 1.0
C      1  0.5350760000000  0.5544790000000  0.5755990000000 1.0
C      1  0.5370470000000  0.4445360000000  0.4239090000000 1.0
C      1  0.4234730000000  0.4597820000000  0.5592460000000 1.0
C      1  0.5779840000000  0.4650880000000  0.4434290000000 1.0
C      1  0.5766880000000  0.5345100000000  0.5547670000000 1.0
C      1  0.5549220000000  0.4268870000000  0.4667240000000 1.0
C      1  0.4426760000000  0.4181810000000  0.5400320000000 1.0
C      1  0.4428380000000  0.5820960000000  0.4604550000000 1.0
C      1  0.5049630000000  0.5232710000000  0.5083850000000 1.0
C      1  0.4890650000000  0.5030660000000  0.5232460000000 1.0
C      1  0.5269290000000  0.5012080000000  0.5002600000000 1.0
C      1  0.5043500000000  0.4791580000000  0.5116630000000 1.0
C      1  0.4808750000000  0.4993010000000  0.4801680000000 1.0
C      1  0.4655190000000  0.4987440000000  0.5050580000000 1.0
END
