TITL C-3577083-591-22 -7.83134457756376e-07 125000 -671.96981256373 0 0 107 (C1) n - 1
REM
REM in /home/bkarasulu/work/CARBON/AIRSS/Generating-Clusters/EDIP-Nigel-Params/with-SteepDescent/Higher-Symm/SD-CG/HFTN-CG
REM
REM
REM
REM
REM
REM ./C.cell (12c818d87b63d06a65506943cc24bca4)
REM
REM compiler GCC version 9.2.1 20190827 (Red Hat 9.2.1-1)
REM options -cpp -mtune=generic -march=x86-64 -g -O0 -fpre-include=/usr/include/finclude/math-vector-fortran.h
REM seed -1335776761 -643872345 -1969442753 677358069 1414099394 1129384142 -387109660 -1530984898 -1756915836 -562875661 -2072876706 1498839246 -1439146793 1921664056 -2045756073 2099980019 -347211937 2000171116 -1361403385 -1692816231 55992454 -1858171095 1877351709 782714920 -1392249900 -2013496183 1652283560 -1583521923 665908325 -139873859 -269670472 143160200 -1706858457
REM
CELL 1.54180   50.00000   50.00000   50.00000   90.00000   90.00000   90.00000
LATT -1
SFAC C  
C      1  0.5812840000000  0.4937230000000  0.4771640000000 1.0
C      1  0.4218120000000  0.4941890000000  0.4750910000000 1.0
C      1  0.6052840000000  0.4518750000000  0.4891060000000 1.0
C      1  0.3929770000000  0.4564980000000  0.4919160000000 1.0
C      1  0.5705090000000  0.4819960000000  0.4331860000000 1.0
C      1  0.4300450000000  0.4773760000000  0.4310770000000 1.0
C      1  0.5016590000000  0.4562230000000  0.4475400000000 1.0
C      1  0.4728190000000  0.4658470000000  0.4498240000000 1.0
C      1  0.5284770000000  0.5477620000000  0.4605440000000 1.0
C      1  0.4767880000000  0.5532340000000  0.4675560000000 1.0
C      1  0.5149090000000  0.4725300000000  0.5898030000000 1.0
C      1  0.4860550000000  0.4710410000000  0.5911370000000 1.0
C      1  0.5299730000000  0.4290390000000  0.5284420000000 1.0
C      1  0.4761470000000  0.4281110000000  0.5253130000000 1.0
C      1  0.4934170000000  0.5500120000000  0.4095500000000 1.0
C      1  0.5195350000000  0.5453020000000  0.4057590000000 1.0
C      1  0.5300950000000  0.4606950000000  0.5670790000000 1.0
C      1  0.4709320000000  0.4572090000000  0.5691560000000 1.0
C      1  0.5973410000000  0.4408000000000  0.5119060000000 1.0
C      1  0.4060220000000  0.4436530000000  0.5115010000000 1.0
C      1  0.5373420000000  0.4200860000000  0.4805690000000 1.0
C      1  0.4739160000000  0.4153570000000  0.4775410000000 1.0
C      1  0.4663340000000  0.5453140000000  0.4952890000000 1.0
C      1  0.5335930000000  0.5421610000000  0.4918270000000 1.0
C      1  0.5268330000000  0.5764560000000  0.5090820000000 1.0
C      1  0.4690960000000  0.5784530000000  0.5156860000000 1.0
C      1  0.5359270000000  0.5078150000000  0.4325860000000 1.0
C      1  0.4870960000000  0.5115680000000  0.4368730000000 1.0
C      1  0.4720190000000  0.4988190000000  0.4849900000000 1.0
C      1  0.5174590000000  0.4997910000000  0.4782480000000 1.0
C      1  0.5884720000000  0.4615570000000  0.4435900000000 1.0
C      1  0.4129060000000  0.4568140000000  0.4468280000000 1.0
C      1  0.5373810000000  0.5852760000000  0.4832710000000 1.0
C      1  0.4599580000000  0.5875790000000  0.4899030000000 1.0
C      1  0.5181890000000  0.5768260000000  0.4617100000000 1.0
C      1  0.4902970000000  0.5786890000000  0.4684090000000 1.0
C      1  0.5767530000000  0.5505000000000  0.4804230000000 1.0
C      1  0.4253820000000  0.5506130000000  0.4782590000000 1.0
C      1  0.4292950000000  0.4442620000000  0.5262460000000 1.0
C      1  0.5782620000000  0.4432290000000  0.5316130000000 1.0
C      1  0.4823900000000  0.5097850000000  0.5321330000000 1.0
C      1  0.5159250000000  0.5077740000000  0.5287510000000 1.0
C      1  0.5137620000000  0.5198960000000  0.4990120000000 1.0
C      1  0.4827310000000  0.5205140000000  0.5017200000000 1.0
C      1  0.5555870000000  0.4747830000000  0.5632250000000 1.0
C      1  0.4454800000000  0.4718780000000  0.5637920000000 1.0
C      1  0.5623920000000  0.5338970000000  0.5015930000000 1.0
C      1  0.4369750000000  0.5358150000000  0.5023870000000 1.0
C      1  0.5206850000000  0.4879190000000  0.4158660000000 1.0
C      1  0.4935770000000  0.4944920000000  0.4144170000000 1.0
C      1  0.4118760000000  0.4670880000000  0.4742600000000 1.0
C      1  0.5922470000000  0.4679580000000  0.4710240000000 1.0
C      1  0.5692570000000  0.4699510000000  0.5378930000000 1.0
C      1  0.4404450000000  0.4706290000000  0.5336980000000 1.0
C      1  0.5146690000000  0.5166830000000  0.4526100000000 1.0
C      1  0.4676120000000  0.4960270000000  0.4554510000000 1.0
C      1  0.4616650000000  0.5145870000000  0.5868590000000 1.0
C      1  0.5372790000000  0.5165590000000  0.5847190000000 1.0
C      1  0.4804180000000  0.4981030000000  0.6013650000000 1.0
C      1  0.5192850000000  0.4995830000000  0.5997740000000 1.0
C      1  0.4901050000000  0.4247820000000  0.4998080000000 1.0
C      1  0.5187960000000  0.4182730000000  0.5033770000000 1.0
C      1  0.4820040000000  0.5599560000000  0.5917410000000 1.0
C      1  0.5202490000000  0.5632500000000  0.5866410000000 1.0
C      1  0.4712510000000  0.4754800000000  0.5263250000000 1.0
C      1  0.5210880000000  0.4774500000000  0.5208580000000 1.0
C      1  0.4401690000000  0.5391120000000  0.5340210000000 1.0
C      1  0.5593520000000  0.5395230000000  0.5317520000000 1.0
C      1  0.5574700000000  0.4248310000000  0.5326000000000 1.0
C      1  0.4486410000000  0.4248790000000  0.5238150000000 1.0
C      1  0.5135210000000  0.5586570000000  0.5271540000000 1.0
C      1  0.4849270000000  0.5606060000000  0.5316930000000 1.0
C      1  0.5440370000000  0.4463340000000  0.4689370000000 1.0
C      1  0.4475500000000  0.4276460000000  0.4706440000000 1.0
C      1  0.4371070000000  0.5015580000000  0.4505750000000 1.0
C      1  0.5688550000000  0.5053400000000  0.4535580000000 1.0
C      1  0.4711010000000  0.5392870000000  0.5750550000000 1.0
C      1  0.5263290000000  0.5397300000000  0.5713620000000 1.0
C      1  0.5140820000000  0.4504400000000  0.4739970000000 1.0
C      1  0.4658060000000  0.4530970000000  0.4763020000000 1.0
C      1  0.5804940000000  0.4954550000000  0.5274440000000 1.0
C      1  0.4240420000000  0.4946470000000  0.5251760000000 1.0
C      1  0.5298760000000  0.5377610000000  0.5409850000000 1.0
C      1  0.4694260000000  0.5381320000000  0.5444210000000 1.0
C      1  0.5166820000000  0.4543440000000  0.5399920000000 1.0
C      1  0.4851580000000  0.4519610000000  0.5416030000000 1.0
C      1  0.5708650000000  0.5164780000000  0.5462840000000 1.0
C      1  0.4298860000000  0.5143960000000  0.5463710000000 1.0
C      1  0.5638300000000  0.5756710000000  0.4788860000000 1.0
C      1  0.4357910000000  0.5769130000000  0.4801160000000 1.0
C      1  0.4309740000000  0.5064290000000  0.4995980000000 1.0
C      1  0.5721980000000  0.5053040000000  0.5013360000000 1.0
C      1  0.5417760000000  0.5333040000000  0.4174850000000 1.0
C      1  0.4743770000000  0.5355420000000  0.4238820000000 1.0
C      1  0.4590290000000  0.5499270000000  0.4442870000000 1.0
C      1  0.5518290000000  0.5488460000000  0.4405690000000 1.0
C      1  0.4478780000000  0.5010240000000  0.5655370000000 1.0
C      1  0.5515770000000  0.5031250000000  0.5636290000000 1.0
C      1  0.4788650000000  0.4734880000000  0.4965680000000 1.0
C      1  0.5092130000000  0.4742510000000  0.4928710000000 1.0
C      1  0.5504770000000  0.4549280000000  0.4401500000000 1.0
C      1  0.4357630000000  0.4351580000000  0.4434510000000 1.0
C      1  0.5747190000000  0.5361270000000  0.4536770000000 1.0
C      1  0.4341290000000  0.5363830000000  0.4527810000000 1.0
C      1  0.5231230000000  0.4615440000000  0.4279640000000 1.0
C      1  0.4531900000000  0.4568280000000  0.4294880000000 1.0
C      1  0.4987470000000  0.5803730000000  0.5834350000000 1.0
END
