TITL C-3577089-586-639 -4.32404350252805e-06 125000 -1206.0795031514 0 0 192 (C1) n - 1
REM
REM in /home/bkarasulu/work/CARBON/AIRSS/Generating-Clusters/EDIP-Nigel-Params/with-SteepDescent/Higher-Symm/SD-CG/HFTN-CG
REM
REM
REM
REM
REM
REM ./C.cell (12c818d87b63d06a65506943cc24bca4)
REM
REM compiler GCC version 9.2.1 20190827 (Red Hat 9.2.1-1)
REM options -cpp -mtune=generic -march=x86-64 -g -O0 -fpre-include=/usr/include/finclude/math-vector-fortran.h
REM seed 363101864 -305394640 1056395323 -1756146977 1718982820 -309572386 310067523 -1099271052 1123152810 744808633 -1287712711 661127044 -361762940 -457506900 1982355864 637274729 95044017 -86612203 -1468135480 2081600259 -872166134 -33321107 290563558 -1996850162 -611340347 1095641450 1992200186 -877835354 1765526513 -146448778 -1255106842 -2122913189 -1236069512
REM
CELL 1.54180   50.00000   50.00000   50.00000   90.00000   90.00000   90.00000
LATT -1
SFAC C  
C      1  0.5209690000000  0.4480250000000  0.5451810000000 1.0
C      1  0.5135890000000  0.5635540000000  0.5138190000000 1.0
C      1  0.5081000000000  0.4875060000000  0.4335870000000 1.0
C      1  0.4888190000000  0.4476570000000  0.5463990000000 1.0
C      1  0.4818350000000  0.5597310000000  0.5136630000000 1.0
C      1  0.4786860000000  0.4902060000000  0.4326760000000 1.0
C      1  0.4906670000000  0.4359430000000  0.4122250000000 1.0
C      1  0.4870790000000  0.4572630000000  0.6031240000000 1.0
C      1  0.4869540000000  0.6099240000000  0.4874380000000 1.0
C      1  0.5194630000000  0.4382860000000  0.4144130000000 1.0
C      1  0.5154890000000  0.4574250000000  0.6021560000000 1.0
C      1  0.5157370000000  0.6112210000000  0.4876110000000 1.0
C      1  0.5890840000000  0.5573770000000  0.5036030000000 1.0
C      1  0.5809920000000  0.4758620000000  0.4474530000000 1.0
C      1  0.5819330000000  0.4664410000000  0.5437630000000 1.0
C      1  0.4068590000000  0.5581980000000  0.5013280000000 1.0
C      1  0.4132660000000  0.4738880000000  0.4499190000000 1.0
C      1  0.4151260000000  0.4703030000000  0.5493450000000 1.0
C      1  0.4346690000000  0.5535670000000  0.5719400000000 1.0
C      1  0.4450940000000  0.5340620000000  0.4136220000000 1.0
C      1  0.4463130000000  0.4066160000000  0.5178600000000 1.0
C      1  0.5572200000000  0.5563930000000  0.5716400000000 1.0
C      1  0.5579880000000  0.5390570000000  0.4136190000000 1.0
C      1  0.5601280000000  0.3958820000000  0.5242960000000 1.0
C      1  0.3994040000000  0.4378120000000  0.4835650000000 1.0
C      1  0.3995290000000  0.5184370000000  0.5571890000000 1.0
C      1  0.3938390000000  0.5451590000000  0.4534090000000 1.0
C      1  0.5858550000000  0.4429690000000  0.4861980000000 1.0
C      1  0.6001740000000  0.5113220000000  0.5631670000000 1.0
C      1  0.6064460000000  0.5460990000000  0.4570490000000 1.0
C      1  0.4177020000000  0.5802660000000  0.4836660000000 1.0
C      1  0.4251080000000  0.4479950000000  0.4397020000000 1.0
C      1  0.4229700000000  0.4761530000000  0.5782090000000 1.0
C      1  0.5841390000000  0.5826050000000  0.4866590000000 1.0
C      1  0.5744010000000  0.4501640000000  0.4331640000000 1.0
C      1  0.5636420000000  0.4701430000000  0.5668860000000 1.0
C      1  0.5565160000000  0.4321430000000  0.5882340000000 1.0
C      1  0.5572840000000  0.6070490000000  0.5183670000000 1.0
C      1  0.5579440000000  0.4673290000000  0.3958630000000 1.0
C      1  0.4453760000000  0.4331690000000  0.5866920000000 1.0
C      1  0.4453400000000  0.6041140000000  0.5166550000000 1.0
C      1  0.4475460000000  0.4610210000000  0.3986480000000 1.0
C      1  0.5278630000000  0.5065960000000  0.5716720000000 1.0
C      1  0.5129570000000  0.5639950000000  0.4565600000000 1.0
C      1  0.5162320000000  0.4227690000000  0.4752010000000 1.0
C      1  0.4837010000000  0.5105970000000  0.5747300000000 1.0
C      1  0.4846540000000  0.5558560000000  0.4591130000000 1.0
C      1  0.4870900000000  0.4278750000000  0.4772390000000 1.0
C      1  0.6266330000000  0.5242680000000  0.4951470000000 1.0
C      1  0.6172540000000  0.4776830000000  0.4820010000000 1.0
C      1  0.6241310000000  0.4867430000000  0.5295780000000 1.0
C      1  0.3697600000000  0.5270220000000  0.4907190000000 1.0
C      1  0.3734090000000  0.4782030000000  0.4791150000000 1.0
C      1  0.3753450000000  0.4922410000000  0.5265520000000 1.0
C      1  0.5748340000000  0.6065000000000  0.4973380000000 1.0
C      1  0.5760780000000  0.4486510000000  0.4053220000000 1.0
C      1  0.5705700000000  0.4563940000000  0.5906730000000 1.0
C      1  0.4290360000000  0.6030300000000  0.4946860000000 1.0
C      1  0.4331090000000  0.4430860000000  0.4135300000000 1.0
C      1  0.4302190000000  0.4547470000000  0.5942420000000 1.0
C      1  0.5119990000000  0.4837330000000  0.5550430000000 1.0
C      1  0.5257960000000  0.5618240000000  0.4839180000000 1.0
C      1  0.5111740000000  0.4669030000000  0.4556660000000 1.0
C      1  0.4824220000000  0.4736250000000  0.5628080000000 1.0
C      1  0.4753640000000  0.5447680000000  0.4854300000000 1.0
C      1  0.4858790000000  0.4591040000000  0.4716820000000 1.0
C      1  0.5653300000000  0.4134280000000  0.5695300000000 1.0
C      1  0.5652680000000  0.5944720000000  0.5417870000000 1.0
C      1  0.5653870000000  0.4940940000000  0.3937730000000 1.0
C      1  0.4367120000000  0.4171100000000  0.5657080000000 1.0
C      1  0.4360450000000  0.5933230000000  0.5404630000000 1.0
C      1  0.4384370000000  0.4874180000000  0.3966790000000 1.0
C      1  0.6078900000000  0.5176770000000  0.4514620000000 1.0
C      1  0.6030520000000  0.4401620000000  0.5101010000000 1.0
C      1  0.6072770000000  0.5307090000000  0.5421130000000 1.0
C      1  0.3886740000000  0.5169130000000  0.4470590000000 1.0
C      1  0.3926100000000  0.4462000000000  0.5107100000000 1.0
C      1  0.3849990000000  0.5378270000000  0.5404760000000 1.0
C      1  0.5632830000000  0.4259760000000  0.4777380000000 1.0
C      1  0.5766410000000  0.5157300000000  0.5782870000000 1.0
C      1  0.5882260000000  0.5628690000000  0.4434420000000 1.0
C      1  0.4218670000000  0.4211980000000  0.4786550000000 1.0
C      1  0.4246980000000  0.5249380000000  0.5706330000000 1.0
C      1  0.4157580000000  0.5587350000000  0.4415150000000 1.0
C      1  0.5338920000000  0.4210880000000  0.4343750000000 1.0
C      1  0.5284810000000  0.4795710000000  0.6135810000000 1.0
C      1  0.5284280000000  0.6112720000000  0.4625140000000 1.0
C      1  0.4794020000000  0.4132030000000  0.4233440000000 1.0
C      1  0.4763980000000  0.4813540000000  0.6124980000000 1.0
C      1  0.4742530000000  0.6126040000000  0.4627080000000 1.0
C      1  0.5154990000000  0.4848940000000  0.3957140000000 1.0
C      1  0.5142370000000  0.4190870000000  0.5688780000000 1.0
C      1  0.5152580000000  0.5958220000000  0.5348500000000 1.0
C      1  0.4878420000000  0.4837700000000  0.3957270000000 1.0
C      1  0.4864190000000  0.4179660000000  0.5710120000000 1.0
C      1  0.4877890000000  0.5922260000000  0.5336800000000 1.0
C      1  0.4895660000000  0.3983460000000  0.4445710000000 1.0
C      1  0.4882220000000  0.5066340000000  0.6039900000000 1.0
C      1  0.4870260000000  0.6030270000000  0.4397530000000 1.0
C      1  0.5176690000000  0.4038410000000  0.4530340000000 1.0
C      1  0.5196320000000  0.5051230000000  0.6026760000000 1.0
C      1  0.5146490000000  0.5929280000000  0.4443580000000 1.0
C      1  0.4447850000000  0.5120060000000  0.4625310000000 1.0
C      1  0.4498470000000  0.4597440000000  0.5117230000000 1.0
C      1  0.4435410000000  0.5332220000000  0.5236860000000 1.0
C      1  0.5407150000000  0.5116380000000  0.4652060000000 1.0
C      1  0.5429840000000  0.4661390000000  0.5037430000000 1.0
C      1  0.5439560000000  0.5245130000000  0.5141330000000 1.0
C      1  0.5513470000000  0.5482540000000  0.4738910000000 1.0
C      1  0.5390350000000  0.4617750000000  0.4674920000000 1.0
C      1  0.5572870000000  0.5042130000000  0.5327060000000 1.0
C      1  0.4441600000000  0.5389730000000  0.4780730000000 1.0
C      1  0.4506410000000  0.4620210000000  0.4793420000000 1.0
C      1  0.4587260000000  0.4919250000000  0.5512430000000 1.0
C      1  0.6217200000000  0.5051260000000  0.4738450000000 1.0
C      1  0.6210890000000  0.4656700000000  0.5083800000000 1.0
C      1  0.6194300000000  0.5145540000000  0.5214880000000 1.0
C      1  0.3763210000000  0.5061910000000  0.4714200000000 1.0
C      1  0.3781220000000  0.4713370000000  0.5069030000000 1.0
C      1  0.3724370000000  0.5205130000000  0.5193850000000 1.0
C      1  0.5205710000000  0.5135580000000  0.4438540000000 1.0
C      1  0.5342490000000  0.4420780000000  0.5175830000000 1.0
C      1  0.5276530000000  0.5427590000000  0.5304770000000 1.0
C      1  0.4704880000000  0.5110300000000  0.4497580000000 1.0
C      1  0.4777820000000  0.4520180000000  0.5175310000000 1.0
C      1  0.4703160000000  0.5357700000000  0.5322580000000 1.0
C      1  0.5172420000000  0.5496640000000  0.6012810000000 1.0
C      1  0.5155660000000  0.5684240000000  0.4048190000000 1.0
C      1  0.5173310000000  0.3816900000000  0.4918080000000 1.0
C      1  0.4876900000000  0.5514900000000  0.6035230000000 1.0
C      1  0.4859100000000  0.5665850000000  0.4069970000000 1.0
C      1  0.4867480000000  0.3842260000000  0.4927590000000 1.0
C      1  0.4757570000000  0.4587140000000  0.4015010000000 1.0
C      1  0.4732110000000  0.4376780000000  0.5864910000000 1.0
C      1  0.4732960000000  0.6027890000000  0.5119280000000 1.0
C      1  0.5311880000000  0.4635430000000  0.4046800000000 1.0
C      1  0.5282870000000  0.4363310000000  0.5869380000000 1.0
C      1  0.5296040000000  0.6043720000000  0.5123480000000 1.0
C      1  0.4673580000000  0.5336280000000  0.5632050000000 1.0
C      1  0.4751970000000  0.5370720000000  0.4380260000000 1.0
C      1  0.4776550000000  0.4253950000000  0.5057420000000 1.0
C      1  0.5261080000000  0.5368980000000  0.5600860000000 1.0
C      1  0.5282860000000  0.5421450000000  0.4376810000000 1.0
C      1  0.5385790000000  0.4201720000000  0.4963520000000 1.0
C      1  0.5982240000000  0.4624870000000  0.4681900000000 1.0
C      1  0.6065600000000  0.4831810000000  0.5527230000000 1.0
C      1  0.6134000000000  0.5491410000000  0.4864240000000 1.0
C      1  0.3900400000000  0.4595600000000  0.4643240000000 1.0
C      1  0.3929910000000  0.4909230000000  0.5490030000000 1.0
C      1  0.3842710000000  0.5508110000000  0.4819040000000 1.0
C      1  0.4276810000000  0.5364740000000  0.5016740000000 1.0
C      1  0.4331690000000  0.4854560000000  0.4704660000000 1.0
C      1  0.4389410000000  0.4787970000000  0.5320060000000 1.0
C      1  0.5651160000000  0.5391760000000  0.4980260000000 1.0
C      1  0.5555220000000  0.4851000000000  0.4613740000000 1.0
C      1  0.5659890000000  0.4797210000000  0.5200680000000 1.0
C      1  0.5894730000000  0.4373970000000  0.5362190000000 1.0
C      1  0.5931260000000  0.5557240000000  0.5344460000000 1.0
C      1  0.5914780000000  0.5016440000000  0.4330350000000 1.0
C      1  0.4079630000000  0.4409500000000  0.5359720000000 1.0
C      1  0.3995930000000  0.5625600000000  0.5318650000000 1.0
C      1  0.4064970000000  0.4990320000000  0.4307140000000 1.0
C      1  0.4737640000000  0.3932010000000  0.4679060000000 1.0
C      1  0.4776800000000  0.5296380000000  0.6184120000000 1.0
C      1  0.4738320000000  0.5885610000000  0.4198040000000 1.0
C      1  0.5293570000000  0.3802610000000  0.4657090000000 1.0
C      1  0.5299430000000  0.5289260000000  0.6159560000000 1.0
C      1  0.5274230000000  0.5901590000000  0.4184570000000 1.0
C      1  0.5699500000000  0.5708720000000  0.4631080000000 1.0
C      1  0.5533510000000  0.4375750000000  0.4510920000000 1.0
C      1  0.5570060000000  0.4997160000000  0.5638980000000 1.0
C      1  0.4326830000000  0.5642950000000  0.4633040000000 1.0
C      1  0.4391740000000  0.4375470000000  0.4636990000000 1.0
C      1  0.4409610000000  0.5004540000000  0.5763140000000 1.0
C      1  0.4914760000000  0.5198270000000  0.4932450000000 1.0
C      1  0.4933360000000  0.4689660000000  0.4983250000000 1.0
C      1  0.4841710000000  0.5118020000000  0.5210320000000 1.0
C      1  0.5238370000000  0.5117440000000  0.4915840000000 1.0
C      1  0.5182740000000  0.4840600000000  0.5051680000000 1.0
C      1  0.5077610000000  0.4966150000000  0.5300870000000 1.0
C      1  0.4712880000000  0.5581560000000  0.5798140000000 1.0
C      1  0.4692240000000  0.5434380000000  0.4002950000000 1.0
C      1  0.4704010000000  0.3896880000000  0.5171270000000 1.0
C      1  0.5330860000000  0.5662460000000  0.5836850000000 1.0
C      1  0.5332360000000  0.5457870000000  0.3998040000000 1.0
C      1  0.5354090000000  0.3862280000000  0.5146540000000 1.0
C      1  0.5735890000000  0.5138580000000  0.4117890000000 1.0
C      1  0.5731460000000  0.4131880000000  0.5428230000000 1.0
C      1  0.5739990000000  0.5701050000000  0.5521400000000 1.0
C      1  0.4280180000000  0.5093050000000  0.4108990000000 1.0
C      1  0.4286490000000  0.4184670000000  0.5389850000000 1.0
C      1  0.4221200000000  0.5712500000000  0.5502780000000 1.0
END
