TITL C-3578208-4450-673 3.81277707250241e-06 125000 -887.61100932537 0 0 142 (C1) n - 1
REM
REM in /home/bkarasulu/work/CARBON/AIRSS/Generating-Clusters/EDIP-Nigel-Params/with-SteepDescent/Higher-Symm/SD-CG/HFTN-CG
REM
REM
REM
REM
REM
REM ./C.cell (12c818d87b63d06a65506943cc24bca4)
REM
REM compiler GCC version 9.2.1 20190827 (Red Hat 9.2.1-1)
REM options -cpp -mtune=generic -march=x86-64 -g -O0 -fpre-include=/usr/include/finclude/math-vector-fortran.h
REM seed 905427275 -530030438 -423561065 1499975413 1953467448 -595080094 -482806696 1854236179 1508670310 -1883926984 -1252899206 -1943771923 -1826561685 -915517515 734541032 -543451884 93596591 -1674463668 -955162976 1322769227 2124852227 -1367845957 -260445473 -318671729 1141569755 1302898885 -2099176073 -322841394 -12705551 -1961353584 -1571870063 -1739649515 983582315
REM
CELL 1.54180   50.00000   50.00000   50.00000   90.00000   90.00000   90.00000
LATT -1
SFAC C  
C      1  0.4868900000000  0.5336770000000  0.4641200000000 1.0
C      1  0.4862660000000  0.4741770000000  0.5263690000000 1.0
C      1  0.5137140000000  0.5265640000000  0.4712400000000 1.0
C      1  0.5168420000000  0.4727300000000  0.5260210000000 1.0
C      1  0.4847880000000  0.4774550000000  0.4791870000000 1.0
C      1  0.4906190000000  0.5229850000000  0.5210110000000 1.0
C      1  0.5159310000000  0.4761890000000  0.4792040000000 1.0
C      1  0.5212430000000  0.5177700000000  0.5212730000000 1.0
C      1  0.5144370000000  0.5705510000000  0.5537590000000 1.0
C      1  0.5133990000000  0.4204000000000  0.4450450000000 1.0
C      1  0.4844500000000  0.5719650000000  0.5524060000000 1.0
C      1  0.4830380000000  0.4207340000000  0.4471570000000 1.0
C      1  0.5122470000000  0.4202160000000  0.5581340000000 1.0
C      1  0.5134400000000  0.5819580000000  0.4457490000000 1.0
C      1  0.4823630000000  0.4202800000000  0.5560830000000 1.0
C      1  0.4837150000000  0.5833840000000  0.4440810000000 1.0
C      1  0.4634240000000  0.5541850000000  0.5947040000000 1.0
C      1  0.4661690000000  0.4419330000000  0.4036900000000 1.0
C      1  0.5349640000000  0.5525310000000  0.5960980000000 1.0
C      1  0.5329290000000  0.4461760000000  0.4048080000000 1.0
C      1  0.4672500000000  0.4427320000000  0.5984100000000 1.0
C      1  0.4703270000000  0.5537840000000  0.4029810000000 1.0
C      1  0.5285480000000  0.4425790000000  0.6010870000000 1.0
C      1  0.5294790000000  0.5606710000000  0.4011360000000 1.0
C      1  0.5278580000000  0.5485630000000  0.4823390000000 1.0
C      1  0.5227380000000  0.4462230000000  0.5154460000000 1.0
C      1  0.4707930000000  0.5479390000000  0.4839310000000 1.0
C      1  0.4745870000000  0.4486760000000  0.5161730000000 1.0
C      1  0.5220740000000  0.4472780000000  0.4867500000000 1.0
C      1  0.5368790000000  0.5416010000000  0.5096840000000 1.0
C      1  0.4743210000000  0.4497300000000  0.4871230000000 1.0
C      1  0.4859150000000  0.5495820000000  0.5086130000000 1.0
C      1  0.4336710000000  0.4381170000000  0.5293760000000 1.0
C      1  0.4340730000000  0.5674500000000  0.4688060000000 1.0
C      1  0.5620050000000  0.4345040000000  0.5319930000000 1.0
C      1  0.5629800000000  0.5725360000000  0.4693610000000 1.0
C      1  0.4328530000000  0.5603340000000  0.5255120000000 1.0
C      1  0.4341420000000  0.4366660000000  0.4733690000000 1.0
C      1  0.5670970000000  0.5661660000000  0.5285120000000 1.0
C      1  0.5616390000000  0.4325900000000  0.4734580000000 1.0
C      1  0.5463730000000  0.4100940000000  0.4871340000000 1.0
C      1  0.5458180000000  0.5841090000000  0.5163660000000 1.0
C      1  0.4485920000000  0.4136970000000  0.4859880000000 1.0
C      1  0.4510160000000  0.5816270000000  0.5145420000000 1.0
C      1  0.5444400000000  0.5894630000000  0.4857840000000 1.0
C      1  0.5477180000000  0.4101190000000  0.5186130000000 1.0
C      1  0.4511350000000  0.5858410000000  0.4843020000000 1.0
C      1  0.4475320000000  0.4138200000000  0.5169650000000 1.0
C      1  0.4853990000000  0.5130220000000  0.4205220000000 1.0
C      1  0.4850820000000  0.4831010000000  0.5766480000000 1.0
C      1  0.5158660000000  0.5205680000000  0.4237150000000 1.0
C      1  0.5163080000000  0.4823680000000  0.5777480000000 1.0
C      1  0.4835880000000  0.4747420000000  0.4285720000000 1.0
C      1  0.4843730000000  0.5209890000000  0.5737160000000 1.0
C      1  0.5147900000000  0.4818020000000  0.4264520000000 1.0
C      1  0.5169410000000  0.5140120000000  0.5763750000000 1.0
C      1  0.5321890000000  0.5675630000000  0.4282730000000 1.0
C      1  0.5314620000000  0.4355970000000  0.5740800000000 1.0
C      1  0.4662800000000  0.5652670000000  0.4284540000000 1.0
C      1  0.4629110000000  0.4355310000000  0.5716960000000 1.0
C      1  0.5320550000000  0.4390300000000  0.4319410000000 1.0
C      1  0.5359190000000  0.5573810000000  0.5684220000000 1.0
C      1  0.4634640000000  0.4355100000000  0.4311340000000 1.0
C      1  0.4622010000000  0.5589210000000  0.5668280000000 1.0
C      1  0.5660130000000  0.5289270000000  0.5058150000000 1.0
C      1  0.5836630000000  0.4740690000000  0.4717760000000 1.0
C      1  0.4420130000000  0.5177330000000  0.5184520000000 1.0
C      1  0.4264160000000  0.4821090000000  0.4852380000000 1.0
C      1  0.5841410000000  0.4794100000000  0.5252190000000 1.0
C      1  0.5787730000000  0.5324260000000  0.4774300000000 1.0
C      1  0.4446470000000  0.4880140000000  0.5106870000000 1.0
C      1  0.4504170000000  0.5265930000000  0.4903860000000 1.0
C      1  0.6056590000000  0.5195880000000  0.4753180000000 1.0
C      1  0.6048950000000  0.4944160000000  0.5118640000000 1.0
C      1  0.4265680000000  0.5241130000000  0.4720900000000 1.0
C      1  0.4068710000000  0.4813160000000  0.5243400000000 1.0
C      1  0.6053050000000  0.4913610000000  0.4824830000000 1.0
C      1  0.6036800000000  0.5241960000000  0.5124060000000 1.0
C      1  0.4068860000000  0.5050550000000  0.4870770000000 1.0
C      1  0.4098690000000  0.5189780000000  0.5145990000000 1.0
C      1  0.4413580000000  0.5144260000000  0.4108270000000 1.0
C      1  0.4400310000000  0.4826270000000  0.5919790000000 1.0
C      1  0.5578940000000  0.5200670000000  0.4087190000000 1.0
C      1  0.5588480000000  0.4810460000000  0.5958120000000 1.0
C      1  0.4399060000000  0.4831750000000  0.4093510000000 1.0
C      1  0.4398160000000  0.5126600000000  0.5881910000000 1.0
C      1  0.5575540000000  0.4896190000000  0.4141730000000 1.0
C      1  0.5604380000000  0.5118060000000  0.5922440000000 1.0
C      1  0.4710480000000  0.5162820000000  0.4466560000000 1.0
C      1  0.4733490000000  0.4861620000000  0.5495540000000 1.0
C      1  0.5316270000000  0.5146720000000  0.4511320000000 1.0
C      1  0.5329100000000  0.4803740000000  0.5510180000000 1.0
C      1  0.4698130000000  0.4872240000000  0.4541090000000 1.0
C      1  0.4702140000000  0.5159010000000  0.5444780000000 1.0
C      1  0.5308780000000  0.4845490000000  0.4529410000000 1.0
C      1  0.5339960000000  0.5120740000000  0.5494900000000 1.0
C      1  0.4277980000000  0.4700550000000  0.4356500000000 1.0
C      1  0.4295720000000  0.5197030000000  0.5606250000000 1.0
C      1  0.5668270000000  0.4721400000000  0.4455440000000 1.0
C      1  0.5699630000000  0.5195820000000  0.5633690000000 1.0
C      1  0.4408730000000  0.5259310000000  0.4409860000000 1.0
C      1  0.4277020000000  0.4708080000000  0.5673400000000 1.0
C      1  0.5711190000000  0.5373750000000  0.4306730000000 1.0
C      1  0.5697940000000  0.4676600000000  0.5708420000000 1.0
C      1  0.4400410000000  0.5469040000000  0.5510990000000 1.0
C      1  0.4380090000000  0.4426390000000  0.4441030000000 1.0
C      1  0.5589350000000  0.5481140000000  0.5524760000000 1.0
C      1  0.5564890000000  0.4440210000000  0.4465460000000 1.0
C      1  0.4392630000000  0.4453780000000  0.5574500000000 1.0
C      1  0.4418230000000  0.5565050000000  0.4417130000000 1.0
C      1  0.5555740000000  0.4436860000000  0.5600130000000 1.0
C      1  0.5587550000000  0.5643110000000  0.4397970000000 1.0
C      1  0.5791890000000  0.4523040000000  0.5161120000000 1.0
C      1  0.5885710000000  0.5691550000000  0.4819590000000 1.0
C      1  0.4124830000000  0.4530070000000  0.5154430000000 1.0
C      1  0.4099320000000  0.5569730000000  0.4815290000000 1.0
C      1  0.5901740000000  0.5596600000000  0.5101020000000 1.0
C      1  0.5803970000000  0.4496380000000  0.4873010000000 1.0
C      1  0.4096950000000  0.5498070000000  0.5100890000000 1.0
C      1  0.4108980000000  0.4475020000000  0.4870690000000 1.0
C      1  0.4671130000000  0.4709860000000  0.5980920000000 1.0
C      1  0.4674400000000  0.5258490000000  0.4001090000000 1.0
C      1  0.5309740000000  0.4707030000000  0.6013110000000 1.0
C      1  0.5312550000000  0.5323270000000  0.4012350000000 1.0
C      1  0.4652360000000  0.5263220000000  0.5965280000000 1.0
C      1  0.4668420000000  0.4701800000000  0.4039940000000 1.0
C      1  0.5342590000000  0.5247530000000  0.5984050000000 1.0
C      1  0.5335600000000  0.4741950000000  0.4048130000000 1.0
C      1  0.4806520000000  0.5757290000000  0.5228140000000 1.0
C      1  0.4782810000000  0.4206430000000  0.4772570000000 1.0
C      1  0.5195460000000  0.5729130000000  0.5249560000000 1.0
C      1  0.5165770000000  0.4189770000000  0.4757740000000 1.0
C      1  0.4780470000000  0.4197180000000  0.5261230000000 1.0
C      1  0.4789360000000  0.5847790000000  0.4735790000000 1.0
C      1  0.5165800000000  0.4183900000000  0.5277730000000 1.0
C      1  0.5174320000000  0.5781980000000  0.4761340000000 1.0
C      1  0.5711560000000  0.4891850000000  0.5502640000000 1.0
C      1  0.5621130000000  0.5223190000000  0.4538540000000 1.0
C      1  0.4211310000000  0.4922480000000  0.5481150000000 1.0
C      1  0.4400350000000  0.4848280000000  0.4578810000000 1.0
C      1  0.5251100000000  0.4918870000000  0.5045790000000 1.0
C      1  0.4762750000000  0.4932910000000  0.5042590000000 1.0
END
