TITL C-3577088-510-103 1.55159018003471e-06 125000 -861.371961737493 0 0 140 (C1) n - 1
REM
REM in /home/bkarasulu/work/CARBON/AIRSS/Generating-Clusters/EDIP-Nigel-Params/with-SteepDescent/Higher-Symm/SD-CG/HFTN-CG
REM
REM
REM
REM
REM
REM ./C.cell (12c818d87b63d06a65506943cc24bca4)
REM
REM compiler GCC version 9.2.1 20190827 (Red Hat 9.2.1-1)
REM options -cpp -mtune=generic -march=x86-64 -g -O0 -fpre-include=/usr/include/finclude/math-vector-fortran.h
REM seed -582464342 -1581754038 -192145846 50095647 -726888527 -1351165415 2019860172 -390238599 490466575 -1719354337 -800681815 -182391542 -1213119301 38841800 364130938 -1395158719 -1825728498 -1417770982 -431296903 1303164729 -1607858984 -521403975 -410748122 1020060928 -1993301021 1327822823 -1593224146 2084827824 -813513329 2023877865 1565772038 -1707876692 1890196674
REM
CELL 1.54180   50.00000   50.00000   50.00000   90.00000   90.00000   90.00000
LATT -1
SFAC C  
C      1  0.4959030000000  0.4459110000000  0.4085120000000 1.0
C      1  0.4272300000000  0.5017820000000  0.4065230000000 1.0
C      1  0.4704140000000  0.5470710000000  0.4044020000000 1.0
C      1  0.5532400000000  0.5398330000000  0.4036990000000 1.0
C      1  0.5516850000000  0.4643590000000  0.4133900000000 1.0
C      1  0.5180490000000  0.4288700000000  0.4035180000000 1.0
C      1  0.5691670000000  0.4866770000000  0.4100220000000 1.0
C      1  0.5253930000000  0.5428420000000  0.4064200000000 1.0
C      1  0.4423320000000  0.5491610000000  0.4054890000000 1.0
C      1  0.4502580000000  0.4857540000000  0.4084590000000 1.0
C      1  0.4274450000000  0.4587590000000  0.5715370000000 1.0
C      1  0.4373420000000  0.5570860000000  0.5733190000000 1.0
C      1  0.5336220000000  0.5762030000000  0.5699970000000 1.0
C      1  0.5831890000000  0.4912860000000  0.5689420000000 1.0
C      1  0.5169790000000  0.4179050000000  0.5689520000000 1.0
C      1  0.5781640000000  0.4626640000000  0.5690050000000 1.0
C      1  0.5589600000000  0.5619950000000  0.5690670000000 1.0
C      1  0.4590820000000  0.5764200000000  0.5724350000000 1.0
C      1  0.4149430000000  0.4849710000000  0.5723000000000 1.0
C      1  0.4880830000000  0.4148520000000  0.5694610000000 1.0
C      1  0.4828850000000  0.5810010000000  0.4291070000000 1.0
C      1  0.5618320000000  0.5452230000000  0.4488130000000 1.0
C      1  0.5706840000000  0.4450730000000  0.4487460000000 1.0
C      1  0.4689450000000  0.4319760000000  0.4472790000000 1.0
C      1  0.4188830000000  0.5041500000000  0.4525640000000 1.0
C      1  0.5115250000000  0.5867800000000  0.4267460000000 1.0
C      1  0.4366640000000  0.5511890000000  0.4530220000000 1.0
C      1  0.4470670000000  0.4507800000000  0.4353440000000 1.0
C      1  0.5257960000000  0.4189640000000  0.4486140000000 1.0
C      1  0.5913810000000  0.4987860000000  0.4532720000000 1.0
C      1  0.5616890000000  0.4365420000000  0.4199740000000 1.0
C      1  0.4717320000000  0.4444060000000  0.3941330000000 1.0
C      1  0.4137070000000  0.5171660000000  0.4258860000000 1.0
C      1  0.4859400000000  0.5679060000000  0.3922620000000 1.0
C      1  0.5730840000000  0.5359080000000  0.4227110000000 1.0
C      1  0.4481290000000  0.4560730000000  0.4037780000000 1.0
C      1  0.5383190000000  0.4187650000000  0.4208110000000 1.0
C      1  0.5829720000000  0.5078490000000  0.4246240000000 1.0
C      1  0.5145020000000  0.5704100000000  0.4002390000000 1.0
C      1  0.4232890000000  0.5451230000000  0.4261570000000 1.0
C      1  0.4586320000000  0.4263190000000  0.4759390000000 1.0
C      1  0.4096380000000  0.5176080000000  0.4781660000000 1.0
C      1  0.4846910000000  0.5893830000000  0.4785840000000 1.0
C      1  0.5774550000000  0.5407790000000  0.4750220000000 1.0
C      1  0.5636140000000  0.4340550000000  0.4763430000000 1.0
C      1  0.5397660000000  0.4161620000000  0.4760890000000 1.0
C      1  0.5885570000000  0.5135180000000  0.4790560000000 1.0
C      1  0.5145450000000  0.5858660000000  0.4769800000000 1.0
C      1  0.4220370000000  0.5443380000000  0.4792820000000 1.0
C      1  0.4327400000000  0.4411600000000  0.4800960000000 1.0
C      1  0.4834480000000  0.5430810000000  0.4875580000000 1.0
C      1  0.5345200000000  0.5262960000000  0.4819860000000 1.0
C      1  0.5373360000000  0.4717490000000  0.4879920000000 1.0
C      1  0.4861100000000  0.4592200000000  0.4872410000000 1.0
C      1  0.4516610000000  0.5015010000000  0.4857980000000 1.0
C      1  0.5116380000000  0.5409870000000  0.4945920000000 1.0
C      1  0.4633010000000  0.5257260000000  0.4992630000000 1.0
C      1  0.4627490000000  0.4757500000000  0.4934370000000 1.0
C      1  0.5151600000000  0.4530400000000  0.4812540000000 1.0
C      1  0.5439980000000  0.4992400000000  0.4904940000000 1.0
C      1  0.4365150000000  0.5389820000000  0.5961200000000 1.0
C      1  0.5175780000000  0.5724680000000  0.5939790000000 1.0
C      1  0.5745970000000  0.5060500000000  0.5924270000000 1.0
C      1  0.5291970000000  0.4309250000000  0.5919640000000 1.0
C      1  0.4438940000000  0.4515510000000  0.5943850000000 1.0
C      1  0.5605160000000  0.5412270000000  0.5889860000000 1.0
C      1  0.4796470000000  0.5705590000000  0.5917280000000 1.0
C      1  0.4268700000000  0.5023480000000  0.5919590000000 1.0
C      1  0.4756280000000  0.4310770000000  0.5897620000000 1.0
C      1  0.5586230000000  0.4548890000000  0.5886770000000 1.0
C      1  0.4872450000000  0.4592960000000  0.5346200000000 1.0
C      1  0.4544190000000  0.5005070000000  0.5347170000000 1.0
C      1  0.4839960000000  0.5414560000000  0.5352140000000 1.0
C      1  0.5329350000000  0.5254570000000  0.5335480000000 1.0
C      1  0.5362210000000  0.4732600000000  0.5324490000000 1.0
C      1  0.5150880000000  0.4550590000000  0.5410080000000 1.0
C      1  0.5449630000000  0.4992330000000  0.5421500000000 1.0
C      1  0.5125350000000  0.5431560000000  0.5440480000000 1.0
C      1  0.4605290000000  0.5275450000000  0.5451240000000 1.0
C      1  0.4624450000000  0.4741730000000  0.5440400000000 1.0
C      1  0.4105260000000  0.4766160000000  0.4534650000000 1.0
C      1  0.4694530000000  0.5907330000000  0.4531990000000 1.0
C      1  0.5531430000000  0.5726510000000  0.4478010000000 1.0
C      1  0.5969120000000  0.4552390000000  0.4486080000000 1.0
C      1  0.4766650000000  0.4055470000000  0.4368320000000 1.0
C      1  0.6103480000000  0.4775120000000  0.4537990000000 1.0
C      1  0.5265260000000  0.5799530000000  0.4506760000000 1.0
C      1  0.4444860000000  0.5788090000000  0.4547010000000 1.0
C      1  0.4231110000000  0.4516860000000  0.4536270000000 1.0
C      1  0.5021090000000  0.4024200000000  0.4466800000000 1.0
C      1  0.5316280000000  0.4079460000000  0.5469800000000 1.0
C      1  0.4235770000000  0.4417250000000  0.5493840000000 1.0
C      1  0.4187650000000  0.5559400000000  0.5521140000000 1.0
C      1  0.5258390000000  0.5928580000000  0.5485610000000 1.0
C      1  0.5956520000000  0.5036160000000  0.5468460000000 1.0
C      1  0.4747820000000  0.4123390000000  0.5449720000000 1.0
C      1  0.5780180000000  0.4492490000000  0.5445040000000 1.0
C      1  0.5702650000000  0.5567510000000  0.5440510000000 1.0
C      1  0.4670930000000  0.5864160000000  0.5475170000000 1.0
C      1  0.4065950000000  0.4962220000000  0.5481120000000 1.0
C      1  0.4616960000000  0.5264520000000  0.6054660000000 1.0
C      1  0.5136800000000  0.5448700000000  0.6042650000000 1.0
C      1  0.5473700000000  0.5011370000000  0.6030500000000 1.0
C      1  0.5165310000000  0.4554390000000  0.6028650000000 1.0
C      1  0.4636030000000  0.4713010000000  0.6044330000000 1.0
C      1  0.5360010000000  0.5275700000000  0.5960350000000 1.0
C      1  0.4849090000000  0.5427330000000  0.5976770000000 1.0
C      1  0.4549840000000  0.4986860000000  0.5977850000000 1.0
C      1  0.4879190000000  0.4564310000000  0.5962620000000 1.0
C      1  0.5381680000000  0.4741940000000  0.5955530000000 1.0
C      1  0.5525930000000  0.4977280000000  0.4470530000000 1.0
C      1  0.5177490000000  0.4486490000000  0.4514500000000 1.0
C      1  0.4605100000000  0.4826250000000  0.4368050000000 1.0
C      1  0.4610970000000  0.5329120000000  0.4510130000000 1.0
C      1  0.5131440000000  0.5324040000000  0.4314100000000 1.0
C      1  0.4496960000000  0.5046310000000  0.4552390000000 1.0
C      1  0.4917310000000  0.4514980000000  0.4374490000000 1.0
C      1  0.5409650000000  0.4692760000000  0.4409950000000 1.0
C      1  0.5375900000000  0.5257470000000  0.4514290000000 1.0
C      1  0.4828970000000  0.5423060000000  0.4314020000000 1.0
C      1  0.4417590000000  0.5478700000000  0.5028490000000 1.0
C      1  0.5247090000000  0.5683450000000  0.4998890000000 1.0
C      1  0.5729260000000  0.4958820000000  0.4991340000000 1.0
C      1  0.5188520000000  0.4246620000000  0.4974180000000 1.0
C      1  0.4365880000000  0.4624720000000  0.5015300000000 1.0
C      1  0.5557910000000  0.5463900000000  0.4954930000000 1.0
C      1  0.4717790000000  0.5695960000000  0.4983700000000 1.0
C      1  0.4222500000000  0.4982300000000  0.4986260000000 1.0
C      1  0.4801380000000  0.4308270000000  0.4968860000000 1.0
C      1  0.5628680000000  0.4585110000000  0.4961150000000 1.0
C      1  0.4821640000000  0.5714550000000  0.5277980000000 1.0
C      1  0.5605930000000  0.5372280000000  0.5250810000000 1.0
C      1  0.5565920000000  0.4512580000000  0.5252090000000 1.0
C      1  0.4710080000000  0.4342330000000  0.5264120000000 1.0
C      1  0.4246460000000  0.5072260000000  0.5283960000000 1.0
C      1  0.5145330000000  0.5732420000000  0.5298710000000 1.0
C      1  0.4333900000000  0.5395820000000  0.5325580000000 1.0
C      1  0.4436240000000  0.4519760000000  0.5305410000000 1.0
C      1  0.5289310000000  0.4297080000000  0.5276670000000 1.0
C      1  0.5729860000000  0.5070220000000  0.5284880000000 1.0
END
