TITL C-3578196-9646-228 -3.30488974701345e-06 125000 -541.582810531199 0 0 90 (C1) n - 1
REM
REM in /home/bkarasulu/work/CARBON/AIRSS/Generating-Clusters/EDIP-Nigel-Params/with-SteepDescent/Higher-Symm/SD-CG/HFTN-CG
REM
REM
REM
REM
REM
REM ./C.cell (12c818d87b63d06a65506943cc24bca4)
REM
REM compiler GCC version 9.2.1 20190827 (Red Hat 9.2.1-1)
REM options -cpp -mtune=generic -march=x86-64 -g -O0 -fpre-include=/usr/include/finclude/math-vector-fortran.h
REM seed 1101536272 1733128973 97111957 1239940571 -647783113 -328061571 1135359177 -1529906019 1207232837 -339191309 1493205133 -487791 -821960078 1169584009 -1996127300 1826732903 -893530650 1528149394 316289612 1267958965 763410532 -464523163 153071462 -1187438 -1389982161 -1706507145 -1889234294 124426613 -780712498 -1888253456 944257061 -535518558 -398061278
REM
CELL 1.54180   50.00000   50.00000   50.00000   90.00000   90.00000   90.00000
LATT -1
SFAC C  
C      1  0.4807900000000  0.4919370000000  0.4196360000000 1.0
C      1  0.4802670000000  0.4204780000000  0.4824500000000 1.0
C      1  0.4806880000000  0.4594180000000  0.5695620000000 1.0
C      1  0.4805490000000  0.5540360000000  0.5606270000000 1.0
C      1  0.4803150000000  0.5738650000000  0.4677050000000 1.0
C      1  0.4711840000000  0.5306230000000  0.5765110000000 1.0
C      1  0.4712000000000  0.5813800000000  0.4950390000000 1.0
C      1  0.4712480000000  0.5201290000000  0.4207240000000 1.0
C      1  0.4712210000000  0.4306730000000  0.4559300000000 1.0
C      1  0.4712820000000  0.4374080000000  0.5518030000000 1.0
C      1  0.5622590000000  0.5146380000000  0.5182570000000 1.0
C      1  0.5626490000000  0.5219430000000  0.4917140000000 1.0
C      1  0.5624750000000  0.4989780000000  0.4765260000000 1.0
C      1  0.5618610000000  0.4773860000000  0.4936940000000 1.0
C      1  0.5617750000000  0.4870460000000  0.5195440000000 1.0
C      1  0.5250010000000  0.4193510000000  0.4610100000000 1.0
C      1  0.5246650000000  0.4369430000000  0.5647310000000 1.0
C      1  0.5251920000000  0.5423950000000  0.5788420000000 1.0
C      1  0.5246240000000  0.5887160000000  0.4844100000000 1.0
C      1  0.5249580000000  0.5127970000000  0.4109130000000 1.0
C      1  0.5074000000000  0.4105360000000  0.4812620000000 1.0
C      1  0.5076050000000  0.4545110000000  0.5788200000000 1.0
C      1  0.5076490000000  0.5613860000000  0.5675150000000 1.0
C      1  0.5073310000000  0.5828870000000  0.4628420000000 1.0
C      1  0.5078430000000  0.4903920000000  0.4096320000000 1.0
C      1  0.5186140000000  0.5263570000000  0.4868770000000 1.0
C      1  0.5184870000000  0.4960720000000  0.4708130000000 1.0
C      1  0.5180650000000  0.4702380000000  0.4967710000000 1.0
C      1  0.5178040000000  0.4851150000000  0.5260320000000 1.0
C      1  0.5184410000000  0.5217940000000  0.5201570000000 1.0
C      1  0.4242510000000  0.5238660000000  0.5858190000000 1.0
C      1  0.4244170000000  0.5887920000000  0.5045090000000 1.0
C      1  0.4243000000000  0.5307390000000  0.4164120000000 1.0
C      1  0.4243500000000  0.4305060000000  0.4441750000000 1.0
C      1  0.4243850000000  0.4262140000000  0.5488480000000 1.0
C      1  0.4421890000000  0.4974410000000  0.5250410000000 1.0
C      1  0.4410360000000  0.5229880000000  0.5102250000000 1.0
C      1  0.4415800000000  0.5168040000000  0.4811910000000 1.0
C      1  0.4409350000000  0.4873440000000  0.4780050000000 1.0
C      1  0.4424860000000  0.4755450000000  0.5050950000000 1.0
C      1  0.5189540000000  0.4342960000000  0.5371260000000 1.0
C      1  0.5189260000000  0.5156210000000  0.5723800000000 1.0
C      1  0.5189800000000  0.5744700000000  0.5081910000000 1.0
C      1  0.5189070000000  0.5310140000000  0.4316760000000 1.0
C      1  0.5189770000000  0.4449400000000  0.4506620000000 1.0
C      1  0.4760220000000  0.4415900000000  0.5045900000000 1.0
C      1  0.4763210000000  0.4875600000000  0.5572600000000 1.0
C      1  0.4762520000000  0.5497340000000  0.5303410000000 1.0
C      1  0.4758150000000  0.5438400000000  0.4616360000000 1.0
C      1  0.4764100000000  0.4770930000000  0.4464270000000 1.0
C      1  0.4905000000000  0.4506500000000  0.4459890000000 1.0
C      1  0.4903950000000  0.4335390000000  0.5297500000000 1.0
C      1  0.4904150000000  0.5084430000000  0.5733360000000 1.0
C      1  0.4904410000000  0.5712570000000  0.5149240000000 1.0
C      1  0.4902670000000  0.5361020000000  0.4365360000000 1.0
C      1  0.5698890000000  0.4948340000000  0.4491950000000 1.0
C      1  0.5690340000000  0.4500770000000  0.4892260000000 1.0
C      1  0.5697010000000  0.4743610000000  0.5440010000000 1.0
C      1  0.5692710000000  0.5340650000000  0.5380300000000 1.0
C      1  0.5697330000000  0.5467020000000  0.4793240000000 1.0
C      1  0.5401220000000  0.4962370000000  0.5690700000000 1.0
C      1  0.5408570000000  0.5658310000000  0.5250430000000 1.0
C      1  0.5404710000000  0.5440930000000  0.4458830000000 1.0
C      1  0.5403400000000  0.4622650000000  0.4417940000000 1.0
C      1  0.5408250000000  0.4316570000000  0.5183420000000 1.0
C      1  0.4440300000000  0.4426640000000  0.4574680000000 1.0
C      1  0.4440410000000  0.4425130000000  0.5411010000000 1.0
C      1  0.4440070000000  0.5218500000000  0.5680010000000 1.0
C      1  0.4439510000000  0.5710010000000  0.5007900000000 1.0
C      1  0.4439250000000  0.5221940000000  0.4323380000000 1.0
C      1  0.5674440000000  0.4434580000000  0.5207620000000 1.0
C      1  0.5672580000000  0.5024000000000  0.5601370000000 1.0
C      1  0.5676080000000  0.5580220000000  0.5162850000000 1.0
C      1  0.5674500000000  0.5334950000000  0.4498020000000 1.0
C      1  0.5674090000000  0.4626410000000  0.4526960000000 1.0
C      1  0.4863170000000  0.4709260000000  0.4980870000000 1.0
C      1  0.4863900000000  0.4917800000000  0.5278640000000 1.0
C      1  0.4871920000000  0.5225660000000  0.5182050000000 1.0
C      1  0.4855700000000  0.5231020000000  0.4836380000000 1.0
C      1  0.4871000000000  0.4912320000000  0.4725480000000 1.0
C      1  0.5281160000000  0.4402560000000  0.4935820000000 1.0
C      1  0.5287730000000  0.4739760000000  0.5536360000000 1.0
C      1  0.5283450000000  0.5443110000000  0.5401830000000 1.0
C      1  0.5287170000000  0.5523620000000  0.4713250000000 1.0
C      1  0.5289120000000  0.4892180000000  0.4415670000000 1.0
C      1  0.4472870000000  0.5499150000000  0.5211660000000 1.0
C      1  0.4468930000000  0.5354090000000  0.4585760000000 1.0
C      1  0.4473770000000  0.4717440000000  0.4534130000000 1.0
C      1  0.4472100000000  0.4471170000000  0.5121130000000 1.0
C      1  0.4474790000000  0.4959090000000  0.5543150000000 1.0
END
