TITL C-3578205-846-150 -9.58432654716742e-09 125000 -193.45682680617 0 0 32 (Ci) n - 1
REM
REM in /home/bkarasulu/work/CARBON/AIRSS/Generating-Clusters/EDIP-Nigel-Params/with-SteepDescent/Higher-Symm/SD-CG/HFTN-CG
REM
REM
REM
REM
REM
REM ./C.cell (12c818d87b63d06a65506943cc24bca4)
REM
REM compiler GCC version 9.2.1 20190827 (Red Hat 9.2.1-1)
REM options -cpp -mtune=generic -march=x86-64 -g -O0 -fpre-include=/usr/include/finclude/math-vector-fortran.h
REM seed -1543004629 -1188026130 411953229 -1340095693 -2074550802 -1156292825 -1919179339 -2087301521 -2103008144 -1587213812 -1928306760 -1919535292 -1742465348 -212978902 -1726239059 -477212799 -271692766 1579776650 -231991195 -234557680 -2143973778 316110355 1311532533 -1598243244 1877752622 1804995212 2073307667 1498562265 183986271 114986429 -1546657971 1306097343 -2080211870
REM
CELL 1.54180   50.00000   50.00000   50.00000   90.00000   90.00000   90.00000
LATT -1
SFAC C  
C      1  0.5121600000000  0.4799580000000  0.5528930000000 1.0
C      1  0.4878400000000  0.5200420000000  0.4471070000000 1.0
C      1  0.4900870000000  0.5395700000000  0.4690200000000 1.0
C      1  0.5099130000000  0.4604300000000  0.5309800000000 1.0
C      1  0.5314530000000  0.4637140000000  0.5096240000000 1.0
C      1  0.4685470000000  0.5362860000000  0.4903760000000 1.0
C      1  0.5379800000000  0.4917150000000  0.5539830000000 1.0
C      1  0.4620200000000  0.5082850000000  0.4460170000000 1.0
C      1  0.4618470000000  0.4901600000000  0.5486200000000 1.0
C      1  0.5381530000000  0.5098400000000  0.4513800000000 1.0
C      1  0.5079540000000  0.5458540000000  0.5122890000000 1.0
C      1  0.4920460000000  0.4541460000000  0.4877110000000 1.0
C      1  0.4817380000000  0.4679440000000  0.4639530000000 1.0
C      1  0.5182620000000  0.5320560000000  0.5360470000000 1.0
C      1  0.5560420000000  0.5054210000000  0.4847770000000 1.0
C      1  0.4439580000000  0.4945790000000  0.5152230000000 1.0
C      1  0.5022490000000  0.4732110000000  0.4444020000000 1.0
C      1  0.4977510000000  0.5267890000000  0.5555980000000 1.0
C      1  0.5377350000000  0.5093600000000  0.5318000000000 1.0
C      1  0.4622650000000  0.4906400000000  0.4682000000000 1.0
C      1  0.4853690000000  0.4671580000000  0.5138300000000 1.0
C      1  0.5146310000000  0.5328420000000  0.4861700000000 1.0
C      1  0.5429050000000  0.5296300000000  0.4728380000000 1.0
C      1  0.4570950000000  0.4703700000000  0.5271620000000 1.0
C      1  0.5097500000000  0.5001940000000  0.4528630000000 1.0
C      1  0.4902500000000  0.4998060000000  0.5471370000000 1.0
C      1  0.4797210000000  0.5500210000000  0.5127630000000 1.0
C      1  0.5202790000000  0.4499790000000  0.4872370000000 1.0
C      1  0.4884560000000  0.4969780000000  0.5085430000000 1.0
C      1  0.5115440000000  0.5030220000000  0.4914570000000 1.0
C      1  0.5365160000000  0.4942650000000  0.5051090000000 1.0
C      1  0.4634840000000  0.5057350000000  0.4948910000000 1.0
END
