TITL C-3577089-586-91 -3.74984191494912e-06 125000 -1012.1636490515 0 0 165 (S4) n - 1
REM
REM in /home/bkarasulu/work/CARBON/AIRSS/Generating-Clusters/EDIP-Nigel-Params/with-SteepDescent/Higher-Symm/SD-CG/HFTN-CG
REM
REM
REM
REM
REM
REM ./C.cell (12c818d87b63d06a65506943cc24bca4)
REM
REM compiler GCC version 9.2.1 20190827 (Red Hat 9.2.1-1)
REM options -cpp -mtune=generic -march=x86-64 -g -O0 -fpre-include=/usr/include/finclude/math-vector-fortran.h
REM seed 1080671564 1912324417 1779373386 242127412 636157497 -1278059987 -1694093665 -1489507482 -1955906749 -1462875679 -1468170900 -916211788 552556414 -716064108 1500324368 1799763471 1866999522 1844683506 828139298 357241957 1110143155 1767677192 -2065471847 -926557511 1281363093 1131279280 -472001895 -2128813995 -1832840799 -1262187025 -553471677 -769210770 682582141
REM
CELL 1.54180   50.00000   50.00000   50.00000   90.00000   90.00000   90.00000
LATT -1
SFAC C  
C      1  0.5831990000000  0.4424180000000  0.5485860000000 1.0
C      1  0.4168190000000  0.4516110000000  0.4425010000000 1.0
C      1  0.5831990000000  0.5576960000000  0.4516930000000 1.0
C      1  0.4168200000000  0.5485040000000  0.5577790000000 1.0
C      1  0.5196630000000  0.5487140000000  0.4940200000000 1.0
C      1  0.4803560000000  0.5061770000000  0.5487970000000 1.0
C      1  0.5196620000000  0.4514000000000  0.5062590000000 1.0
C      1  0.4803560000000  0.4939380000000  0.4514830000000 1.0
C      1  0.4797810000000  0.5721210000000  0.5828090000000 1.0
C      1  0.5202380000000  0.4173880000000  0.5722030000000 1.0
C      1  0.4797800000000  0.4279940000000  0.4174700000000 1.0
C      1  0.5202380000000  0.5827270000000  0.4280760000000 1.0
C      1  0.4309830000000  0.4345080000000  0.5471150000000 1.0
C      1  0.5690350000000  0.4530820000000  0.4345900000000 1.0
C      1  0.4309830000000  0.5656080000000  0.4531640000000 1.0
C      1  0.5690360000000  0.5470320000000  0.5656890000000 1.0
C      1  0.5453910000000  0.5750100000000  0.4357290000000 1.0
C      1  0.4546280000000  0.5644680000000  0.5750920000000 1.0
C      1  0.5453910000000  0.4251050000000  0.5645500000000 1.0
C      1  0.4546270000000  0.4356470000000  0.4251870000000 1.0
C      1  0.5449330000000  0.5769690000000  0.4653580000000 1.0
C      1  0.4550860000000  0.5348390000000  0.5770520000000 1.0
C      1  0.5449320000000  0.4231450000000  0.5349210000000 1.0
C      1  0.4550860000000  0.4652760000000  0.4232280000000 1.0
C      1  0.5257200000000  0.4020490000000  0.5198190000000 1.0
C      1  0.4742980000000  0.4803780000000  0.4021310000000 1.0
C      1  0.5257210000000  0.5980650000000  0.4804600000000 1.0
C      1  0.4742980000000  0.5197370000000  0.5981480000000 1.0
C      1  0.6117450000000  0.5359520000000  0.4900710000000 1.0
C      1  0.3882740000000  0.5101260000000  0.5360350000000 1.0
C      1  0.6117450000000  0.4641620000000  0.5102070000000 1.0
C      1  0.3882740000000  0.4899900000000  0.4642450000000 1.0
C      1  0.4964650000000  0.6010440000000  0.4832050000000 1.0
C      1  0.5035540000000  0.5169920000000  0.6011260000000 1.0
C      1  0.4964640000000  0.3990710000000  0.5170740000000 1.0
C      1  0.5035540000000  0.4831230000000  0.3991530000000 1.0
C      1  0.5461680000000  0.4988840000000  0.5589010000000 1.0
C      1  0.4538500000000  0.4412960000000  0.4989670000000 1.0
C      1  0.5461680000000  0.5012300000000  0.4413780000000 1.0
C      1  0.4538510000000  0.5588190000000  0.5013120000000 1.0
C      1  0.5643920000000  0.5693770000000  0.5474490000000 1.0
C      1  0.4356260000000  0.4527490000000  0.5694600000000 1.0
C      1  0.5643920000000  0.4307370000000  0.4528300000000 1.0
C      1  0.4356270000000  0.5473670000000  0.4308190000000 1.0
C      1  0.5552580000000  0.4532790000000  0.5692800000000 1.0
C      1  0.4447610000000  0.4309170000000  0.4533610000000 1.0
C      1  0.5552580000000  0.5468350000000  0.4309990000000 1.0
C      1  0.4447610000000  0.5691980000000  0.5469180000000 1.0
C      1  0.4911090000000  0.4372710000000  0.4634950000000 1.0
C      1  0.5089100000000  0.5367020000000  0.4373530000000 1.0
C      1  0.4911090000000  0.5628430000000  0.5367840000000 1.0
C      1  0.5089100000000  0.4634130000000  0.5629260000000 1.0
C      1  0.6033660000000  0.5365100000000  0.4621010000000 1.0
C      1  0.3966530000000  0.5380960000000  0.5365930000000 1.0
C      1  0.6033650000000  0.4636040000000  0.5381780000000 1.0
C      1  0.3966530000000  0.4620190000000  0.4636870000000 1.0
C      1  0.5736460000000  0.4196670000000  0.5261940000000 1.0
C      1  0.4263720000000  0.4740030000000  0.4197490000000 1.0
C      1  0.5736470000000  0.5804470000000  0.4740850000000 1.0
C      1  0.4263720000000  0.5261120000000  0.5805300000000 1.0
C      1  0.4785590000000  0.5231810000000  0.4980130000000 1.0
C      1  0.5214600000000  0.5021840000000  0.5232630000000 1.0
C      1  0.4785580000000  0.4769340000000  0.5022660000000 1.0
C      1  0.5214600000000  0.4979310000000  0.4770160000000 1.0
C      1  0.5137320000000  0.4655860000000  0.5923670000000 1.0
C      1  0.4862860000000  0.4078300000000  0.4656680000000 1.0
C      1  0.5137320000000  0.5345290000000  0.4079120000000 1.0
C      1  0.4862870000000  0.5922850000000  0.5346110000000 1.0
C      1  0.5240930000000  0.5915840000000  0.5295700000000 1.0
C      1  0.4759270000000  0.4706270000000  0.5916670000000 1.0
C      1  0.5240920000000  0.4085300000000  0.4707090000000 1.0
C      1  0.4759260000000  0.5294880000000  0.4086120000000 1.0
C      1  0.4574020000000  0.4048640000000  0.4677780000000 1.0
C      1  0.5426160000000  0.5324190000000  0.4049460000000 1.0
C      1  0.4574030000000  0.5952510000000  0.5325020000000 1.0
C      1  0.5426170000000  0.4676950000000  0.5953330000000 1.0
C      1  0.4611280000000  0.4478070000000  0.5811680000000 1.0
C      1  0.5388900000000  0.4190290000000  0.4478890000000 1.0
C      1  0.4611280000000  0.5523080000000  0.4191110000000 1.0
C      1  0.5388910000000  0.5810850000000  0.5523900000000 1.0
C      1  0.5191570000000  0.5530460000000  0.5241690000000 1.0
C      1  0.4808620000000  0.4760280000000  0.5531280000000 1.0
C      1  0.5191560000000  0.4470690000000  0.4761100000000 1.0
C      1  0.4808620000000  0.5240870000000  0.4471510000000 1.0
C      1  0.4001180000000  0.4854070000000  0.5629680000000 1.0
C      1  0.5999010000000  0.4372280000000  0.4854880000000 1.0
C      1  0.4001170000000  0.5147090000000  0.4373110000000 1.0
C      1  0.5999010000000  0.5628860000000  0.5147910000000 1.0
C      1  0.4972340000000  0.5563250000000  0.5656270000000 1.0
C      1  0.5027840000000  0.4345700000000  0.5564070000000 1.0
C      1  0.4972340000000  0.4437900000000  0.4346520000000 1.0
C      1  0.5027850000000  0.5655450000000  0.4438720000000 1.0
C      1  0.5453510000000  0.5465220000000  0.4790090000000 1.0
C      1  0.4546670000000  0.5211880000000  0.5466050000000 1.0
C      1  0.5453510000000  0.4535920000000  0.5212700000000 1.0
C      1  0.4546670000000  0.4789270000000  0.4536750000000 1.0
C      1  0.5317300000000  0.4807570000000  0.4059050000000 1.0
C      1  0.4682890000000  0.5942920000000  0.4808400000000 1.0
C      1  0.5317300000000  0.5193570000000  0.5943740000000 1.0
C      1  0.4682880000000  0.4058230000000  0.5194390000000 1.0
C      1  0.4748240000000  0.5718590000000  0.4358660000000 1.0
C      1  0.5251950000000  0.5643310000000  0.5719420000000 1.0
C      1  0.4748230000000  0.4282550000000  0.5644130000000 1.0
C      1  0.5251950000000  0.4357840000000  0.4283370000000 1.0
C      1  0.5426670000000  0.5420600000000  0.5788960000000 1.0
C      1  0.4573510000000  0.4213010000000  0.5421420000000 1.0
C      1  0.5426670000000  0.4580540000000  0.4213830000000 1.0
C      1  0.4573520000000  0.5788140000000  0.4581370000000 1.0
C      1  0.4754350000000  0.5424860000000  0.4752830000000 1.0
C      1  0.5245840000000  0.5249140000000  0.5425680000000 1.0
C      1  0.4754350000000  0.4576290000000  0.5249960000000 1.0
C      1  0.5245830000000  0.4752010000000  0.4577110000000 1.0
C      1  0.5783270000000  0.4790060000000  0.5356980000000 1.0
C      1  0.4216910000000  0.4644990000000  0.4790890000000 1.0
C      1  0.5783270000000  0.5211080000000  0.4645810000000 1.0
C      1  0.4216920000000  0.5356160000000  0.5211910000000 1.0
C      1  0.4190220000000  0.4741150000000  0.5806210000000 1.0
C      1  0.5809960000000  0.4195750000000  0.4741960000000 1.0
C      1  0.4190220000000  0.5260010000000  0.4196580000000 1.0
C      1  0.5809970000000  0.5805390000000  0.5260820000000 1.0
C      1  0.4149740000000  0.4455550000000  0.5258300000000 1.0
C      1  0.5850440000000  0.4743670000000  0.4456370000000 1.0
C      1  0.4149740000000  0.5545600000000  0.4744490000000 1.0
C      1  0.5850450000000  0.5257470000000  0.5546420000000 1.0
C      1  0.4604780000000  0.5059440000000  0.3995740000000 1.0
C      1  0.5395410000000  0.6006230000000  0.5060260000000 1.0
C      1  0.4604780000000  0.4941710000000  0.6007050000000 1.0
C      1  0.5395400000000  0.3994910000000  0.4942530000000 1.0
C      1  0.5753110000000  0.5195620000000  0.5186470000000 1.0
C      1  0.4247080000000  0.4815500000000  0.5196440000000 1.0
C      1  0.5753100000000  0.4805520000000  0.4816320000000 1.0
C      1  0.4247080000000  0.5185650000000  0.4806350000000 1.0
C      1  0.4510280000000  0.5971590000000  0.5040190000000 1.0
C      1  0.5489910000000  0.4961770000000  0.5972410000000 1.0
C      1  0.4510280000000  0.4029560000000  0.4962600000000 1.0
C      1  0.5489900000000  0.5039370000000  0.4030380000000 1.0
C      1  0.3967750000000  0.4928990000000  0.5125730000000 1.0
C      1  0.6032440000000  0.4876230000000  0.4929800000000 1.0
C      1  0.3967750000000  0.5072170000000  0.4877060000000 1.0
C      1  0.6032440000000  0.5124900000000  0.5072990000000 1.0
C      1  0.5751340000000  0.5454600000000  0.5003810000000 1.0
C      1  0.4248840000000  0.4998160000000  0.5455430000000 1.0
C      1  0.5751340000000  0.4546540000000  0.4998980000000 1.0
C      1  0.4248840000000  0.5002990000000  0.4547360000000 1.0
C      1  0.5660780000000  0.5888900000000  0.5026680000000 1.0
C      1  0.4339410000000  0.4975290000000  0.5889720000000 1.0
C      1  0.5660780000000  0.4112240000000  0.4976110000000 1.0
C      1  0.4339400000000  0.5025860000000  0.4113070000000 1.0
C      1  0.4628510000000  0.5498390000000  0.5299600000000 1.0
C      1  0.5371680000000  0.4702370000000  0.5499210000000 1.0
C      1  0.4628500000000  0.4502760000000  0.4703200000000 1.0
C      1  0.5371680000000  0.5298770000000  0.4503580000000 1.0
C      1  0.5754030000000  0.5011220000000  0.4427930000000 1.0
C      1  0.4246160000000  0.5574040000000  0.5012050000000 1.0
C      1  0.5754030000000  0.4989920000000  0.5574860000000 1.0
C      1  0.4246150000000  0.4427110000000  0.4990750000000 1.0
C      1  0.5007950000000  0.4762840000000  0.4372310000000 1.0
C      1  0.4992240000000  0.5629660000000  0.4763660000000 1.0
C      1  0.5007950000000  0.5238310000000  0.5630480000000 1.0
C      1  0.4992230000000  0.4371490000000  0.5239130000000 1.0
C      1  0.5504560000000  0.5029780000000  0.4855920000000 1.0
C      1  0.4495630000000  0.5146050000000  0.5030610000000 1.0
C      1  0.5504560000000  0.4971360000000  0.5146870000000 1.0
C      1  0.4495630000000  0.4855100000000  0.4972190000000 1.0
C      1  0.5000090000000  0.5000570000000  0.5001400000000 1.0
END
