TITL C-3578203-1966-805 6.85691923096291e-05 125000 -1164.96947020718 0 0 188 (C1) n - 1
REM
REM in /home/bkarasulu/work/CARBON/AIRSS/Generating-Clusters/EDIP-Nigel-Params/with-SteepDescent/Higher-Symm/SD-CG/HFTN-CG
REM
REM
REM
REM
REM
REM ./C.cell (12c818d87b63d06a65506943cc24bca4)
REM
REM compiler GCC version 9.2.1 20190827 (Red Hat 9.2.1-1)
REM options -cpp -mtune=generic -march=x86-64 -g -O0 -fpre-include=/usr/include/finclude/math-vector-fortran.h
REM seed 527408104 -1961301312 -1924057413 219635582 975543364 1685106 1258744097 -1477682894 595328723 -1684198942 342278820 1712912107 -77678252 1014087075 608294748 1897811547 1043068082 667915507 -388139327 -2131574569 1935706371 2100966297 836967548 -207862624 -1017460599 1545896417 1787616363 1276664151 977683704 -894598256 329490021 -973529242 -48919915
REM
CELL 1.54180   50.00000   50.00000   50.00000   90.00000   90.00000   90.00000
LATT -1
SFAC C  
C      1  0.5443610000000  0.4819290000000  0.5322580000000 1.0
C      1  0.5156050000000  0.5422330000000  0.5299240000000 1.0
C      1  0.4576440000000  0.5141190000000  0.5318350000000 1.0
C      1  0.4854120000000  0.4569460000000  0.5333010000000 1.0
C      1  0.5428090000000  0.5139060000000  0.5327310000000 1.0
C      1  0.5167140000000  0.4549520000000  0.5337850000000 1.0
C      1  0.4560250000000  0.4825940000000  0.5315780000000 1.0
C      1  0.4835490000000  0.5433060000000  0.5302210000000 1.0
C      1  0.5149790000000  0.4082360000000  0.5074240000000 1.0
C      1  0.5909400000000  0.5163350000000  0.5064960000000 1.0
C      1  0.4843990000000  0.5914250000000  0.5047650000000 1.0
C      1  0.4086500000000  0.4849370000000  0.5062170000000 1.0
C      1  0.5148390000000  0.5911110000000  0.5048240000000 1.0
C      1  0.5916630000000  0.4855820000000  0.5068500000000 1.0
C      1  0.4839890000000  0.4091370000000  0.5072740000000 1.0
C      1  0.4090060000000  0.5156300000000  0.5062250000000 1.0
C      1  0.5262770000000  0.5535010000000  0.4076660000000 1.0
C      1  0.4466220000000  0.5268240000000  0.4086180000000 1.0
C      1  0.4737410000000  0.4476110000000  0.4096600000000 1.0
C      1  0.5535980000000  0.4739900000000  0.4091910000000 1.0
C      1  0.5262630000000  0.4475460000000  0.4098310000000 1.0
C      1  0.4465620000000  0.4742280000000  0.4087030000000 1.0
C      1  0.4736460000000  0.5535020000000  0.4074910000000 1.0
C      1  0.5529430000000  0.5264900000000  0.4089950000000 1.0
C      1  0.4755490000000  0.5582140000000  0.4555300000000 1.0
C      1  0.4421920000000  0.4764410000000  0.4567280000000 1.0
C      1  0.5238180000000  0.4433830000000  0.4582180000000 1.0
C      1  0.5569180000000  0.5245640000000  0.4574470000000 1.0
C      1  0.4758570000000  0.4436410000000  0.4580770000000 1.0
C      1  0.4425530000000  0.5248470000000  0.4570450000000 1.0
C      1  0.5241620000000  0.5581670000000  0.4556520000000 1.0
C      1  0.5578790000000  0.4761330000000  0.4573080000000 1.0
C      1  0.5180840000000  0.4574310000000  0.4842140000000 1.0
C      1  0.5426270000000  0.5177310000000  0.4831440000000 1.0
C      1  0.4830220000000  0.5439660000000  0.4809200000000 1.0
C      1  0.4565530000000  0.4835180000000  0.4823030000000 1.0
C      1  0.5164740000000  0.5438160000000  0.4809410000000 1.0
C      1  0.5434940000000  0.4829960000000  0.4829550000000 1.0
C      1  0.4820860000000  0.4579310000000  0.4839770000000 1.0
C      1  0.4569360000000  0.5180550000000  0.4826520000000 1.0
C      1  0.4718360000000  0.4133530000000  0.4548890000000 1.0
C      1  0.5883750000000  0.4723840000000  0.4542620000000 1.0
C      1  0.5280100000000  0.5886110000000  0.4525420000000 1.0
C      1  0.4122480000000  0.5285370000000  0.4541310000000 1.0
C      1  0.4714900000000  0.5885810000000  0.4524320000000 1.0
C      1  0.5871700000000  0.5287050000000  0.4544130000000 1.0
C      1  0.5277550000000  0.4131390000000  0.4552520000000 1.0
C      1  0.4117440000000  0.4724000000000  0.4536060000000 1.0
C      1  0.4310370000000  0.5523310000000  0.5177910000000 1.0
C      1  0.4472750000000  0.4314200000000  0.5183400000000 1.0
C      1  0.5703100000000  0.4467830000000  0.5050190000000 1.0
C      1  0.5531260000000  0.5687960000000  0.5036620000000 1.0
C      1  0.4307770000000  0.4466050000000  0.5038310000000 1.0
C      1  0.4462310000000  0.5689590000000  0.5033990000000 1.0
C      1  0.5680480000000  0.5523820000000  0.5184160000000 1.0
C      1  0.5528820000000  0.4295480000000  0.5160460000000 1.0
C      1  0.4082860000000  0.5723190000000  0.4807930000000 1.0
C      1  0.4274820000000  0.4089330000000  0.4807490000000 1.0
C      1  0.5969070000000  0.4254830000000  0.4779420000000 1.0
C      1  0.5738440000000  0.5966870000000  0.4772230000000 1.0
C      1  0.4034150000000  0.4256710000000  0.4770210000000 1.0
C      1  0.4250670000000  0.5963750000000  0.4768380000000 1.0
C      1  0.5908930000000  0.5728270000000  0.4808490000000 1.0
C      1  0.5721870000000  0.4093740000000  0.4815360000000 1.0
C      1  0.5150790000000  0.6031260000000  0.4750950000000 1.0
C      1  0.3976500000000  0.5157590000000  0.4764570000000 1.0
C      1  0.4841810000000  0.3984940000000  0.4772200000000 1.0
C      1  0.6027610000000  0.4856900000000  0.4767990000000 1.0
C      1  0.5146700000000  0.3981870000000  0.4773210000000 1.0
C      1  0.3972160000000  0.4852250000000  0.4762770000000 1.0
C      1  0.4844420000000  0.6031640000000  0.4749880000000 1.0
C      1  0.6019850000000  0.5162170000000  0.4766800000000 1.0
C      1  0.5602790000000  0.5249130000000  0.5094200000000 1.0
C      1  0.4749670000000  0.5613440000000  0.5052630000000 1.0
C      1  0.4385330000000  0.4751520000000  0.5063240000000 1.0
C      1  0.5253030000000  0.4380790000000  0.5096130000000 1.0
C      1  0.5618490000000  0.4751150000000  0.5070770000000 1.0
C      1  0.4749160000000  0.4395090000000  0.5099500000000 1.0
C      1  0.4393580000000  0.5248640000000  0.5089490000000 1.0
C      1  0.5243730000000  0.5609680000000  0.5053780000000 1.0
C      1  0.4240790000000  0.4468380000000  0.5918140000000 1.0
C      1  0.5544560000000  0.4221240000000  0.5904290000000 1.0
C      1  0.5749010000000  0.5521890000000  0.5917770000000 1.0
C      1  0.4476360000000  0.5750000000000  0.5906360000000 1.0
C      1  0.4276630000000  0.5519400000000  0.5897420000000 1.0
C      1  0.5518140000000  0.5723280000000  0.5893770000000 1.0
C      1  0.5758910000000  0.4450120000000  0.5900760000000 1.0
C      1  0.4469510000000  0.4266310000000  0.5905930000000 1.0
C      1  0.3915210000000  0.4660190000000  0.5231160000000 1.0
C      1  0.5324780000000  0.3892420000000  0.5243840000000 1.0
C      1  0.6082010000000  0.5342620000000  0.5244780000000 1.0
C      1  0.4658770000000  0.6082410000000  0.5223130000000 1.0
C      1  0.3918810000000  0.5326570000000  0.5250250000000 1.0
C      1  0.5329310000000  0.6073030000000  0.5231830000000 1.0
C      1  0.6095420000000  0.4672600000000  0.5236730000000 1.0
C      1  0.4660650000000  0.3917670000000  0.5251580000000 1.0
C      1  0.5584790000000  0.5971020000000  0.5115230000000 1.0
C      1  0.4026250000000  0.5589220000000  0.5148250000000 1.0
C      1  0.4403680000000  0.4032250000000  0.5148800000000 1.0
C      1  0.5987370000000  0.4416860000000  0.5119710000000 1.0
C      1  0.5587250000000  0.4008930000000  0.5148860000000 1.0
C      1  0.4024540000000  0.4410030000000  0.5112680000000 1.0
C      1  0.4406160000000  0.5972580000000  0.5109630000000 1.0
C      1  0.5959620000000  0.5598610000000  0.5147920000000 1.0
C      1  0.5275070000000  0.5979130000000  0.5509970000000 1.0
C      1  0.4017030000000  0.5266170000000  0.5526910000000 1.0
C      1  0.4712730000000  0.4008030000000  0.5531710000000 1.0
C      1  0.6029490000000  0.4718000000000  0.5526330000000 1.0
C      1  0.5271110000000  0.3954020000000  0.5533740000000 1.0
C      1  0.3982810000000  0.4699900000000  0.5517810000000 1.0
C      1  0.4705690000000  0.6010160000000  0.5507410000000 1.0
C      1  0.6004880000000  0.5292040000000  0.5527560000000 1.0
C      1  0.5153390000000  0.5404280000000  0.5813330000000 1.0
C      1  0.4592540000000  0.5145610000000  0.5828090000000 1.0
C      1  0.4850720000000  0.4578160000000  0.5842980000000 1.0
C      1  0.5437500000000  0.4821580000000  0.5833460000000 1.0
C      1  0.5168910000000  0.4543550000000  0.5846890000000 1.0
C      1  0.4561340000000  0.4835090000000  0.5834070000000 1.0
C      1  0.4846770000000  0.5434910000000  0.5820330000000 1.0
C      1  0.5435570000000  0.5138950000000  0.5844580000000 1.0
C      1  0.5570350000000  0.4060400000000  0.4565910000000 1.0
C      1  0.5944600000000  0.5578490000000  0.4557650000000 1.0
C      1  0.4417700000000  0.5966030000000  0.4522190000000 1.0
C      1  0.4034910000000  0.4427670000000  0.4527610000000 1.0
C      1  0.5575410000000  0.5969630000000  0.4524250000000 1.0
C      1  0.5970170000000  0.4426920000000  0.4536570000000 1.0
C      1  0.4427100000000  0.4059310000000  0.4558070000000 1.0
C      1  0.4045690000000  0.5575640000000  0.4556660000000 1.0
C      1  0.5796870000000  0.5167750000000  0.4030350000000 1.0
C      1  0.4837590000000  0.5801110000000  0.4013270000000 1.0
C      1  0.4199410000000  0.4846140000000  0.4026890000000 1.0
C      1  0.5161730000000  0.4209550000000  0.4038020000000 1.0
C      1  0.5801080000000  0.4845030000000  0.4031530000000 1.0
C      1  0.4839320000000  0.4209910000000  0.4037350000000 1.0
C      1  0.4200010000000  0.5169130000000  0.4025900000000 1.0
C      1  0.5160670000000  0.5801210000000  0.4014700000000 1.0
C      1  0.5580230000000  0.5206320000000  0.5586930000000 1.0
C      1  0.4787120000000  0.5587410000000  0.5565100000000 1.0
C      1  0.4406500000000  0.4776330000000  0.5578330000000 1.0
C      1  0.5210590000000  0.4383570000000  0.5594070000000 1.0
C      1  0.5598040000000  0.4769040000000  0.5582910000000 1.0
C      1  0.4773350000000  0.4445300000000  0.5589750000000 1.0
C      1  0.4454900000000  0.5216620000000  0.5577850000000 1.0
C      1  0.5228360000000  0.5542290000000  0.5562270000000 1.0
C      1  0.5454970000000  0.5731440000000  0.5593370000000 1.0
C      1  0.4266980000000  0.5443620000000  0.5600850000000 1.0
C      1  0.4543770000000  0.4259820000000  0.5608390000000 1.0
C      1  0.5797640000000  0.4540570000000  0.5615520000000 1.0
C      1  0.5448170000000  0.4188120000000  0.5621030000000 1.0
C      1  0.4241850000000  0.4511520000000  0.5614470000000 1.0
C      1  0.4518760000000  0.5747220000000  0.5603240000000 1.0
C      1  0.5746380000000  0.5469110000000  0.5614090000000 1.0
C      1  0.5925890000000  0.4286040000000  0.4296800000000 1.0
C      1  0.5721310000000  0.5931240000000  0.4286550000000 1.0
C      1  0.4096510000000  0.5728510000000  0.4330100000000 1.0
C      1  0.4277640000000  0.4113610000000  0.4330110000000 1.0
C      1  0.5894150000000  0.5730080000000  0.4330260000000 1.0
C      1  0.5721410000000  0.4116910000000  0.4339760000000 1.0
C      1  0.4076930000000  0.4287340000000  0.4287050000000 1.0
C      1  0.4273510000000  0.5925630000000  0.4283760000000 1.0
C      1  0.5167460000000  0.4607410000000  0.4346360000000 1.0
C      1  0.5398630000000  0.5168550000000  0.4338380000000 1.0
C      1  0.4831240000000  0.5406990000000  0.4324810000000 1.0
C      1  0.4595570000000  0.4838590000000  0.4335200000000 1.0
C      1  0.5166030000000  0.5406840000000  0.4325750000000 1.0
C      1  0.5405220000000  0.4835140000000  0.4340100000000 1.0
C      1  0.4832060000000  0.4608600000000  0.4344630000000 1.0
C      1  0.4597050000000  0.5172480000000  0.4334550000000 1.0
C      1  0.4845530000000  0.5984300000000  0.4265420000000 1.0
C      1  0.4017640000000  0.4856220000000  0.4279290000000 1.0
C      1  0.5152770000000  0.4029230000000  0.4291750000000 1.0
C      1  0.5976430000000  0.5162460000000  0.4284720000000 1.0
C      1  0.4846510000000  0.4029870000000  0.4290680000000 1.0
C      1  0.4019850000000  0.5161150000000  0.4280420000000 1.0
C      1  0.5150350000000  0.5984520000000  0.4266460000000 1.0
C      1  0.5981880000000  0.4857050000000  0.4284800000000 1.0
C      1  0.5562110000000  0.5318250000000  0.6060820000000 1.0
C      1  0.4687440000000  0.5569510000000  0.6045880000000 1.0
C      1  0.4424590000000  0.4676270000000  0.6058310000000 1.0
C      1  0.5347850000000  0.4410930000000  0.6057060000000 1.0
C      1  0.5554660000000  0.4638470000000  0.6045040000000 1.0
C      1  0.4659290000000  0.4464630000000  0.6053850000000 1.0
C      1  0.4478400000000  0.5331870000000  0.6042410000000 1.0
C      1  0.5325200000000  0.5523880000000  0.6033620000000 1.0
C      1  0.4997650000000  0.4062860000000  0.5573670000000 1.0
C      1  0.4079460000000  0.4978910000000  0.5565210000000 1.0
C      1  0.5916220000000  0.5001790000000  0.5573670000000 1.0
C      1  0.4987270000000  0.5915310000000  0.5549880000000 1.0
END
