TITL C-3577083-591-558 -9.79602665613832e-07 125000 -938.03981578929 0 0 151 (C1) n - 1
REM
REM in /home/bkarasulu/work/CARBON/AIRSS/Generating-Clusters/EDIP-Nigel-Params/with-SteepDescent/Higher-Symm/SD-CG/HFTN-CG
REM
REM
REM
REM
REM
REM ./C.cell (12c818d87b63d06a65506943cc24bca4)
REM
REM compiler GCC version 9.2.1 20190827 (Red Hat 9.2.1-1)
REM options -cpp -mtune=generic -march=x86-64 -g -O0 -fpre-include=/usr/include/finclude/math-vector-fortran.h
REM seed 1557816621 -1187419198 2084161341 796859160 1943003595 -1170660989 1286038932 1971447541 -950720188 921402134 -1358348083 -1100989421 -2087235406 -390991681 1651624113 -103107866 -1339891252 1868336207 -2091341719 -1535226710 -1042722802 -280233605 -1374900824 2039161948 -1421550313 201482490 1311746924 -1620532713 913351260 778674231 8545281 832155372 -436107521
REM
CELL 1.54180   50.00000   50.00000   50.00000   90.00000   90.00000   90.00000
LATT -1
SFAC C  
C      1  0.4223730000000  0.5402380000000  0.4527950000000 1.0
C      1  0.4268060000000  0.5368760000000  0.5419990000000 1.0
C      1  0.5214230000000  0.4901780000000  0.4637980000000 1.0
C      1  0.5215830000000  0.4986280000000  0.5432480000000 1.0
C      1  0.4854380000000  0.5527590000000  0.5236780000000 1.0
C      1  0.4762110000000  0.5550930000000  0.4771210000000 1.0
C      1  0.4960370000000  0.4317380000000  0.5630960000000 1.0
C      1  0.4914560000000  0.4334640000000  0.4389950000000 1.0
C      1  0.5699100000000  0.4254100000000  0.4792200000000 1.0
C      1  0.5673840000000  0.4313190000000  0.5223480000000 1.0
C      1  0.5295890000000  0.4650310000000  0.4805220000000 1.0
C      1  0.5321500000000  0.4727470000000  0.5293860000000 1.0
C      1  0.4430250000000  0.4899350000000  0.4684380000000 1.0
C      1  0.4435840000000  0.4918370000000  0.5230320000000 1.0
C      1  0.5006770000000  0.5499000000000  0.4166870000000 1.0
C      1  0.4975660000000  0.5491170000000  0.5902290000000 1.0
C      1  0.4765640000000  0.5131320000000  0.4220700000000 1.0
C      1  0.4775610000000  0.5114200000000  0.5787530000000 1.0
C      1  0.4775260000000  0.5594620000000  0.5704370000000 1.0
C      1  0.4764750000000  0.5618880000000  0.4293600000000 1.0
C      1  0.5249980000000  0.4667110000000  0.4167310000000 1.0
C      1  0.5246440000000  0.4691320000000  0.5859660000000 1.0
C      1  0.6075960000000  0.5537610000000  0.5243500000000 1.0
C      1  0.6100750000000  0.5550630000000  0.4752890000000 1.0
C      1  0.5012740000000  0.4795120000000  0.5984660000000 1.0
C      1  0.5032770000000  0.4806690000000  0.4047670000000 1.0
C      1  0.4875960000000  0.5254570000000  0.6051020000000 1.0
C      1  0.4919740000000  0.5271000000000  0.3998360000000 1.0
C      1  0.4375170000000  0.4110560000000  0.4724140000000 1.0
C      1  0.4386830000000  0.4145540000000  0.5212670000000 1.0
C      1  0.5830500000000  0.5137760000000  0.5402370000000 1.0
C      1  0.5903090000000  0.5127460000000  0.4555530000000 1.0
C      1  0.5127370000000  0.4125310000000  0.5219810000000 1.0
C      1  0.5109620000000  0.4067330000000  0.4739000000000 1.0
C      1  0.4341480000000  0.4349880000000  0.5431890000000 1.0
C      1  0.4275970000000  0.4313250000000  0.4513600000000 1.0
C      1  0.5876500000000  0.4884610000000  0.4710920000000 1.0
C      1  0.5855860000000  0.4886160000000  0.5255120000000 1.0
C      1  0.4302580000000  0.4984670000000  0.4265990000000 1.0
C      1  0.4306200000000  0.4972760000000  0.5701430000000 1.0
C      1  0.5184240000000  0.4437060000000  0.4331200000000 1.0
C      1  0.5206100000000  0.4441910000000  0.5714020000000 1.0
C      1  0.4795060000000  0.5226670000000  0.4725100000000 1.0
C      1  0.4774360000000  0.5249130000000  0.5240660000000 1.0
C      1  0.5612460000000  0.5350690000000  0.5849190000000 1.0
C      1  0.5545630000000  0.5348410000000  0.4124160000000 1.0
C      1  0.5575920000000  0.4456420000000  0.4613930000000 1.0
C      1  0.5560480000000  0.4517750000000  0.5409090000000 1.0
C      1  0.4646520000000  0.3975370000000  0.4699200000000 1.0
C      1  0.4666490000000  0.4027870000000  0.5220660000000 1.0
C      1  0.5470620000000  0.5667710000000  0.5498580000000 1.0
C      1  0.5460670000000  0.5693270000000  0.4488770000000 1.0
C      1  0.5319120000000  0.4062220000000  0.4555700000000 1.0
C      1  0.5325820000000  0.4120900000000  0.5421400000000 1.0
C      1  0.5671320000000  0.5491740000000  0.5614970000000 1.0
C      1  0.5620110000000  0.5469240000000  0.4373240000000 1.0
C      1  0.4727330000000  0.4446550000000  0.5723580000000 1.0
C      1  0.4701080000000  0.4475560000000  0.4259010000000 1.0
C      1  0.4904340000000  0.5722150000000  0.4547140000000 1.0
C      1  0.4943700000000  0.5682850000000  0.5462720000000 1.0
C      1  0.5705190000000  0.4788100000000  0.4283510000000 1.0
C      1  0.5698800000000  0.4843070000000  0.5706260000000 1.0
C      1  0.5336360000000  0.5159100000000  0.4192030000000 1.0
C      1  0.5380860000000  0.5185220000000  0.5902050000000 1.0
C      1  0.4721420000000  0.4805360000000  0.5318620000000 1.0
C      1  0.4688170000000  0.4755190000000  0.4595130000000 1.0
C      1  0.4215060000000  0.5688100000000  0.4538590000000 1.0
C      1  0.4278210000000  0.5649830000000  0.5449660000000 1.0
C      1  0.5440310000000  0.4870950000000  0.4259160000000 1.0
C      1  0.5443850000000  0.4903430000000  0.5803210000000 1.0
C      1  0.5134080000000  0.5080810000000  0.3970490000000 1.0
C      1  0.5077720000000  0.5058370000000  0.6096160000000 1.0
C      1  0.4204470000000  0.4856560000000  0.5425270000000 1.0
C      1  0.4134430000000  0.4812210000000  0.4567300000000 1.0
C      1  0.6142500000000  0.4899980000000  0.4853450000000 1.0
C      1  0.6280050000000  0.5087400000000  0.5282410000000 1.0
C      1  0.5428790000000  0.4322830000000  0.5591180000000 1.0
C      1  0.5410150000000  0.4293900000000  0.4430200000000 1.0
C      1  0.4856750000000  0.4196150000000  0.4667420000000 1.0
C      1  0.4866920000000  0.4253610000000  0.5267620000000 1.0
C      1  0.4902150000000  0.5020880000000  0.5483540000000 1.0
C      1  0.4907260000000  0.4990560000000  0.4523350000000 1.0
C      1  0.5598180000000  0.5759400000000  0.5246520000000 1.0
C      1  0.5625380000000  0.5781310000000  0.4721000000000 1.0
C      1  0.4850600000000  0.5967850000000  0.5268070000000 1.0
C      1  0.4837230000000  0.5985810000000  0.4741230000000 1.0
C      1  0.3960770000000  0.4999060000000  0.5294510000000 1.0
C      1  0.4008930000000  0.4963020000000  0.4854890000000 1.0
C      1  0.4335290000000  0.5275880000000  0.4302890000000 1.0
C      1  0.4356480000000  0.5265220000000  0.5674090000000 1.0
C      1  0.4126490000000  0.4554800000000  0.5399560000000 1.0
C      1  0.4099060000000  0.4514180000000  0.4650890000000 1.0
C      1  0.4639950000000  0.5332890000000  0.5655580000000 1.0
C      1  0.4613980000000  0.5358510000000  0.4320450000000 1.0
C      1  0.4556850000000  0.4938170000000  0.4116990000000 1.0
C      1  0.4508000000000  0.4858990000000  0.5889060000000 1.0
C      1  0.5895230000000  0.5720220000000  0.4664910000000 1.0
C      1  0.5873790000000  0.5725270000000  0.5302580000000 1.0
C      1  0.6097270000000  0.5275430000000  0.5394940000000 1.0
C      1  0.6146280000000  0.5242960000000  0.4674700000000 1.0
C      1  0.5398830000000  0.5084700000000  0.4799990000000 1.0
C      1  0.5311320000000  0.5240870000000  0.5296020000000 1.0
C      1  0.4749340000000  0.4690320000000  0.5883530000000 1.0
C      1  0.4752190000000  0.4709440000000  0.4089790000000 1.0
C      1  0.5180310000000  0.5355660000000  0.5743940000000 1.0
C      1  0.5147290000000  0.5330970000000  0.4377770000000 1.0
C      1  0.4415770000000  0.5882750000000  0.5467880000000 1.0
C      1  0.4400520000000  0.5896260000000  0.4546970000000 1.0
C      1  0.5781910000000  0.4661040000000  0.4517860000000 1.0
C      1  0.5784000000000  0.4701340000000  0.5484420000000 1.0
C      1  0.5666040000000  0.5284740000000  0.4605210000000 1.0
C      1  0.5615770000000  0.5313010000000  0.5288870000000 1.0
C      1  0.4466850000000  0.4500990000000  0.4407130000000 1.0
C      1  0.4581480000000  0.4491270000000  0.5488860000000 1.0
C      1  0.4560710000000  0.6016110000000  0.5270710000000 1.0
C      1  0.4545830000000  0.6010520000000  0.4758700000000 1.0
C      1  0.5200810000000  0.5563030000000  0.4579150000000 1.0
C      1  0.5223730000000  0.5497490000000  0.5480990000000 1.0
C      1  0.4459920000000  0.5225880000000  0.5208370000000 1.0
C      1  0.4487950000000  0.5188690000000  0.4704180000000 1.0
C      1  0.5664110000000  0.4943920000000  0.4921020000000 1.0
C      1  0.4751560000000  0.4645260000000  0.4859950000000 1.0
C      1  0.4417010000000  0.6013240000000  0.5019450000000 1.0
C      1  0.4379600000000  0.5319040000000  0.4936240000000 1.0
C      1  0.6136870000000  0.4887220000000  0.5144540000000 1.0
C      1  0.5222500000000  0.5524050000000  0.4898620000000 1.0
C      1  0.4975190000000  0.6015530000000  0.5003780000000 1.0
C      1  0.5989880000000  0.5400640000000  0.4991840000000 1.0
C      1  0.5412370000000  0.3850970000000  0.5015070000000 1.0
C      1  0.4424000000000  0.4292580000000  0.4955190000000 1.0
C      1  0.5796540000000  0.4463470000000  0.4996910000000 1.0
C      1  0.4168520000000  0.5724530000000  0.5031880000000 1.0
C      1  0.5681630000000  0.5377210000000  0.4979110000000 1.0
C      1  0.4889020000000  0.4806310000000  0.5055480000000 1.0
C      1  0.5569200000000  0.4680770000000  0.4995700000000 1.0
C      1  0.4349150000000  0.4797850000000  0.4958200000000 1.0
C      1  0.5524920000000  0.4118580000000  0.5021130000000 1.0
C      1  0.3991650000000  0.5518170000000  0.5112020000000 1.0
C      1  0.4215310000000  0.4524720000000  0.4931590000000 1.0
C      1  0.5519860000000  0.5639080000000  0.4969300000000 1.0
C      1  0.5122940000000  0.3927790000000  0.4998450000000 1.0
C      1  0.4734320000000  0.4360360000000  0.4929600000000 1.0
C      1  0.4953130000000  0.5640240000000  0.4991530000000 1.0
C      1  0.3870500000000  0.4803710000000  0.5084590000000 1.0
C      1  0.3995340000000  0.4534760000000  0.5136430000000 1.0
C      1  0.3983900000000  0.5232860000000  0.5109110000000 1.0
C      1  0.4755630000000  0.3876410000000  0.4974070000000 1.0
C      1  0.5215020000000  0.5235890000000  0.4998490000000 1.0
C      1  0.4395770000000  0.5607960000000  0.4871260000000 1.0
C      1  0.5140910000000  0.4653500000000  0.5071420000000 1.0
C      1  0.4918600000000  0.5124490000000  0.4993270000000 1.0
END
