TITL C-3577078-809-387 -4.1494816524547e-06 125000 -999.081358637242 0 0 160 (C1) n - 1
REM
REM in /home/bkarasulu/work/CARBON/AIRSS/Generating-Clusters/EDIP-Nigel-Params/with-SteepDescent/Higher-Symm/SD-CG/HFTN-CG
REM
REM
REM
REM
REM
REM ./C.cell (12c818d87b63d06a65506943cc24bca4)
REM
REM compiler GCC version 9.2.1 20190827 (Red Hat 9.2.1-1)
REM options -cpp -mtune=generic -march=x86-64 -g -O0 -fpre-include=/usr/include/finclude/math-vector-fortran.h
REM seed -1797573419 1190009720 1225775423 -764673996 1124235426 -713112149 999528420 -256071391 -1872932743 1500443689 -756244838 2053367070 -687880118 490769727 -1721168798 1329769749 -1920795647 -1749548762 622269085 107831142 -1066529640 -407542612 1858149420 -1705441986 1933006654 472600631 114177748 -1417040610 -1701694702 401009204 920626625 1176474930 -1319181475
REM
CELL 1.54180   50.00000   50.00000   50.00000   90.00000   90.00000   90.00000
LATT -1
SFAC C  
C      1  0.4132570000000  0.4291540000000  0.4921700000000 1.0
C      1  0.5951410000000  0.4626490000000  0.4921740000000 1.0
C      1  0.4819560000000  0.6086740000000  0.4895560000000 1.0
C      1  0.3987940000000  0.4973830000000  0.5556450000000 1.0
C      1  0.5545450000000  0.4216990000000  0.5483640000000 1.0
C      1  0.5475140000000  0.5841870000000  0.5531500000000 1.0
C      1  0.4005150000000  0.5391970000000  0.4998320000000 1.0
C      1  0.5107640000000  0.3876380000000  0.4965510000000 1.0
C      1  0.5865950000000  0.5665200000000  0.4963620000000 1.0
C      1  0.4738470000000  0.4114240000000  0.4809360000000 1.0
C      1  0.5986290000000  0.5244880000000  0.4801820000000 1.0
C      1  0.4260820000000  0.5725540000000  0.4789060000000 1.0
C      1  0.5365880000000  0.4157700000000  0.4994950000000 1.0
C      1  0.5595480000000  0.5796530000000  0.5005520000000 1.0
C      1  0.4001290000000  0.5084700000000  0.5028810000000 1.0
C      1  0.4695320000000  0.4224850000000  0.4383190000000 1.0
C      1  0.5870040000000  0.5146260000000  0.4375440000000 1.0
C      1  0.4519500000000  0.5563770000000  0.4433010000000 1.0
C      1  0.5918140000000  0.5163690000000  0.5508320000000 1.0
C      1  0.4499200000000  0.5661870000000  0.5470170000000 1.0
C      1  0.4666070000000  0.4104400000000  0.5541200000000 1.0
C      1  0.5076560000000  0.4502870000000  0.4091750000000 1.0
C      1  0.5455210000000  0.5326050000000  0.4053860000000 1.0
C      1  0.4568500000000  0.5175300000000  0.4098270000000 1.0
C      1  0.4656420000000  0.5326990000000  0.5854590000000 1.0
C      1  0.4930460000000  0.4749190000000  0.5908240000000 1.0
C      1  0.5342510000000  0.5064160000000  0.5968740000000 1.0
C      1  0.5223370000000  0.5438660000000  0.5431180000000 1.0
C      1  0.4451520000000  0.4908880000000  0.5397110000000 1.0
C      1  0.5232690000000  0.4592130000000  0.5429750000000 1.0
C      1  0.3914740000000  0.4914170000000  0.5278660000000 1.0
C      1  0.5586460000000  0.4263380000000  0.5186310000000 1.0
C      1  0.5467640000000  0.5942540000000  0.5256660000000 1.0
C      1  0.4817520000000  0.5272850000000  0.5509740000000 1.0
C      1  0.4572200000000  0.4528720000000  0.5586020000000 1.0
C      1  0.5523520000000  0.4922190000000  0.5474470000000 1.0
C      1  0.3920340000000  0.5221330000000  0.5668370000000 1.0
C      1  0.5387430000000  0.4013040000000  0.5580120000000 1.0
C      1  0.5709730000000  0.5839200000000  0.5685210000000 1.0
C      1  0.4675050000000  0.4047200000000  0.5073950000000 1.0
C      1  0.6071220000000  0.5246890000000  0.5075220000000 1.0
C      1  0.4281380000000  0.5771680000000  0.5074960000000 1.0
C      1  0.5780620000000  0.5417640000000  0.4432610000000 1.0
C      1  0.4273510000000  0.5413240000000  0.4412450000000 1.0
C      1  0.4978900000000  0.4151080000000  0.4437520000000 1.0
C      1  0.4270880000000  0.4544670000000  0.5623620000000 1.0
C      1  0.5683580000000  0.4677430000000  0.5568900000000 1.0
C      1  0.4968950000000  0.5772500000000  0.5587270000000 1.0
C      1  0.5217970000000  0.4802260000000  0.5855870000000 1.0
C      1  0.5160500000000  0.5265180000000  0.5868850000000 1.0
C      1  0.4731950000000  0.4942300000000  0.5782480000000 1.0
C      1  0.4980360000000  0.5485390000000  0.4074810000000 1.0
C      1  0.4615460000000  0.4678290000000  0.4115740000000 1.0
C      1  0.5472600000000  0.4805390000000  0.4073750000000 1.0
C      1  0.4732160000000  0.5569890000000  0.5622910000000 1.0
C      1  0.4725700000000  0.4328260000000  0.5730710000000 1.0
C      1  0.5669550000000  0.5113640000000  0.5651640000000 1.0
C      1  0.4922480000000  0.3982980000000  0.5474080000000 1.0
C      1  0.5906040000000  0.5449070000000  0.5476680000000 1.0
C      1  0.4263190000000  0.5499330000000  0.5458660000000 1.0
C      1  0.5248430000000  0.5662180000000  0.5612900000000 1.0
C      1  0.4257300000000  0.4853680000000  0.5623550000000 1.0
C      1  0.5464810000000  0.4478770000000  0.5598490000000 1.0
C      1  0.4583010000000  0.4565880000000  0.5151000000000 1.0
C      1  0.5506380000000  0.4931300000000  0.5036220000000 1.0
C      1  0.4705570000000  0.5498040000000  0.5068220000000 1.0
C      1  0.5439210000000  0.4825790000000  0.4758830000000 1.0
C      1  0.4903370000000  0.5531210000000  0.4855410000000 1.0
C      1  0.4653570000000  0.4705560000000  0.4801330000000 1.0
C      1  0.5415790000000  0.4434050000000  0.4440680000000 1.0
C      1  0.5291240000000  0.5578050000000  0.4468240000000 1.0
C      1  0.4323280000000  0.4936110000000  0.4458780000000 1.0
C      1  0.5392320000000  0.5365930000000  0.5211510000000 1.0
C      1  0.4477800000000  0.5099940000000  0.5193170000000 1.0
C      1  0.5088710000000  0.4561690000000  0.5184120000000 1.0
C      1  0.4716600000000  0.5403360000000  0.4024110000000 1.0
C      1  0.4801540000000  0.4485690000000  0.4040650000000 1.0
C      1  0.5568820000000  0.5067880000000  0.4028720000000 1.0
C      1  0.4089160000000  0.4729070000000  0.4492070000000 1.0
C      1  0.5789260000000  0.4339430000000  0.4449250000000 1.0
C      1  0.5218050000000  0.5959270000000  0.4485630000000 1.0
C      1  0.4868830000000  0.4755100000000  0.5171560000000 1.0
C      1  0.5306250000000  0.5083260000000  0.5185610000000 1.0
C      1  0.4747300000000  0.5236660000000  0.5207210000000 1.0
C      1  0.4720890000000  0.5993480000000  0.5175600000000 1.0
C      1  0.4232760000000  0.4224810000000  0.5214410000000 1.0
C      1  0.5994410000000  0.4756570000000  0.5182990000000 1.0
C      1  0.5860980000000  0.5487810000000  0.4717750000000 1.0
C      1  0.4089820000000  0.5495630000000  0.4732350000000 1.0
C      1  0.4998250000000  0.4016110000000  0.4720350000000 1.0
C      1  0.5187720000000  0.4769610000000  0.4109280000000 1.0
C      1  0.5179230000000  0.5278060000000  0.4097550000000 1.0
C      1  0.4722310000000  0.4940570000000  0.4117350000000 1.0
C      1  0.5883120000000  0.4588640000000  0.5382870000000 1.0
C      1  0.4959290000000  0.5966270000000  0.5356910000000 1.0
C      1  0.4099500000000  0.4425200000000  0.5403080000000 1.0
C      1  0.5526630000000  0.4534870000000  0.4841840000000 1.0
C      1  0.5139470000000  0.5681450000000  0.4987180000000 1.0
C      1  0.4322540000000  0.4680800000000  0.4994680000000 1.0
C      1  0.4922290000000  0.3948880000000  0.5179780000000 1.0
C      1  0.5995870000000  0.5509920000000  0.5191280000000 1.0
C      1  0.4110530000000  0.5572410000000  0.5214480000000 1.0
C      1  0.4368380000000  0.5252570000000  0.5888340000000 1.0
C      1  0.5035490000000  0.4398730000000  0.5772920000000 1.0
C      1  0.5584740000000  0.5347920000000  0.5851020000000 1.0
C      1  0.5572970000000  0.4948930000000  0.4505250000000 1.0
C      1  0.4791050000000  0.5436540000000  0.4498160000000 1.0
C      1  0.4795940000000  0.4506870000000  0.4615720000000 1.0
C      1  0.4300770000000  0.4993010000000  0.4977040000000 1.0
C      1  0.5175160000000  0.4399730000000  0.4950260000000 1.0
C      1  0.5394000000000  0.5540600000000  0.4969690000000 1.0
C      1  0.5574700000000  0.4698840000000  0.4328240000000 1.0
C      1  0.4995170000000  0.5598410000000  0.4348030000000 1.0
C      1  0.4516310000000  0.4653870000000  0.4389920000000 1.0
C      1  0.4262510000000  0.4492410000000  0.4456590000000 1.0
C      1  0.5928760000000  0.4585190000000  0.4423620000000 1.0
C      1  0.4945380000000  0.5886220000000  0.4436650000000 1.0
C      1  0.5106460000000  0.4512930000000  0.4666370000000 1.0
C      1  0.5299120000000  0.5342590000000  0.4685490000000 1.0
C      1  0.4412040000000  0.5067900000000  0.4715440000000 1.0
C      1  0.5976730000000  0.4746300000000  0.4656290000000 1.0
C      1  0.4763370000000  0.5899610000000  0.4670210000000 1.0
C      1  0.4326740000000  0.4348420000000  0.4703040000000 1.0
C      1  0.3956690000000  0.4740760000000  0.4750420000000 1.0
C      1  0.5775490000000  0.4201780000000  0.4700850000000 1.0
C      1  0.5315030000000  0.6105770000000  0.4708600000000 1.0
C      1  0.5026770000000  0.5252760000000  0.4804790000000 1.0
C      1  0.4687090000000  0.4991950000000  0.4708370000000 1.0
C      1  0.5154730000000  0.4800980000000  0.4680720000000 1.0
C      1  0.3832990000000  0.4984760000000  0.4814260000000 1.0
C      1  0.5507140000000  0.4132450000000  0.4746720000000 1.0
C      1  0.5555880000000  0.5993650000000  0.4799570000000 1.0
C      1  0.5103790000000  0.5214030000000  0.5576330000000 1.0
C      1  0.4705580000000  0.4800860000000  0.5502200000000 1.0
C      1  0.5222980000000  0.4871970000000  0.5557890000000 1.0
C      1  0.3925120000000  0.4512000000000  0.4939960000000 1.0
C      1  0.5872810000000  0.4344350000000  0.4945170000000 1.0
C      1  0.5119540000000  0.6151080000000  0.4936250000000 1.0
C      1  0.5773690000000  0.5567620000000  0.5710870000000 1.0
C      1  0.4165540000000  0.5356990000000  0.5691510000000 1.0
C      1  0.5133570000000  0.4122590000000  0.5621080000000 1.0
C      1  0.4420640000000  0.4961290000000  0.5865310000000 1.0
C      1  0.5339280000000  0.4517820000000  0.5873130000000 1.0
C      1  0.5308320000000  0.5514380000000  0.5866580000000 1.0
C      1  0.5177370000000  0.5941020000000  0.5147730000000 1.0
C      1  0.4029710000000  0.4638590000000  0.5199450000000 1.0
C      1  0.5573720000000  0.4638460000000  0.5153960000000 1.0
C      1  0.5185220000000  0.4313530000000  0.4286770000000 1.0
C      1  0.5534780000000  0.5507640000000  0.4282820000000 1.0
C      1  0.4317900000000  0.5166980000000  0.4259790000000 1.0
C      1  0.5098390000000  0.4952930000000  0.4430280000000 1.0
C      1  0.5332150000000  0.5143630000000  0.4428470000000 1.0
C      1  0.4818020000000  0.5100860000000  0.4454620000000 1.0
C      1  0.5966460000000  0.5040930000000  0.5245860000000 1.0
C      1  0.4558440000000  0.5738230000000  0.5189590000000 1.0
C      1  0.4536040000000  0.4238060000000  0.5254530000000 1.0
C      1  0.5991990000000  0.5032190000000  0.4608770000000 1.0
C      1  0.4500860000000  0.5774180000000  0.4624660000000 1.0
C      1  0.4532750000000  0.4160370000000  0.4619520000000 1.0
C      1  0.4997230000000  0.5072520000000  0.5063770000000 1.0
END
