TITL C-3578195-8548-5 -3.62786814664508e-06 125000 -1206.96865936791 0 0 192 (C1) n - 1
REM
REM in /home/bkarasulu/work/CARBON/AIRSS/Generating-Clusters/EDIP-Nigel-Params/with-SteepDescent/Higher-Symm/SD-CG/HFTN-CG
REM
REM
REM
REM
REM
REM ./C.cell (12c818d87b63d06a65506943cc24bca4)
REM
REM compiler GCC version 9.2.1 20190827 (Red Hat 9.2.1-1)
REM options -cpp -mtune=generic -march=x86-64 -g -O0 -fpre-include=/usr/include/finclude/math-vector-fortran.h
REM seed 553351859 1436903446 1157572550 1633630706 1930812495 26372445 -1629878404 -79067388 738364287 -1764812748 180389576 -1181893094 -825659122 2137504320 1477660174 2060246180 -915429039 -127069641 -435264084 597996025 -138940358 -1306737667 -1387718044 612318770 -1571647894 -763458810 -10178046 -44635136 223735913 142567374 2011980994 1003585306 1733007660
REM
CELL 1.54180   50.00000   50.00000   50.00000   90.00000   90.00000   90.00000
LATT -1
SFAC C  
C      1  0.4391990000000  0.5307180000000  0.4042670000000 1.0
C      1  0.5626630000000  0.5280360000000  0.3998940000000 1.0
C      1  0.4217280000000  0.5079770000000  0.4106670000000 1.0
C      1  0.5753940000000  0.5035570000000  0.4101500000000 1.0
C      1  0.4207740000000  0.4530000000000  0.4956430000000 1.0
C      1  0.5827070000000  0.4367080000000  0.4996770000000 1.0
C      1  0.5165060000000  0.4245370000000  0.5384410000000 1.0
C      1  0.4856250000000  0.4256790000000  0.5368890000000 1.0
C      1  0.5077340000000  0.5114120000000  0.6275070000000 1.0
C      1  0.4822040000000  0.5182470000000  0.6162530000000 1.0
C      1  0.5193310000000  0.4864090000000  0.3870900000000 1.0
C      1  0.4826600000000  0.4871870000000  0.3921290000000 1.0
C      1  0.5659880000000  0.5226710000000  0.5988290000000 1.0
C      1  0.4337570000000  0.5148220000000  0.6003960000000 1.0
C      1  0.5171460000000  0.5438590000000  0.5403760000000 1.0
C      1  0.4827430000000  0.5408010000000  0.5414700000000 1.0
C      1  0.5183220000000  0.4002650000000  0.5551140000000 1.0
C      1  0.4897900000000  0.3936410000000  0.5585390000000 1.0
C      1  0.4067420000000  0.5092060000000  0.4369880000000 1.0
C      1  0.5913590000000  0.5045930000000  0.4361530000000 1.0
C      1  0.5143180000000  0.6128510000000  0.4782940000000 1.0
C      1  0.4838630000000  0.6126440000000  0.4794700000000 1.0
C      1  0.4577990000000  0.5007070000000  0.6133960000000 1.0
C      1  0.5306450000000  0.5138060000000  0.6085720000000 1.0
C      1  0.4399920000000  0.4631200000000  0.3998200000000 1.0
C      1  0.5612780000000  0.4596930000000  0.4002260000000 1.0
C      1  0.5817310000000  0.4545990000000  0.5465180000000 1.0
C      1  0.4129690000000  0.4501100000000  0.5438860000000 1.0
C      1  0.3883480000000  0.5189290000000  0.5432610000000 1.0
C      1  0.6073850000000  0.5189600000000  0.5398480000000 1.0
C      1  0.5164270000000  0.5048480000000  0.5053710000000 1.0
C      1  0.4842900000000  0.5053330000000  0.5063960000000 1.0
C      1  0.5586850000000  0.5762350000000  0.4827270000000 1.0
C      1  0.4408110000000  0.5773960000000  0.4856170000000 1.0
C      1  0.5458730000000  0.5626750000000  0.5501140000000 1.0
C      1  0.4568680000000  0.5593810000000  0.5510920000000 1.0
C      1  0.5214700000000  0.5694420000000  0.4141020000000 1.0
C      1  0.4825730000000  0.5702880000000  0.4151250000000 1.0
C      1  0.5163710000000  0.4386510000000  0.4030720000000 1.0
C      1  0.4858410000000  0.4404550000000  0.4038830000000 1.0
C      1  0.5664700000000  0.5219410000000  0.5241940000000 1.0
C      1  0.4236110000000  0.5275140000000  0.5191170000000 1.0
C      1  0.5982070000000  0.4812270000000  0.4556510000000 1.0
C      1  0.3971610000000  0.4863330000000  0.4536050000000 1.0
C      1  0.4212150000000  0.5555700000000  0.4420060000000 1.0
C      1  0.5788680000000  0.5531030000000  0.4390680000000 1.0
C      1  0.4021030000000  0.5601140000000  0.5195610000000 1.0
C      1  0.5936560000000  0.5551510000000  0.5148990000000 1.0
C      1  0.5979450000000  0.4990530000000  0.5600440000000 1.0
C      1  0.3964640000000  0.4954420000000  0.5600210000000 1.0
C      1  0.4860990000000  0.5333630000000  0.5909740000000 1.0
C      1  0.5161970000000  0.5298250000000  0.5868960000000 1.0
C      1  0.4895340000000  0.4480800000000  0.6266360000000 1.0
C      1  0.5152170000000  0.4459760000000  0.6153490000000 1.0
C      1  0.6035340000000  0.4871560000000  0.4847910000000 1.0
C      1  0.3912100000000  0.4925050000000  0.4832030000000 1.0
C      1  0.4711550000000  0.4269720000000  0.5105800000000 1.0
C      1  0.5342650000000  0.4251030000000  0.5128440000000 1.0
C      1  0.5391290000000  0.5141940000000  0.4337230000000 1.0
C      1  0.4567900000000  0.5089390000000  0.4372340000000 1.0
C      1  0.5310570000000  0.4791300000000  0.5184240000000 1.0
C      1  0.4701860000000  0.4817990000000  0.5196890000000 1.0
C      1  0.4820270000000  0.4375100000000  0.5812720000000 1.0
C      1  0.5114580000000  0.4470060000000  0.5842010000000 1.0
C      1  0.5279080000000  0.5268200000000  0.4596500000000 1.0
C      1  0.4680600000000  0.5254940000000  0.4612010000000 1.0
C      1  0.5130960000000  0.4688380000000  0.5389630000000 1.0
C      1  0.4851290000000  0.4728590000000  0.5452810000000 1.0
C      1  0.5300000000000  0.5669350000000  0.4880480000000 1.0
C      1  0.4692410000000  0.5665240000000  0.4894240000000 1.0
C      1  0.4720880000000  0.5715560000000  0.5737900000000 1.0
C      1  0.5315890000000  0.5853320000000  0.5776960000000 1.0
C      1  0.6023400000000  0.4738990000000  0.5472230000000 1.0
C      1  0.3956610000000  0.4728520000000  0.5427300000000 1.0
C      1  0.4652150000000  0.5279270000000  0.3912380000000 1.0
C      1  0.5363050000000  0.5273030000000  0.3870530000000 1.0
C      1  0.4040420000000  0.5449850000000  0.5480220000000 1.0
C      1  0.5962840000000  0.5463910000000  0.5430880000000 1.0
C      1  0.3867490000000  0.5415940000000  0.5003140000000 1.0
C      1  0.6095660000000  0.5372050000000  0.4977000000000 1.0
C      1  0.5533080000000  0.4870210000000  0.5371970000000 1.0
C      1  0.4462200000000  0.4931250000000  0.5343650000000 1.0
C      1  0.4732500000000  0.4253070000000  0.4242180000000 1.0
C      1  0.5297530000000  0.4158440000000  0.4191230000000 1.0
C      1  0.5724710000000  0.5753420000000  0.5084910000000 1.0
C      1  0.4275490000000  0.5763770000000  0.5116980000000 1.0
C      1  0.4319230000000  0.4450030000000  0.5650260000000 1.0
C      1  0.5652830000000  0.4499610000000  0.5701240000000 1.0
C      1  0.5570400000000  0.4199210000000  0.5644480000000 1.0
C      1  0.4442150000000  0.4162530000000  0.5584500000000 1.0
C      1  0.4743620000000  0.5311950000000  0.5153170000000 1.0
C      1  0.5240990000000  0.5322130000000  0.5140840000000 1.0
C      1  0.4405780000000  0.4857650000000  0.4535310000000 1.0
C      1  0.5561260000000  0.4917220000000  0.4480340000000 1.0
C      1  0.4126070000000  0.4589960000000  0.4473780000000 1.0
C      1  0.5855790000000  0.4547110000000  0.4505920000000 1.0
C      1  0.4839860000000  0.5902720000000  0.5018370000000 1.0
C      1  0.5162350000000  0.5909060000000  0.5009470000000 1.0
C      1  0.4443590000000  0.5237630000000  0.4794440000000 1.0
C      1  0.5522480000000  0.5245840000000  0.4778220000000 1.0
C      1  0.4865640000000  0.5459670000000  0.3998750000000 1.0
C      1  0.5157120000000  0.5450590000000  0.3991200000000 1.0
C      1  0.4840160000000  0.5047090000000  0.4751770000000 1.0
C      1  0.5132470000000  0.5042290000000  0.4728560000000 1.0
C      1  0.5337510000000  0.4592680000000  0.3888490000000 1.0
C      1  0.4689080000000  0.4607660000000  0.3906730000000 1.0
C      1  0.4802070000000  0.6036350000000  0.4514340000000 1.0
C      1  0.5187810000000  0.6037100000000  0.4504900000000 1.0
C      1  0.4434250000000  0.5444620000000  0.4283790000000 1.0
C      1  0.5578720000000  0.5454600000000  0.4216650000000 1.0
C      1  0.5240990000000  0.4474420000000  0.5548850000000 1.0
C      1  0.4745770000000  0.4477310000000  0.5536510000000 1.0
C      1  0.5505820000000  0.5700660000000  0.5922180000000 1.0
C      1  0.4593240000000  0.5599150000000  0.5974630000000 1.0
C      1  0.4704510000000  0.4498060000000  0.6062060000000 1.0
C      1  0.5331290000000  0.4656560000000  0.6246460000000 1.0
C      1  0.4581570000000  0.4600000000000  0.4618230000000 1.0
C      1  0.5406270000000  0.4649670000000  0.4458380000000 1.0
C      1  0.5296140000000  0.5983470000000  0.5274280000000 1.0
C      1  0.4717910000000  0.5967930000000  0.5288770000000 1.0
C      1  0.5352760000000  0.4832450000000  0.6015120000000 1.0
C      1  0.4615850000000  0.4760130000000  0.5947210000000 1.0
C      1  0.4741090000000  0.5764090000000  0.4423130000000 1.0
C      1  0.5246210000000  0.5762230000000  0.4422670000000 1.0
C      1  0.5156870000000  0.5944930000000  0.5538760000000 1.0
C      1  0.4866030000000  0.5924240000000  0.5547070000000 1.0
C      1  0.5179030000000  0.4975020000000  0.4168260000000 1.0
C      1  0.4799120000000  0.4924280000000  0.4246550000000 1.0
C      1  0.4387300000000  0.4954120000000  0.4806560000000 1.0
C      1  0.5565600000000  0.4959390000000  0.4773690000000 1.0
C      1  0.4975870000000  0.4631250000000  0.4736890000000 1.0
C      1  0.5275220000000  0.4552380000000  0.4729950000000 1.0
C      1  0.5743170000000  0.4384790000000  0.4729750000000 1.0
C      1  0.4195990000000  0.4401280000000  0.4700510000000 1.0
C      1  0.5434070000000  0.4551840000000  0.4993500000000 1.0
C      1  0.4719340000000  0.4572610000000  0.4963900000000 1.0
C      1  0.4707330000000  0.4088530000000  0.5744010000000 1.0
C      1  0.5360950000000  0.4047990000000  0.5767710000000 1.0
C      1  0.5300800000000  0.4112900000000  0.4663840000000 1.0
C      1  0.4712950000000  0.4069540000000  0.4677150000000 1.0
C      1  0.6149240000000  0.5121820000000  0.5109750000000 1.0
C      1  0.3831210000000  0.5156190000000  0.5127170000000 1.0
C      1  0.4206160000000  0.4947390000000  0.5801720000000 1.0
C      1  0.5780290000000  0.4996750000000  0.5836450000000 1.0
C      1  0.5583150000000  0.4163170000000  0.4606550000000 1.0
C      1  0.4442800000000  0.4230230000000  0.4615960000000 1.0
C      1  0.5549330000000  0.5837110000000  0.5310870000000 1.0
C      1  0.4469490000000  0.5816140000000  0.5335730000000 1.0
C      1  0.5614170000000  0.4755990000000  0.5870530000000 1.0
C      1  0.4349760000000  0.4688110000000  0.5830030000000 1.0
C      1  0.4701260000000  0.5063990000000  0.3745260000000 1.0
C      1  0.5307300000000  0.5061670000000  0.3694520000000 1.0
C      1  0.4020680000000  0.5356450000000  0.4489480000000 1.0
C      1  0.5966590000000  0.5320810000000  0.4466720000000 1.0
C      1  0.5618240000000  0.4138410000000  0.5361150000000 1.0
C      1  0.4435580000000  0.4173130000000  0.5249180000000 1.0
C      1  0.5174050000000  0.4098710000000  0.4923380000000 1.0
C      1  0.4866130000000  0.4088430000000  0.4926770000000 1.0
C      1  0.5630040000000  0.4499450000000  0.4294400000000 1.0
C      1  0.4330970000000  0.4523560000000  0.4256900000000 1.0
C      1  0.3882110000000  0.5412910000000  0.4725360000000 1.0
C      1  0.6104720000000  0.5373690000000  0.4700670000000 1.0
C      1  0.4466360000000  0.4288160000000  0.4329210000000 1.0
C      1  0.5567770000000  0.4210410000000  0.4308690000000 1.0
C      1  0.4198680000000  0.4957670000000  0.5228070000000 1.0
C      1  0.5789080000000  0.4905600000000  0.5210110000000 1.0
C      1  0.4207440000000  0.4361350000000  0.5195970000000 1.0
C      1  0.5812480000000  0.4327550000000  0.5273350000000 1.0
C      1  0.5225570000000  0.5229610000000  0.5596870000000 1.0
C      1  0.4775350000000  0.5170780000000  0.5656470000000 1.0
C      1  0.4867090000000  0.4637340000000  0.4417790000000 1.0
C      1  0.5167180000000  0.4685560000000  0.4281490000000 1.0
C      1  0.5153720000000  0.5562520000000  0.4627990000000 1.0
C      1  0.4822860000000  0.5562330000000  0.4631970000000 1.0
C      1  0.4361210000000  0.5431520000000  0.5903400000000 1.0
C      1  0.5702430000000  0.5497380000000  0.5891770000000 1.0
C      1  0.4261630000000  0.5739230000000  0.4621490000000 1.0
C      1  0.5731860000000  0.5712760000000  0.4592680000000 1.0
C      1  0.4251140000000  0.4859200000000  0.3938780000000 1.0
C      1  0.5768490000000  0.4816070000000  0.3933980000000 1.0
C      1  0.4842130000000  0.4870730000000  0.5724440000000 1.0
C      1  0.5110390000000  0.4774890000000  0.5844050000000 1.0
C      1  0.5749940000000  0.4780200000000  0.4933440000000 1.0
C      1  0.4166750000000  0.4833770000000  0.4956880000000 1.0
C      1  0.5702380000000  0.5462050000000  0.5599680000000 1.0
C      1  0.4344940000000  0.5403830000000  0.5603550000000 1.0
C      1  0.4482810000000  0.5384460000000  0.5039790000000 1.0
C      1  0.5498210000000  0.5382930000000  0.5034700000000 1.0
C      1  0.4869130000000  0.4100130000000  0.4435840000000 1.0
C      1  0.5152620000000  0.4060440000000  0.4425060000000 1.0
C      1  0.4477550000000  0.5121150000000  0.5584520000000 1.0
C      1  0.5496380000000  0.5139950000000  0.5539770000000 1.0
END
