TITL C-3577080-309-464 -3.16362176167928e-06 125000 -767.105164137194 0 0 120 (Cs) n - 1
REM
REM in /home/bkarasulu/work/CARBON/AIRSS/Generating-Clusters/EDIP-Nigel-Params/with-SteepDescent/Higher-Symm/SD-CG/HFTN-CG
REM
REM
REM
REM
REM
REM ./C.cell (12c818d87b63d06a65506943cc24bca4)
REM
REM compiler GCC version 9.2.1 20190827 (Red Hat 9.2.1-1)
REM options -cpp -mtune=generic -march=x86-64 -g -O0 -fpre-include=/usr/include/finclude/math-vector-fortran.h
REM seed -1621050641 2065429464 -1938928925 1030966378 -1626474663 1679157054 -806078654 -1104543980 -1213284104 -1069480348 1818620017 -1673042015 -1501545026 -734140826 -945444847 1343626936 91286875 163713344 -715633266 1460527501 -84509706 -1274443392 -1984794629 -1956978099 875261099 396672267 -696767002 564663355 1611293028 -600424425 -852326629 671722948 -500750368
REM
CELL 1.54180   50.00000   50.00000   50.00000   90.00000   90.00000   90.00000
LATT -1
SFAC C  
C      1  0.5262390000000  0.5575210000000  0.4235730000000 1.0
C      1  0.4359530000000  0.5571670000000  0.4515950000000 1.0
C      1  0.4340610000000  0.5574960000000  0.5460710000000 1.0
C      1  0.5236470000000  0.5573780000000  0.5772590000000 1.0
C      1  0.5806990000000  0.5571510000000  0.5013900000000 1.0
C      1  0.5262380000000  0.4424770000000  0.4235740000000 1.0
C      1  0.4359510000000  0.4428340000000  0.4515960000000 1.0
C      1  0.4340590000000  0.4425070000000  0.5460730000000 1.0
C      1  0.5236460000000  0.4426230000000  0.5772600000000 1.0
C      1  0.5806980000000  0.4428470000000  0.5013910000000 1.0
C      1  0.5262120000000  0.5982700000000  0.4650340000000 1.0
C      1  0.4746230000000  0.5982320000000  0.4636230000000 1.0
C      1  0.4587020000000  0.5983710000000  0.5127270000000 1.0
C      1  0.4995130000000  0.5979690000000  0.5435220000000 1.0
C      1  0.5412540000000  0.5978440000000  0.5144280000000 1.0
C      1  0.5262100000000  0.4017290000000  0.4650350000000 1.0
C      1  0.4746200000000  0.4017680000000  0.4636250000000 1.0
C      1  0.4587000000000  0.4016300000000  0.5127290000000 1.0
C      1  0.4995100000000  0.4020320000000  0.5435240000000 1.0
C      1  0.5412510000000  0.4021550000000  0.5144300000000 1.0
C      1  0.5614250000000  0.4337600000000  0.5211590000000 1.0
C      1  0.5388990000000  0.4333150000000  0.4480650000000 1.0
C      1  0.4645100000000  0.4356410000000  0.4495180000000 1.0
C      1  0.4375400000000  0.4323870000000  0.5189700000000 1.0
C      1  0.4991010000000  0.4331710000000  0.5648610000000 1.0
C      1  0.5614260000000  0.5662390000000  0.5211580000000 1.0
C      1  0.5389000000000  0.5666830000000  0.4480640000000 1.0
C      1  0.4645110000000  0.5643580000000  0.4495170000000 1.0
C      1  0.4375410000000  0.5676150000000  0.5189690000000 1.0
C      1  0.4991030000000  0.5668300000000  0.5648600000000 1.0
C      1  0.4730630000000  0.5566180000000  0.5075970000000 1.0
C      1  0.4999130000000  0.5566070000000  0.5272900000000 1.0
C      1  0.5261480000000  0.5568350000000  0.5083930000000 1.0
C      1  0.5160720000000  0.5553030000000  0.4773610000000 1.0
C      1  0.4833730000000  0.5557290000000  0.4766060000000 1.0
C      1  0.4730620000000  0.4433820000000  0.5075980000000 1.0
C      1  0.4999120000000  0.4433940000000  0.5272920000000 1.0
C      1  0.5261470000000  0.4431650000000  0.5083940000000 1.0
C      1  0.5160710000000  0.4446960000000  0.4773620000000 1.0
C      1  0.4833710000000  0.4442710000000  0.4766070000000 1.0
C      1  0.5681720000000  0.4718580000000  0.4523770000000 1.0
C      1  0.4761020000000  0.4720490000000  0.4206080000000 1.0
C      1  0.4170930000000  0.4716670000000  0.4984140000000 1.0
C      1  0.4727400000000  0.4718530000000  0.5783750000000 1.0
C      1  0.5659090000000  0.4720400000000  0.5501150000000 1.0
C      1  0.5681730000000  0.5281400000000  0.4523760000000 1.0
C      1  0.4761030000000  0.5279500000000  0.4206080000000 1.0
C      1  0.4170940000000  0.5283340000000  0.4984140000000 1.0
C      1  0.4727410000000  0.5281490000000  0.5783740000000 1.0
C      1  0.5659100000000  0.5279590000000  0.5501140000000 1.0
C      1  0.5825970000000  0.4720130000000  0.5009270000000 1.0
C      1  0.5267700000000  0.4717600000000  0.4211260000000 1.0
C      1  0.4333620000000  0.4720340000000  0.4504880000000 1.0
C      1  0.4323850000000  0.4717550000000  0.5477720000000 1.0
C      1  0.5246440000000  0.4718600000000  0.5795320000000 1.0
C      1  0.5825980000000  0.5279850000000  0.5009260000000 1.0
C      1  0.5267710000000  0.5282380000000  0.4211250000000 1.0
C      1  0.4333620000000  0.5279670000000  0.4504870000000 1.0
C      1  0.4323850000000  0.5282470000000  0.5477710000000 1.0
C      1  0.5246450000000  0.5281410000000  0.5795310000000 1.0
C      1  0.5228630000000  0.5167600000000  0.5076190000000 1.0
C      1  0.5150660000000  0.5254080000000  0.4796660000000 1.0
C      1  0.4859930000000  0.5164190000000  0.4802020000000 1.0
C      1  0.4755920000000  0.5256100000000  0.5072750000000 1.0
C      1  0.4998030000000  0.5259480000000  0.5250770000000 1.0
C      1  0.5228630000000  0.4832400000000  0.5076200000000 1.0
C      1  0.5150650000000  0.4745910000000  0.4796670000000 1.0
C      1  0.4859930000000  0.4835810000000  0.4802020000000 1.0
C      1  0.4755910000000  0.4743910000000  0.5072750000000 1.0
C      1  0.4998030000000  0.4740530000000  0.5250770000000 1.0
C      1  0.5705080000000  0.4270900000000  0.4783720000000 1.0
C      1  0.5010710000000  0.4267490000000  0.4262730000000 1.0
C      1  0.4301250000000  0.4266320000000  0.4758030000000 1.0
C      1  0.4557710000000  0.4269080000000  0.5588450000000 1.0
C      1  0.5426920000000  0.4270290000000  0.5606430000000 1.0
C      1  0.5705090000000  0.5729080000000  0.4783700000000 1.0
C      1  0.5010730000000  0.5732500000000  0.4262720000000 1.0
C      1  0.4301260000000  0.5733690000000  0.4758010000000 1.0
C      1  0.4557720000000  0.5730940000000  0.5588430000000 1.0
C      1  0.5426940000000  0.5729710000000  0.5606420000000 1.0
C      1  0.4718530000000  0.5887220000000  0.5375480000000 1.0
C      1  0.5274160000000  0.5886020000000  0.5386490000000 1.0
C      1  0.5440230000000  0.5876190000000  0.4866080000000 1.0
C      1  0.5008480000000  0.5887110000000  0.4532580000000 1.0
C      1  0.4554660000000  0.5892580000000  0.4845740000000 1.0
C      1  0.4718510000000  0.4112800000000  0.5375490000000 1.0
C      1  0.5274150000000  0.4113980000000  0.5386510000000 1.0
C      1  0.5440210000000  0.4123800000000  0.4866100000000 1.0
C      1  0.5008460000000  0.4112880000000  0.4532600000000 1.0
C      1  0.4554640000000  0.4107420000000  0.4845750000000 1.0
C      1  0.5659120000000  0.4426440000000  0.4535200000000 1.0
C      1  0.4763160000000  0.4428960000000  0.4234570000000 1.0
C      1  0.4193310000000  0.4423520000000  0.4986230000000 1.0
C      1  0.4740150000000  0.4426380000000  0.5761250000000 1.0
C      1  0.5646880000000  0.4428850000000  0.5485340000000 1.0
C      1  0.5659140000000  0.5573530000000  0.4535190000000 1.0
C      1  0.4763170000000  0.5571030000000  0.4234560000000 1.0
C      1  0.4193320000000  0.5576500000000  0.4986220000000 1.0
C      1  0.4740170000000  0.5573640000000  0.5761240000000 1.0
C      1  0.5646890000000  0.5571150000000  0.5485330000000 1.0
C      1  0.5501120000000  0.5143860000000  0.4332320000000 1.0
C      1  0.4526400000000  0.5142690000000  0.4325480000000 1.0
C      1  0.4204090000000  0.5144190000000  0.5244300000000 1.0
C      1  0.4985800000000  0.5143680000000  0.5832930000000 1.0
C      1  0.5782200000000  0.5143030000000  0.5268580000000 1.0
C      1  0.5501120000000  0.4856110000000  0.4332320000000 1.0
C      1  0.4526390000000  0.4857310000000  0.4325480000000 1.0
C      1  0.4204090000000  0.4855830000000  0.5244300000000 1.0
C      1  0.4985800000000  0.4856340000000  0.5832940000000 1.0
C      1  0.5782200000000  0.4856960000000  0.5268590000000 1.0
C      1  0.5808110000000  0.4855860000000  0.4750150000000 1.0
C      1  0.5015780000000  0.4855780000000  0.4153270000000 1.0
C      1  0.4199110000000  0.4855650000000  0.4727810000000 1.0
C      1  0.4491070000000  0.4855460000000  0.5675790000000 1.0
C      1  0.5485630000000  0.4855870000000  0.5694880000000 1.0
C      1  0.5808120000000  0.5144120000000  0.4750150000000 1.0
C      1  0.5015780000000  0.5144200000000  0.4153260000000 1.0
C      1  0.4199110000000  0.5144360000000  0.4727810000000 1.0
C      1  0.4491070000000  0.5144570000000  0.5675780000000 1.0
C      1  0.5485630000000  0.5144130000000  0.5694880000000 1.0
END
