TITL C-3577088-510-450 -6.32749799825745e-07 125000 -1120.76532697271 0 0 179 (C1) n - 1
REM
REM in /home/bkarasulu/work/CARBON/AIRSS/Generating-Clusters/EDIP-Nigel-Params/with-SteepDescent/Higher-Symm/SD-CG/HFTN-CG
REM
REM
REM
REM
REM
REM ./C.cell (12c818d87b63d06a65506943cc24bca4)
REM
REM compiler GCC version 9.2.1 20190827 (Red Hat 9.2.1-1)
REM options -cpp -mtune=generic -march=x86-64 -g -O0 -fpre-include=/usr/include/finclude/math-vector-fortran.h
REM seed 1202156347 1537402996 -2033291830 1015492176 398339032 -811640438 -566315544 -1591222578 -555280223 530919866 -982096123 1050457046 2141817476 -270093553 -1547664454 -1712099226 -64147116 1971047363 540811978 54019754 1681386608 1219213111 551429747 -857209491 1748076342 1441926098 188064624 -1973116675 1033045371 -1500301504 952516038 -463646799 336027934
REM
CELL 1.54180   50.00000   50.00000   50.00000   90.00000   90.00000   90.00000
LATT -1
SFAC C  
C      1  0.4442470000000  0.4565650000000  0.5873880000000 1.0
C      1  0.5092250000000  0.5538090000000  0.5867960000000 1.0
C      1  0.5245300000000  0.4895470000000  0.5179120000000 1.0
C      1  0.4165010000000  0.5242060000000  0.4313520000000 1.0
C      1  0.4975320000000  0.4210470000000  0.5692820000000 1.0
C      1  0.4815030000000  0.5493220000000  0.4102220000000 1.0
C      1  0.5828090000000  0.4295930000000  0.5273720000000 1.0
C      1  0.4802500000000  0.5603370000000  0.5058210000000 1.0
C      1  0.5884920000000  0.5002490000000  0.4584980000000 1.0
C      1  0.4604180000000  0.4377410000000  0.5431760000000 1.0
C      1  0.5067800000000  0.5693330000000  0.4825140000000 1.0
C      1  0.5234470000000  0.4827790000000  0.6078440000000 1.0
C      1  0.4104080000000  0.4483470000000  0.5541070000000 1.0
C      1  0.5524460000000  0.5207420000000  0.5367860000000 1.0
C      1  0.5487250000000  0.4939260000000  0.6078640000000 1.0
C      1  0.5020990000000  0.5200490000000  0.4920780000000 1.0
C      1  0.5022650000000  0.5024300000000  0.5999760000000 1.0
C      1  0.5480900000000  0.3980320000000  0.4619420000000 1.0
C      1  0.5626510000000  0.4732760000000  0.5636720000000 1.0
C      1  0.4436150000000  0.4163760000000  0.4675270000000 1.0
C      1  0.5490190000000  0.4977540000000  0.5000630000000 1.0
C      1  0.4906240000000  0.6053830000000  0.5310060000000 1.0
C      1  0.5659170000000  0.5664470000000  0.5273350000000 1.0
C      1  0.4698210000000  0.4861940000000  0.5396230000000 1.0
C      1  0.5061310000000  0.3896260000000  0.4304400000000 1.0
C      1  0.5131920000000  0.4833230000000  0.4359090000000 1.0
C      1  0.4456850000000  0.5176650000000  0.4280540000000 1.0
C      1  0.5057260000000  0.3753420000000  0.4548580000000 1.0
C      1  0.4521750000000  0.5038400000000  0.5573170000000 1.0
C      1  0.4515280000000  0.4766130000000  0.5172800000000 1.0
C      1  0.6003940000000  0.4487800000000  0.4887340000000 1.0
C      1  0.5362300000000  0.5933230000000  0.5092340000000 1.0
C      1  0.5683660000000  0.4694070000000  0.4283990000000 1.0
C      1  0.3967970000000  0.4549240000000  0.4811050000000 1.0
C      1  0.4243170000000  0.4937190000000  0.5563800000000 1.0
C      1  0.4744240000000  0.6074620000000  0.5060540000000 1.0
C      1  0.3778010000000  0.4763750000000  0.4859300000000 1.0
C      1  0.4914380000000  0.5611470000000  0.5349780000000 1.0
C      1  0.5987700000000  0.5295430000000  0.5252770000000 1.0
C      1  0.6051580000000  0.4748300000000  0.5285720000000 1.0
C      1  0.5387440000000  0.5209920000000  0.5654860000000 1.0
C      1  0.5120110000000  0.3900720000000  0.5353390000000 1.0
C      1  0.4963770000000  0.5139710000000  0.5422680000000 1.0
C      1  0.5679670000000  0.4981610000000  0.5217970000000 1.0
C      1  0.5587250000000  0.5639940000000  0.5744240000000 1.0
C      1  0.5246140000000  0.3920180000000  0.5083380000000 1.0
C      1  0.4220090000000  0.4855010000000  0.5270510000000 1.0
C      1  0.5580070000000  0.5826090000000  0.5513330000000 1.0
C      1  0.4468880000000  0.4178960000000  0.4964040000000 1.0
C      1  0.4722470000000  0.4632950000000  0.5854740000000 1.0
C      1  0.5220230000000  0.4075710000000  0.5590160000000 1.0
C      1  0.4753610000000  0.4139130000000  0.5509160000000 1.0
C      1  0.5225780000000  0.5610870000000  0.5347820000000 1.0
C      1  0.4028590000000  0.5306880000000  0.5343830000000 1.0
C      1  0.5178160000000  0.4417400000000  0.5250610000000 1.0
C      1  0.5309320000000  0.3768720000000  0.4671440000000 1.0
C      1  0.5397170000000  0.4213640000000  0.4458090000000 1.0
C      1  0.5442720000000  0.4265020000000  0.5574370000000 1.0
C      1  0.4405420000000  0.5605260000000  0.5344600000000 1.0
C      1  0.4516620000000  0.4949480000000  0.4094040000000 1.0
C      1  0.4696160000000  0.4071150000000  0.4562870000000 1.0
C      1  0.5318310000000  0.5937160000000  0.5531800000000 1.0
C      1  0.5749650000000  0.5407020000000  0.5394880000000 1.0
C      1  0.5613000000000  0.4454930000000  0.4153710000000 1.0
C      1  0.5401500000000  0.5687680000000  0.4408410000000 1.0
C      1  0.4750500000000  0.4440130000000  0.4214560000000 1.0
C      1  0.5747890000000  0.5402610000000  0.4324520000000 1.0
C      1  0.5980470000000  0.5398230000000  0.4759490000000 1.0
C      1  0.4307140000000  0.4290170000000  0.5431810000000 1.0
C      1  0.5816540000000  0.5453440000000  0.5686200000000 1.0
C      1  0.4957920000000  0.4431460000000  0.5914640000000 1.0
C      1  0.5869790000000  0.4717810000000  0.4504150000000 1.0
C      1  0.4260970000000  0.4969370000000  0.4678220000000 1.0
C      1  0.4331870000000  0.5384920000000  0.5775930000000 1.0
C      1  0.4579090000000  0.5097340000000  0.5855890000000 1.0
C      1  0.4062280000000  0.5085570000000  0.5134720000000 1.0
C      1  0.5364470000000  0.4516130000000  0.4033540000000 1.0
C      1  0.5271700000000  0.4792840000000  0.5488660000000 1.0
C      1  0.5996220000000  0.5496520000000  0.5033600000000 1.0
C      1  0.4770060000000  0.5310430000000  0.4994910000000 1.0
C      1  0.3790650000000  0.4964930000000  0.5071370000000 1.0
C      1  0.4781780000000  0.4980460000000  0.3953200000000 1.0
C      1  0.4534170000000  0.5328720000000  0.5442870000000 1.0
C      1  0.4093530000000  0.4471970000000  0.5060020000000 1.0
C      1  0.5341900000000  0.4314460000000  0.4759380000000 1.0
C      1  0.4221960000000  0.4674690000000  0.5733820000000 1.0
C      1  0.4839990000000  0.3965440000000  0.5299180000000 1.0
C      1  0.4650750000000  0.5523350000000  0.4625480000000 1.0
C      1  0.5494800000000  0.5500620000000  0.4202520000000 1.0
C      1  0.5043220000000  0.5314050000000  0.6037130000000 1.0
C      1  0.5601140000000  0.5711590000000  0.4638810000000 1.0
C      1  0.5676470000000  0.5134030000000  0.4419850000000 1.0
C      1  0.5432520000000  0.4139300000000  0.5148540000000 1.0
C      1  0.5393180000000  0.5990170000000  0.4368490000000 1.0
C      1  0.6012110000000  0.4491390000000  0.5161530000000 1.0
C      1  0.4975620000000  0.4753020000000  0.3901000000000 1.0
C      1  0.4945670000000  0.5216630000000  0.4074770000000 1.0
C      1  0.5789760000000  0.4541030000000  0.4716670000000 1.0
C      1  0.5231590000000  0.4783260000000  0.4070850000000 1.0
C      1  0.4756250000000  0.4910240000000  0.5969590000000 1.0
C      1  0.4444760000000  0.5621340000000  0.4439450000000 1.0
C      1  0.4846600000000  0.3864210000000  0.4724940000000 1.0
C      1  0.3747840000000  0.4738470000000  0.5247500000000 1.0
C      1  0.4160930000000  0.4602720000000  0.4587990000000 1.0
C      1  0.4957560000000  0.5541090000000  0.4573210000000 1.0
C      1  0.6051790000000  0.4989120000000  0.5449020000000 1.0
C      1  0.5108920000000  0.6009050000000  0.4732990000000 1.0
C      1  0.5128710000000  0.6094050000000  0.4442960000000 1.0
C      1  0.5300320000000  0.5282450000000  0.4079930000000 1.0
C      1  0.5286290000000  0.4858540000000  0.4627540000000 1.0
C      1  0.4020390000000  0.4628060000000  0.5288240000000 1.0
C      1  0.5859910000000  0.5739510000000  0.5090640000000 1.0
C      1  0.5458140000000  0.4496490000000  0.5759850000000 1.0
C      1  0.5809060000000  0.5194900000000  0.5840120000000 1.0
C      1  0.5150040000000  0.5030780000000  0.5632110000000 1.0
C      1  0.5871130000000  0.4949850000000  0.5681280000000 1.0
C      1  0.5151840000000  0.4313650000000  0.4035480000000 1.0
C      1  0.4669200000000  0.4571550000000  0.4653940000000 1.0
C      1  0.4057110000000  0.5015210000000  0.4458040000000 1.0
C      1  0.4336090000000  0.4707120000000  0.4141830000000 1.0
C      1  0.4087190000000  0.5433610000000  0.4777530000000 1.0
C      1  0.5037090000000  0.4298930000000  0.4824670000000 1.0
C      1  0.4537090000000  0.5063340000000  0.4583440000000 1.0
C      1  0.5839660000000  0.5561830000000  0.4557830000000 1.0
C      1  0.4125560000000  0.5635690000000  0.4975890000000 1.0
C      1  0.4636270000000  0.4471290000000  0.5137610000000 1.0
C      1  0.5720370000000  0.4073370000000  0.5123100000000 1.0
C      1  0.4120420000000  0.5577600000000  0.5265210000000 1.0
C      1  0.5647460000000  0.4959280000000  0.4181210000000 1.0
C      1  0.5096890000000  0.4540570000000  0.5515970000000 1.0
C      1  0.4427940000000  0.5673850000000  0.5807290000000 1.0
C      1  0.4692440000000  0.6011120000000  0.4524760000000 1.0
C      1  0.4478700000000  0.5998160000000  0.5077500000000 1.0
C      1  0.4817480000000  0.5376880000000  0.5486270000000 1.0
C      1  0.4115630000000  0.5219110000000  0.5616390000000 1.0
C      1  0.5315710000000  0.5563930000000  0.5014960000000 1.0
C      1  0.4755470000000  0.4852260000000  0.4620720000000 1.0
C      1  0.4981390000000  0.4020080000000  0.4950350000000 1.0
C      1  0.4896990000000  0.5963340000000  0.4311350000000 1.0
C      1  0.5418750000000  0.5015020000000  0.4011530000000 1.0
C      1  0.4797940000000  0.5841760000000  0.5533660000000 1.0
C      1  0.5034160000000  0.4765120000000  0.5015000000000 1.0
C      1  0.4836530000000  0.6104190000000  0.4785400000000 1.0
C      1  0.5165210000000  0.5202030000000  0.5198330000000 1.0
C      1  0.4650850000000  0.5716260000000  0.5976370000000 1.0
C      1  0.5698240000000  0.4168330000000  0.5498680000000 1.0
C      1  0.4497640000000  0.5709260000000  0.5071990000000 1.0
C      1  0.5202810000000  0.6049580000000  0.5303580000000 1.0
C      1  0.5568000000000  0.6018070000000  0.4646920000000 1.0
C      1  0.5184590000000  0.5308810000000  0.4451440000000 1.0
C      1  0.4208740000000  0.5187430000000  0.4884830000000 1.0
C      1  0.4540060000000  0.5462470000000  0.4198770000000 1.0
C      1  0.4780140000000  0.4616270000000  0.5550630000000 1.0
C      1  0.5666870000000  0.4703230000000  0.5328530000000 1.0
C      1  0.4438360000000  0.5913790000000  0.4444700000000 1.0
C      1  0.5409800000000  0.5148450000000  0.4597590000000 1.0
C      1  0.4414700000000  0.4441690000000  0.4542030000000 1.0
C      1  0.5456730000000  0.5255180000000  0.4877240000000 1.0
C      1  0.4489410000000  0.5803820000000  0.5548910000000 1.0
C      1  0.4466040000000  0.4453340000000  0.4242380000000 1.0
C      1  0.4858270000000  0.4337700000000  0.4569910000000 1.0
C      1  0.5535050000000  0.5162290000000  0.5918990000000 1.0
C      1  0.4886280000000  0.5749990000000  0.5823910000000 1.0
C      1  0.4898000000000  0.4464380000000  0.3970620000000 1.0
C      1  0.5000330000000  0.5101990000000  0.4349380000000 1.0
C      1  0.4166210000000  0.5491170000000  0.4491390000000 1.0
C      1  0.5011230000000  0.4926190000000  0.4779650000000 1.0
C      1  0.5490590000000  0.4589050000000  0.4806020000000 1.0
C      1  0.5475090000000  0.4520670000000  0.5129360000000 1.0
C      1  0.4090480000000  0.4749520000000  0.4328430000000 1.0
C      1  0.4251410000000  0.4246040000000  0.5138890000000 1.0
C      1  0.5222870000000  0.4569510000000  0.5936040000000 1.0
C      1  0.5314140000000  0.5504190000000  0.5664390000000 1.0
C      1  0.6101260000000  0.5154600000000  0.4681400000000 1.0
C      1  0.5367710000000  0.6099870000000  0.4857270000000 1.0
C      1  0.4977400000000  0.5672530000000  0.4290330000000 1.0
C      1  0.5153840000000  0.4163820000000  0.4293080000000 1.0
C      1  0.4956700000000  0.4486950000000  0.5052200000000 1.0
C      1  0.4569580000000  0.5297500000000  0.4783560000000 1.0
END
