TITL C-3577082-504-398 1.74682207698664e-05 125000 -1228.47373104713 0 0 195 (C1) n - 1
REM
REM in /home/bkarasulu/work/CARBON/AIRSS/Generating-Clusters/EDIP-Nigel-Params/with-SteepDescent/Higher-Symm/SD-CG/HFTN-CG
REM
REM
REM
REM
REM
REM ./C.cell (12c818d87b63d06a65506943cc24bca4)
REM
REM compiler GCC version 9.2.1 20190827 (Red Hat 9.2.1-1)
REM options -cpp -mtune=generic -march=x86-64 -g -O0 -fpre-include=/usr/include/finclude/math-vector-fortran.h
REM seed 299736069 -95261364 -1367941933 1570775475 1208025979 -343515540 617730026 -1352584207 812694699 1654356165 -1426122234 737946097 -891378504 -969366641 1623560792 1857586146 -1451270086 -1562867663 -251143526 -1222348103 2070271415 -1027386987 1538064892 1163786319 764160933 -325660597 -1950840378 228966862 920788075 1403653734 -1853986245 1338590516 -1639366976
REM
CELL 1.54180   50.00000   50.00000   50.00000   90.00000   90.00000   90.00000
LATT -1
SFAC C  
C      1  0.4800850000000  0.4112860000000  0.5665770000000 1.0
C      1  0.4382830000000  0.4077410000000  0.5271350000000 1.0
C      1  0.4434450000000  0.4093460000000  0.4652060000000 1.0
C      1  0.4914810000000  0.4079310000000  0.4321470000000 1.0
C      1  0.5492430000000  0.4075040000000  0.4493720000000 1.0
C      1  0.5662710000000  0.4061480000000  0.5047990000000 1.0
C      1  0.5362790000000  0.4094710000000  0.5556750000000 1.0
C      1  0.5757060000000  0.4119750000000  0.4572990000000 1.0
C      1  0.5766490000000  0.4116460000000  0.5303860000000 1.0
C      1  0.5258210000000  0.4141500000000  0.5812750000000 1.0
C      1  0.4539270000000  0.4239340000000  0.5734860000000 1.0
C      1  0.4200220000000  0.4140620000000  0.5067300000000 1.0
C      1  0.4437260000000  0.4126300000000  0.4372460000000 1.0
C      1  0.5147440000000  0.4144320000000  0.4182780000000 1.0
C      1  0.4346530000000  0.5579110000000  0.4366240000000 1.0
C      1  0.5076280000000  0.5544250000000  0.4075210000000 1.0
C      1  0.5722870000000  0.5504880000000  0.4517240000000 1.0
C      1  0.5893750000000  0.5540040000000  0.5312560000000 1.0
C      1  0.5322560000000  0.5574590000000  0.5936090000000 1.0
C      1  0.4465860000000  0.5629200000000  0.5892810000000 1.0
C      1  0.4073840000000  0.5578620000000  0.5149760000000 1.0
C      1  0.5711110000000  0.4468670000000  0.5711310000000 1.0
C      1  0.4901980000000  0.4479950000000  0.5994300000000 1.0
C      1  0.4126610000000  0.4475330000000  0.5528630000000 1.0
C      1  0.4036780000000  0.4469000000000  0.4658320000000 1.0
C      1  0.4674770000000  0.4458640000000  0.4025450000000 1.0
C      1  0.5549920000000  0.4462060000000  0.4157350000000 1.0
C      1  0.6039280000000  0.4440000000000  0.4886880000000 1.0
C      1  0.6068730000000  0.5365270000000  0.4873240000000 1.0
C      1  0.5771820000000  0.5385030000000  0.5797700000000 1.0
C      1  0.4844120000000  0.5388140000000  0.6095280000000 1.0
C      1  0.4105930000000  0.5398390000000  0.5606340000000 1.0
C      1  0.4004040000000  0.5395570000000  0.4662810000000 1.0
C      1  0.4626800000000  0.5381620000000  0.3990330000000 1.0
C      1  0.5560160000000  0.5370960000000  0.4074840000000 1.0
C      1  0.4252930000000  0.4275090000000  0.4816080000000 1.0
C      1  0.4675800000000  0.4260750000000  0.4279780000000 1.0
C      1  0.5405340000000  0.4218420000000  0.4255310000000 1.0
C      1  0.5782490000000  0.4244610000000  0.4829340000000 1.0
C      1  0.5599600000000  0.4269440000000  0.5483510000000 1.0
C      1  0.5014740000000  0.4294880000000  0.5775900000000 1.0
C      1  0.4379880000000  0.4294480000000  0.5490300000000 1.0
C      1  0.4676730000000  0.5681440000000  0.4708070000000 1.0
C      1  0.4934740000000  0.5580320000000  0.4538760000000 1.0
C      1  0.5228550000000  0.5570790000000  0.4677220000000 1.0
C      1  0.5467460000000  0.5596600000000  0.4990970000000 1.0
C      1  0.5252320000000  0.5672450000000  0.5202200000000 1.0
C      1  0.4713210000000  0.5560050000000  0.5499330000000 1.0
C      1  0.4530410000000  0.5571830000000  0.5273730000000 1.0
C      1  0.4912560000000  0.5335540000000  0.3942220000000 1.0
C      1  0.5766520000000  0.5329650000000  0.4281010000000 1.0
C      1  0.6027110000000  0.5316200000000  0.5162540000000 1.0
C      1  0.5524180000000  0.5356350000000  0.5959200000000 1.0
C      1  0.4564040000000  0.5374280000000  0.6009410000000 1.0
C      1  0.4016760000000  0.5349270000000  0.5330380000000 1.0
C      1  0.4161980000000  0.5347960000000  0.4420470000000 1.0
C      1  0.5975190000000  0.4728120000000  0.4408010000000 1.0
C      1  0.6059060000000  0.4717270000000  0.5382230000000 1.0
C      1  0.5354270000000  0.4764110000000  0.6022610000000 1.0
C      1  0.4401810000000  0.4735450000000  0.5913190000000 1.0
C      1  0.3901510000000  0.4754230000000  0.5105370000000 1.0
C      1  0.4227600000000  0.4732230000000  0.4193190000000 1.0
C      1  0.5156450000000  0.4734010000000  0.3873900000000 1.0
C      1  0.4921740000000  0.5010280000000  0.3941220000000 1.0
C      1  0.5780040000000  0.5005140000000  0.4284920000000 1.0
C      1  0.6026380000000  0.4986900000000  0.5154270000000 1.0
C      1  0.5504940000000  0.5005380000000  0.5869150000000 1.0
C      1  0.4592380000000  0.4999110000000  0.5944150000000 1.0
C      1  0.4023230000000  0.5026900000000  0.5304380000000 1.0
C      1  0.4157050000000  0.5010930000000  0.4411750000000 1.0
C      1  0.4709270000000  0.4663860000000  0.5600420000000 1.0
C      1  0.4331730000000  0.4651700000000  0.5156220000000 1.0
C      1  0.4454950000000  0.4626720000000  0.4562150000000 1.0
C      1  0.4997030000000  0.4639760000000  0.4275270000000 1.0
C      1  0.5581240000000  0.4638270000000  0.4556640000000 1.0
C      1  0.5695440000000  0.4613750000000  0.5131920000000 1.0
C      1  0.5314890000000  0.4673940000000  0.5561720000000 1.0
C      1  0.5408640000000  0.5815420000000  0.4280990000000 1.0
C      1  0.5785270000000  0.5793490000000  0.4881290000000 1.0
C      1  0.5590640000000  0.5796720000000  0.5571750000000 1.0
C      1  0.4926490000000  0.5813300000000  0.5840600000000 1.0
C      1  0.4277280000000  0.5884190000000  0.5512140000000 1.0
C      1  0.4246250000000  0.5835330000000  0.4784140000000 1.0
C      1  0.4695650000000  0.5855560000000  0.4200240000000 1.0
C      1  0.4098710000000  0.5591170000000  0.4857420000000 1.0
C      1  0.4520910000000  0.5617720000000  0.4137160000000 1.0
C      1  0.5364530000000  0.5591520000000  0.4087100000000 1.0
C      1  0.5913830000000  0.5570330000000  0.4729630000000 1.0
C      1  0.5771130000000  0.5570720000000  0.5575460000000 1.0
C      1  0.5031160000000  0.5580990000000  0.5980820000000 1.0
C      1  0.4221990000000  0.5654730000000  0.5712830000000 1.0
C      1  0.5428520000000  0.4703780000000  0.4020330000000 1.0
C      1  0.6025540000000  0.4694960000000  0.4718140000000 1.0
C      1  0.5850810000000  0.4715860000000  0.5613210000000 1.0
C      1  0.5039730000000  0.4740300000000  0.6023890000000 1.0
C      1  0.4211970000000  0.4726670000000  0.5671330000000 1.0
C      1  0.3975500000000  0.4728210000000  0.4804640000000 1.0
C      1  0.4510140000000  0.4712700000000  0.4062860000000 1.0
C      1  0.4997440000000  0.4909430000000  0.5354950000000 1.0
C      1  0.4740190000000  0.4877470000000  0.5197830000000 1.0
C      1  0.4722400000000  0.4863070000000  0.4885700000000 1.0
C      1  0.4904040000000  0.4857380000000  0.4651410000000 1.0
C      1  0.5194590000000  0.4837120000000  0.4645950000000 1.0
C      1  0.5316880000000  0.4820100000000  0.4926120000000 1.0
C      1  0.5193810000000  0.5047030000000  0.5189490000000 1.0
C      1  0.5949440000000  0.5170230000000  0.5773910000000 1.0
C      1  0.4957690000000  0.5172420000000  0.6226620000000 1.0
C      1  0.4079500000000  0.5177890000000  0.5774340000000 1.0
C      1  0.3846020000000  0.5184460000000  0.4750050000000 1.0
C      1  0.4457150000000  0.5170230000000  0.3922900000000 1.0
C      1  0.5523010000000  0.5159590000000  0.3894950000000 1.0
C      1  0.6171240000000  0.5154790000000  0.4720330000000 1.0
C      1  0.5010560000000  0.4378500000000  0.5312920000000 1.0
C      1  0.4737800000000  0.4396210000000  0.5202290000000 1.0
C      1  0.4686700000000  0.4423540000000  0.4928080000000 1.0
C      1  0.4872350000000  0.4400570000000  0.4712750000000 1.0
C      1  0.5160740000000  0.4356520000000  0.4656890000000 1.0
C      1  0.5334000000000  0.4383840000000  0.4887410000000 1.0
C      1  0.5277350000000  0.4371430000000  0.5170180000000 1.0
C      1  0.6131000000000  0.4924480000000  0.4870600000000 1.0
C      1  0.5795090000000  0.4941250000000  0.5795450000000 1.0
C      1  0.4846190000000  0.4944020000000  0.6115670000000 1.0
C      1  0.4047980000000  0.4957540000000  0.5603670000000 1.0
C      1  0.3939890000000  0.4955230000000  0.4623520000000 1.0
C      1  0.4619790000000  0.4942780000000  0.3915570000000 1.0
C      1  0.5612170000000  0.4932540000000  0.4031810000000 1.0
C      1  0.4956600000000  0.5737320000000  0.4270480000000 1.0
C      1  0.5486030000000  0.5700570000000  0.4538930000000 1.0
C      1  0.5793750000000  0.5784260000000  0.5176290000000 1.0
C      1  0.5367530000000  0.5799970000000  0.5750650000000 1.0
C      1  0.4670140000000  0.5761380000000  0.5710810000000 1.0
C      1  0.4300110000000  0.5756230000000  0.5244280000000 1.0
C      1  0.4436340000000  0.5794810000000  0.4563390000000 1.0
C      1  0.4424810000000  0.4527700000000  0.4868730000000 1.0
C      1  0.4732360000000  0.4496630000000  0.4464630000000 1.0
C      1  0.5255770000000  0.4578090000000  0.4466840000000 1.0
C      1  0.5600780000000  0.4490970000000  0.4838660000000 1.0
C      1  0.5481960000000  0.4506060000000  0.5331140000000 1.0
C      1  0.5028550000000  0.4526220000000  0.5569270000000 1.0
C      1  0.4538420000000  0.4524350000000  0.5367400000000 1.0
C      1  0.5360280000000  0.3967520000000  0.5020650000000 1.0
C      1  0.5186280000000  0.3975880000000  0.5332230000000 1.0
C      1  0.4872410000000  0.3973760000000  0.5398130000000 1.0
C      1  0.4654090000000  0.3965150000000  0.5175860000000 1.0
C      1  0.4696810000000  0.4003050000000  0.4794180000000 1.0
C      1  0.4959380000000  0.3980890000000  0.4604530000000 1.0
C      1  0.5275130000000  0.3985060000000  0.4700180000000 1.0
C      1  0.5368890000000  0.5193610000000  0.5394660000000 1.0
C      1  0.4920330000000  0.5095910000000  0.5567060000000 1.0
C      1  0.4534870000000  0.5087730000000  0.5252980000000 1.0
C      1  0.4486600000000  0.5028600000000  0.4791820000000 1.0
C      1  0.4829630000000  0.5048030000000  0.4439260000000 1.0
C      1  0.5339830000000  0.5075990000000  0.4537620000000 1.0
C      1  0.5565540000000  0.5006320000000  0.4955710000000 1.0
C      1  0.4793720000000  0.6131780000000  0.4670190000000 1.0
C      1  0.5093210000000  0.6053510000000  0.4632790000000 1.0
C      1  0.5309070000000  0.6040220000000  0.4854750000000 1.0
C      1  0.5315400000000  0.6053620000000  0.5185420000000 1.0
C      1  0.5061470000000  0.6019020000000  0.5378950000000 1.0
C      1  0.4763000000000  0.6073910000000  0.5323070000000 1.0
C      1  0.4655540000000  0.6058660000000  0.5027510000000 1.0
C      1  0.4563890000000  0.6003730000000  0.5558420000000 1.0
C      1  0.4365280000000  0.5956300000000  0.5027240000000 1.0
C      1  0.4595190000000  0.6027060000000  0.4442970000000 1.0
C      1  0.5149910000000  0.5954730000000  0.4347490000000 1.0
C      1  0.5554290000000  0.5924180000000  0.4729310000000 1.0
C      1  0.5581310000000  0.5940000000000  0.5316890000000 1.0
C      1  0.5124630000000  0.5940760000000  0.5664270000000 1.0
C      1  0.5429680000000  0.4545820000000  0.5819680000000 1.0
C      1  0.4617260000000  0.4510180000000  0.5862480000000 1.0
C      1  0.4058580000000  0.4525090000000  0.5229480000000 1.0
C      1  0.4218200000000  0.4506950000000  0.4403200000000 1.0
C      1  0.4987430000000  0.4506310000000  0.3991110000000 1.0
C      1  0.5817540000000  0.4503120000000  0.4284730000000 1.0
C      1  0.5972800000000  0.4489250000000  0.5191870000000 1.0
C      1  0.5609200000000  0.4943490000000  0.4523560000000 1.0
C      1  0.5736090000000  0.4906630000000  0.5150210000000 1.0
C      1  0.5346950000000  0.4987370000000  0.5613990000000 1.0
C      1  0.4676050000000  0.4966700000000  0.5654320000000 1.0
C      1  0.4290270000000  0.4952220000000  0.5177710000000 1.0
C      1  0.4418630000000  0.4923450000000  0.4539110000000 1.0
C      1  0.4987530000000  0.4939320000000  0.4224810000000 1.0
C      1  0.4942840000000  0.5367360000000  0.5434830000000 1.0
C      1  0.4603540000000  0.5341850000000  0.5101590000000 1.0
C      1  0.4561630000000  0.5315410000000  0.4796420000000 1.0
C      1  0.4834480000000  0.5287620000000  0.4623550000000 1.0
C      1  0.5264700000000  0.5277070000000  0.4758460000000 1.0
C      1  0.5488430000000  0.5289490000000  0.4951290000000 1.0
C      1  0.5232770000000  0.5459560000000  0.5431090000000 1.0
C      1  0.5030680000000  0.5165670000000  0.4938780000000 1.0
C      1  0.4831880000000  0.5834200000000  0.4904090000000 1.0
C      1  0.4983380000000  0.4089700000000  0.5008110000000 1.0
C      1  0.5002090000000  0.5635520000000  0.5050830000000 1.0
C      1  0.5031010000000  0.4671360000000  0.5028080000000 1.0
C      1  0.4898610000000  0.5371000000000  0.5120600000000 1.0
END
