TITL C-3578194-7807-743 -2.33424446075254e-07 125000 -915.006634181975 0 0 145 (C1) n - 1
REM
REM in /home/bkarasulu/work/CARBON/AIRSS/Generating-Clusters/EDIP-Nigel-Params/with-SteepDescent/Higher-Symm/SD-CG/HFTN-CG
REM
REM
REM
REM
REM
REM ./C.cell (12c818d87b63d06a65506943cc24bca4)
REM
REM compiler GCC version 9.2.1 20190827 (Red Hat 9.2.1-1)
REM options -cpp -mtune=generic -march=x86-64 -g -O0 -fpre-include=/usr/include/finclude/math-vector-fortran.h
REM seed 670283163 1401929511 -14381655 1314425264 542529572 1302684924 -226262877 -925161721 636314883 867056426 396656625 -741763934 543647211 -441354902 492504316 -736962883 -1912300555 1539491414 986931132 -2000966590 1495796545 -1419863010 -453903762 -670666490 1834088625 -651513331 -1705140164 -1956593287 -2043328943 -883717210 1232644676 96201001 266877002
REM
CELL 1.54180   50.00000   50.00000   50.00000   90.00000   90.00000   90.00000
LATT -1
SFAC C  
C      1  0.4910290000000  0.4027640000000  0.5592210000000 1.0
C      1  0.5579760000000  0.4020570000000  0.4715370000000 1.0
C      1  0.4517450000000  0.4046820000000  0.4661270000000 1.0
C      1  0.4945140000000  0.5970890000000  0.5605510000000 1.0
C      1  0.5425630000000  0.5927130000000  0.4746940000000 1.0
C      1  0.4504400000000  0.5957020000000  0.4629930000000 1.0
C      1  0.5516770000000  0.5231710000000  0.5662210000000 1.0
C      1  0.5277720000000  0.5241390000000  0.4191940000000 1.0
C      1  0.4129620000000  0.5280400000000  0.5119960000000 1.0
C      1  0.5534650000000  0.4710560000000  0.5650470000000 1.0
C      1  0.5272750000000  0.4760760000000  0.4256990000000 1.0
C      1  0.4130960000000  0.4748990000000  0.5137200000000 1.0
C      1  0.4850780000000  0.4671420000000  0.4043000000000 1.0
C      1  0.4186300000000  0.4700650000000  0.5603460000000 1.0
C      1  0.5944040000000  0.4683690000000  0.5390560000000 1.0
C      1  0.4851220000000  0.5301030000000  0.4011260000000 1.0
C      1  0.4193980000000  0.5331550000000  0.5575440000000 1.0
C      1  0.5903860000000  0.5284540000000  0.5405590000000 1.0
C      1  0.5567730000000  0.4843260000000  0.4233080000000 1.0
C      1  0.3993280000000  0.4847030000000  0.4875200000000 1.0
C      1  0.5367420000000  0.4820050000000  0.5895150000000 1.0
C      1  0.5573380000000  0.5154280000000  0.4185870000000 1.0
C      1  0.3992950000000  0.5181190000000  0.4865280000000 1.0
C      1  0.5364270000000  0.5137310000000  0.5904950000000 1.0
C      1  0.4422270000000  0.5257020000000  0.5971410000000 1.0
C      1  0.6049780000000  0.5303610000000  0.4983560000000 1.0
C      1  0.4467150000000  0.5229990000000  0.4017420000000 1.0
C      1  0.4385870000000  0.4772650000000  0.5936250000000 1.0
C      1  0.6221020000000  0.4836340000000  0.4985120000000 1.0
C      1  0.4466700000000  0.4751310000000  0.4037390000000 1.0
C      1  0.4774010000000  0.5165720000000  0.5284830000000 1.0
C      1  0.5562460000000  0.5148780000000  0.5042930000000 1.0
C      1  0.4735570000000  0.5167090000000  0.4751970000000 1.0
C      1  0.4840580000000  0.4885940000000  0.5257430000000 1.0
C      1  0.5523880000000  0.4861250000000  0.4973310000000 1.0
C      1  0.4738590000000  0.4870400000000  0.4755690000000 1.0
C      1  0.5214140000000  0.4472140000000  0.4249180000000 1.0
C      1  0.4191330000000  0.4457490000000  0.5192280000000 1.0
C      1  0.5565150000000  0.4420810000000  0.5575430000000 1.0
C      1  0.5221170000000  0.5536440000000  0.4176990000000 1.0
C      1  0.4200840000000  0.5568750000000  0.5171480000000 1.0
C      1  0.5538400000000  0.5523880000000  0.5593740000000 1.0
C      1  0.4634180000000  0.5604000000000  0.5492640000000 1.0
C      1  0.5652630000000  0.5602170000000  0.5075580000000 1.0
C      1  0.4760320000000  0.5616110000000  0.4414740000000 1.0
C      1  0.4631410000000  0.4444560000000  0.5529460000000 1.0
C      1  0.5730650000000  0.4394380000000  0.5010990000000 1.0
C      1  0.4774160000000  0.4388900000000  0.4458810000000 1.0
C      1  0.5001030000000  0.4473370000000  0.4880930000000 1.0
C      1  0.4750680000000  0.4480350000000  0.5042600000000 1.0
C      1  0.5233400000000  0.4469750000000  0.5072130000000 1.0
C      1  0.4996100000000  0.5524150000000  0.4778900000000 1.0
C      1  0.4916440000000  0.5520900000000  0.5066090000000 1.0
C      1  0.5186140000000  0.5481200000000  0.5177990000000 1.0
C      1  0.4298330000000  0.4848530000000  0.4476670000000 1.0
C      1  0.4856950000000  0.4831980000000  0.5826320000000 1.0
C      1  0.5854630000000  0.4825660000000  0.4662490000000 1.0
C      1  0.4301810000000  0.5176630000000  0.4462540000000 1.0
C      1  0.4857970000000  0.5153410000000  0.5836470000000 1.0
C      1  0.5773810000000  0.5198690000000  0.4625130000000 1.0
C      1  0.4776140000000  0.4038670000000  0.4787140000000 1.0
C      1  0.4892930000000  0.4083020000000  0.5309020000000 1.0
C      1  0.5381350000000  0.4036380000000  0.4914270000000 1.0
C      1  0.4751510000000  0.5963570000000  0.4771390000000 1.0
C      1  0.4951230000000  0.5954760000000  0.5317360000000 1.0
C      1  0.5305590000000  0.5941390000000  0.5001910000000 1.0
C      1  0.5229030000000  0.4109230000000  0.4576430000000 1.0
C      1  0.4416940000000  0.4061430000000  0.4933290000000 1.0
C      1  0.5200750000000  0.4030810000000  0.5539220000000 1.0
C      1  0.5215030000000  0.5870110000000  0.4538570000000 1.0
C      1  0.4569280000000  0.5881520000000  0.5011700000000 1.0
C      1  0.5236460000000  0.5952100000000  0.5580380000000 1.0
C      1  0.4826280000000  0.4286680000000  0.5728450000000 1.0
C      1  0.5748330000000  0.4259650000000  0.4723800000000 1.0
C      1  0.4473480000000  0.4308930000000  0.4515640000000 1.0
C      1  0.4834150000000  0.5714080000000  0.5716370000000 1.0
C      1  0.5663740000000  0.5742120000000  0.4720290000000 1.0
C      1  0.4466710000000  0.5709550000000  0.4481250000000 1.0
C      1  0.4307420000000  0.5584450000000  0.5451600000000 1.0
C      1  0.5749490000000  0.5540560000000  0.5373280000000 1.0
C      1  0.4923670000000  0.5562060000000  0.4148130000000 1.0
C      1  0.4301970000000  0.4444550000000  0.5476050000000 1.0
C      1  0.5793070000000  0.4424640000000  0.5365020000000 1.0
C      1  0.4925140000000  0.4423550000000  0.4199020000000 1.0
C      1  0.5025830000000  0.4783410000000  0.4767820000000 1.0
C      1  0.4657310000000  0.4763760000000  0.5043760000000 1.0
C      1  0.5316930000000  0.4744590000000  0.5147370000000 1.0
C      1  0.5253270000000  0.5391480000000  0.4654060000000 1.0
C      1  0.4657060000000  0.5278480000000  0.5028670000000 1.0
C      1  0.5295200000000  0.5204400000000  0.5191640000000 1.0
C      1  0.5764780000000  0.4714000000000  0.4936540000000 1.0
C      1  0.4594120000000  0.4730990000000  0.4514180000000 1.0
C      1  0.4704310000000  0.4748430000000  0.5560960000000 1.0
C      1  0.5559500000000  0.5335230000000  0.4806440000000 1.0
C      1  0.4615500000000  0.5293930000000  0.4499330000000 1.0
C      1  0.4694140000000  0.5293130000000  0.5548620000000 1.0
C      1  0.5313140000000  0.4273800000000  0.5641350000000 1.0
C      1  0.5375660000000  0.4307310000000  0.4416470000000 1.0
C      1  0.4262180000000  0.4302630000000  0.4950100000000 1.0
C      1  0.5320190000000  0.5700090000000  0.5688880000000 1.0
C      1  0.5331490000000  0.5611420000000  0.4442440000000 1.0
C      1  0.4338590000000  0.5696020000000  0.4950680000000 1.0
C      1  0.5618440000000  0.4428990000000  0.4520980000000 1.0
C      1  0.4299880000000  0.4462300000000  0.4712080000000 1.0
C      1  0.5092600000000  0.4420150000000  0.5761540000000 1.0
C      1  0.5631070000000  0.5610660000000  0.4448670000000 1.0
C      1  0.4317360000000  0.5559760000000  0.4692730000000 1.0
C      1  0.5085980000000  0.5554680000000  0.5769230000000 1.0
C      1  0.4675430000000  0.5148960000000  0.4213530000000 1.0
C      1  0.4424830000000  0.5185870000000  0.5688570000000 1.0
C      1  0.5875970000000  0.5145730000000  0.5148980000000 1.0
C      1  0.4673710000000  0.4840110000000  0.4226150000000 1.0
C      1  0.4428900000000  0.4874100000000  0.5664620000000 1.0
C      1  0.5966820000000  0.4843620000000  0.5130300000000 1.0
C      1  0.5104680000000  0.4680550000000  0.5892380000000 1.0
C      1  0.5740260000000  0.4680950000000  0.4424450000000 1.0
C      1  0.4118000000000  0.4692290000000  0.4649280000000 1.0
C      1  0.5104250000000  0.5294420000000  0.5909510000000 1.0
C      1  0.5744680000000  0.5333540000000  0.4366520000000 1.0
C      1  0.4118540000000  0.5335910000000  0.4634200000000 1.0
C      1  0.4655830000000  0.5144070000000  0.6068800000000 1.0
C      1  0.6058370000000  0.5208780000000  0.4725280000000 1.0
C      1  0.4231600000000  0.5153530000000  0.4159490000000 1.0
C      1  0.4639060000000  0.4837620000000  0.6056540000000 1.0
C      1  0.6143660000000  0.4921050000000  0.4723440000000 1.0
C      1  0.4230510000000  0.4846820000000  0.4171700000000 1.0
C      1  0.4934740000000  0.5766630000000  0.4630250000000 1.0
C      1  0.4765740000000  0.5746950000000  0.5218480000000 1.0
C      1  0.5377530000000  0.5695490000000  0.5121580000000 1.0
C      1  0.4954090000000  0.4245220000000  0.4671540000000 1.0
C      1  0.4765170000000  0.4338160000000  0.5289320000000 1.0
C      1  0.5446020000000  0.4281970000000  0.5049480000000 1.0
C      1  0.5098640000000  0.5128370000000  0.3984380000000 1.0
C      1  0.4028460000000  0.5168550000000  0.5383290000000 1.0
C      1  0.5797950000000  0.5126670000000  0.5631330000000 1.0
C      1  0.5098980000000  0.4840530000000  0.4026080000000 1.0
C      1  0.4025920000000  0.4862800000000  0.5395150000000 1.0
C      1  0.5809230000000  0.4829180000000  0.5614740000000 1.0
C      1  0.5176860000000  0.5168540000000  0.4467930000000 1.0
C      1  0.4386770000000  0.5151160000000  0.5070140000000 1.0
C      1  0.5339570000000  0.5104160000000  0.5460330000000 1.0
C      1  0.5178160000000  0.4886410000000  0.4521740000000 1.0
C      1  0.4394070000000  0.4873150000000  0.5111940000000 1.0
C      1  0.5364560000000  0.4821200000000  0.5434040000000 1.0
C      1  0.5092560000000  0.4930910000000  0.5064500000000 1.0
END
