TITL C-3577088-510-668 -3.9396643384825e-06 125000 -843.958013628399 0 0 136 (C1) n - 1
REM
REM in /home/bkarasulu/work/CARBON/AIRSS/Generating-Clusters/EDIP-Nigel-Params/with-SteepDescent/Higher-Symm/SD-CG/HFTN-CG
REM
REM
REM
REM
REM
REM ./C.cell (12c818d87b63d06a65506943cc24bca4)
REM
REM compiler GCC version 9.2.1 20190827 (Red Hat 9.2.1-1)
REM options -cpp -mtune=generic -march=x86-64 -g -O0 -fpre-include=/usr/include/finclude/math-vector-fortran.h
REM seed -229879924 113717012 547951758 -810002193 2103533823 2123604505 1460921521 2048613474 -1300683226 699484100 -1617693318 831612966 1309417488 836184800 2046578601 212063331 -30729992 -2115140775 1742831276 1389123111 1749732599 316074772 -855902440 95821840 799864705 -1371779824 -1725684428 560365665 1691005077 -1824414485 2059288971 2119924302 -1736142784
REM
CELL 1.54180   50.00000   50.00000   50.00000   90.00000   90.00000   90.00000
LATT -1
SFAC C  
C      1  0.5378600000000  0.4676780000000  0.5108630000000 1.0
C      1  0.5369190000000  0.4584430000000  0.4825580000000 1.0
C      1  0.5100640000000  0.4698620000000  0.4715200000000 1.0
C      1  0.4891050000000  0.4565430000000  0.4562820000000 1.0
C      1  0.4635110000000  0.4561790000000  0.4703900000000 1.0
C      1  0.4671980000000  0.4648030000000  0.5010190000000 1.0
C      1  0.4719720000000  0.4574440000000  0.5291360000000 1.0
C      1  0.4987710000000  0.4686290000000  0.5365080000000 1.0
C      1  0.5258300000000  0.4563090000000  0.5362010000000 1.0
C      1  0.5652910000000  0.4316950000000  0.4800610000000 1.0
C      1  0.5357000000000  0.4353800000000  0.4448390000000 1.0
C      1  0.4911610000000  0.4258740000000  0.4256620000000 1.0
C      1  0.4457250000000  0.4269230000000  0.4514510000000 1.0
C      1  0.4326550000000  0.4374770000000  0.4964680000000 1.0
C      1  0.4454860000000  0.4259000000000  0.5445140000000 1.0
C      1  0.4876280000000  0.4386360000000  0.5670410000000 1.0
C      1  0.5360450000000  0.4285840000000  0.5620350000000 1.0
C      1  0.5691790000000  0.4275650000000  0.5277880000000 1.0
C      1  0.4818510000000  0.5021730000000  0.4429670000000 1.0
C      1  0.4550850000000  0.5078130000000  0.4540810000000 1.0
C      1  0.4502350000000  0.5078600000000  0.5114400000000 1.0
C      1  0.4531120000000  0.5034970000000  0.5398480000000 1.0
C      1  0.4807310000000  0.5123320000000  0.5477070000000 1.0
C      1  0.5310910000000  0.4994360000000  0.5579490000000 1.0
C      1  0.5516060000000  0.5091060000000  0.5352490000000 1.0
C      1  0.5582720000000  0.5035100000000  0.4875010000000 1.0
C      1  0.5080410000000  0.5146050000000  0.4530910000000 1.0
C      1  0.5345000000000  0.5673590000000  0.5630030000000 1.0
C      1  0.5666940000000  0.5675920000000  0.5263000000000 1.0
C      1  0.5631300000000  0.5636730000000  0.4787240000000 1.0
C      1  0.5347580000000  0.5650730000000  0.4409610000000 1.0
C      1  0.4898840000000  0.5720490000000  0.4261360000000 1.0
C      1  0.4465140000000  0.5713390000000  0.4504820000000 1.0
C      1  0.4360400000000  0.5684010000000  0.4970180000000 1.0
C      1  0.4462060000000  0.5724250000000  0.5455920000000 1.0
C      1  0.4882020000000  0.5714120000000  0.5715030000000 1.0
C      1  0.4944470000000  0.4248190000000  0.5398180000000 1.0
C      1  0.5227740000000  0.4138610000000  0.5386040000000 1.0
C      1  0.5422540000000  0.4200400000000  0.5172290000000 1.0
C      1  0.5411950000000  0.4157340000000  0.4879550000000 1.0
C      1  0.5217600000000  0.4205090000000  0.4658740000000 1.0
C      1  0.4930460000000  0.4174780000000  0.4553240000000 1.0
C      1  0.4658160000000  0.4126390000000  0.4693370000000 1.0
C      1  0.4589410000000  0.4216440000000  0.4970340000000 1.0
C      1  0.4679080000000  0.4165310000000  0.5260720000000 1.0
C      1  0.5573680000000  0.5522010000000  0.5510230000000 1.0
C      1  0.5747500000000  0.5521420000000  0.5025840000000 1.0
C      1  0.5548380000000  0.5492050000000  0.4547520000000 1.0
C      1  0.5130790000000  0.5539210000000  0.4253690000000 1.0
C      1  0.4626020000000  0.5581230000000  0.4290120000000 1.0
C      1  0.4360230000000  0.5522440000000  0.4714360000000 1.0
C      1  0.4327040000000  0.5563290000000  0.5244270000000 1.0
C      1  0.4621510000000  0.5574130000000  0.5663680000000 1.0
C      1  0.5117710000000  0.5536640000000  0.5753120000000 1.0
C      1  0.4196450000000  0.4692880000000  0.5156160000000 1.0
C      1  0.4448190000000  0.4675760000000  0.5720860000000 1.0
C      1  0.4993570000000  0.4724120000000  0.5828640000000 1.0
C      1  0.5685910000000  0.4677910000000  0.5613730000000 1.0
C      1  0.5848300000000  0.4740200000000  0.5160420000000 1.0
C      1  0.5742630000000  0.4710470000000  0.4505430000000 1.0
C      1  0.5147120000000  0.4728290000000  0.4208000000000 1.0
C      1  0.4656000000000  0.4662270000000  0.4128020000000 1.0
C      1  0.4191170000000  0.4702940000000  0.4560730000000 1.0
C      1  0.4639470000000  0.5141770000000  0.3972520000000 1.0
C      1  0.4080080000000  0.5178190000000  0.4431810000000 1.0
C      1  0.3997530000000  0.5147790000000  0.5151790000000 1.0
C      1  0.4288990000000  0.5170960000000  0.5812620000000 1.0
C      1  0.4968700000000  0.5147210000000  0.6061530000000 1.0
C      1  0.5675710000000  0.5135940000000  0.5883100000000 1.0
C      1  0.6026870000000  0.5166700000000  0.5253450000000 1.0
C      1  0.5901900000000  0.5124970000000  0.4528480000000 1.0
C      1  0.5382540000000  0.5134460000000  0.4016420000000 1.0
C      1  0.5158870000000  0.4916710000000  0.3970230000000 1.0
C      1  0.4491280000000  0.4888390000000  0.4041720000000 1.0
C      1  0.4005760000000  0.4931450000000  0.4633560000000 1.0
C      1  0.4044520000000  0.4902450000000  0.5321450000000 1.0
C      1  0.4472650000000  0.4923930000000  0.5922100000000 1.0
C      1  0.5136250000000  0.4900040000000  0.6034630000000 1.0
C      1  0.5815260000000  0.4892610000000  0.5769940000000 1.0
C      1  0.6069360000000  0.4914290000000  0.5104100000000 1.0
C      1  0.5751510000000  0.4873200000000  0.4267920000000 1.0
C      1  0.4638550000000  0.4378520000000  0.4198480000000 1.0
C      1  0.4223850000000  0.4412150000000  0.4664100000000 1.0
C      1  0.4226590000000  0.4383330000000  0.5277350000000 1.0
C      1  0.4560450000000  0.4392080000000  0.5710570000000 1.0
C      1  0.5152390000000  0.4434460000000  0.5813550000000 1.0
C      1  0.5671050000000  0.4369460000000  0.5567520000000 1.0
C      1  0.5847250000000  0.4454670000000  0.5099330000000 1.0
C      1  0.5644160000000  0.4424090000000  0.4516400000000 1.0
C      1  0.5182460000000  0.4421230000000  0.4211650000000 1.0
C      1  0.5081020000000  0.5503380000000  0.4813300000000 1.0
C      1  0.4852360000000  0.5459430000000  0.4585430000000 1.0
C      1  0.4600410000000  0.5328660000000  0.4715220000000 1.0
C      1  0.4670830000000  0.5263580000000  0.4990240000000 1.0
C      1  0.4703780000000  0.5489420000000  0.5173550000000 1.0
C      1  0.4866220000000  0.5406740000000  0.5413980000000 1.0
C      1  0.5133390000000  0.5483630000000  0.5288060000000 1.0
C      1  0.5397810000000  0.5341270000000  0.5210400000000 1.0
C      1  0.5401300000000  0.5285940000000  0.4900520000000 1.0
C      1  0.5403030000000  0.5796620000000  0.4876650000000 1.0
C      1  0.5212770000000  0.5814300000000  0.4622150000000 1.0
C      1  0.4928140000000  0.5886080000000  0.4512780000000 1.0
C      1  0.4673450000000  0.5854340000000  0.4668470000000 1.0
C      1  0.4604470000000  0.5850400000000  0.4966520000000 1.0
C      1  0.4678160000000  0.5862990000000  0.5290340000000 1.0
C      1  0.4931960000000  0.5887630000000  0.5467430000000 1.0
C      1  0.5204100000000  0.5765150000000  0.5372900000000 1.0
C      1  0.5432240000000  0.5847610000000  0.5173330000000 1.0
C      1  0.4716100000000  0.5128290000000  0.5908760000000 1.0
C      1  0.5365110000000  0.5096390000000  0.5866670000000 1.0
C      1  0.5801340000000  0.5136400000000  0.5470500000000 1.0
C      1  0.6004570000000  0.5138450000000  0.4799790000000 1.0
C      1  0.5558520000000  0.5089430000000  0.4250610000000 1.0
C      1  0.4940050000000  0.5133830000000  0.4018430000000 1.0
C      1  0.4360470000000  0.5130210000000  0.4307360000000 1.0
C      1  0.4091420000000  0.5124210000000  0.4868300000000 1.0
C      1  0.4255700000000  0.5123820000000  0.5511200000000 1.0
C      1  0.4862010000000  0.4748870000000  0.4318400000000 1.0
C      1  0.4436030000000  0.4824030000000  0.4677940000000 1.0
C      1  0.4431220000000  0.4827820000000  0.4994350000000 1.0
C      1  0.4521930000000  0.4746310000000  0.5445990000000 1.0
C      1  0.5000920000000  0.4904150000000  0.5559480000000 1.0
C      1  0.5403500000000  0.4717940000000  0.5585240000000 1.0
C      1  0.5583840000000  0.4882860000000  0.5132340000000 1.0
C      1  0.5521610000000  0.4827160000000  0.4668400000000 1.0
C      1  0.5253740000000  0.4883510000000  0.4500500000000 1.0
C      1  0.5181810000000  0.5335660000000  0.5956400000000 1.0
C      1  0.5768360000000  0.5359310000000  0.5680890000000 1.0
C      1  0.5973340000000  0.5336480000000  0.5015630000000 1.0
C      1  0.5701240000000  0.5293070000000  0.4400890000000 1.0
C      1  0.5152810000000  0.5353740000000  0.4028970000000 1.0
C      1  0.4485890000000  0.5356890000000  0.4131690000000 1.0
C      1  0.4106960000000  0.5358010000000  0.4679910000000 1.0
C      1  0.4131380000000  0.5350420000000  0.5339280000000 1.0
C      1  0.4528420000000  0.5359850000000  0.5866090000000 1.0
C      1  0.5125760000000  0.5209980000000  0.4817750000000 1.0
END
