TITL C-3577077-324-46 -7.30685395245106e-07 125000 -780.028701844844 0 0 120 (S10) n - 1
REM
REM in /home/bkarasulu/work/CARBON/AIRSS/Generating-Clusters/EDIP-Nigel-Params/with-SteepDescent/Higher-Symm/SD-CG/HFTN-CG
REM
REM
REM
REM
REM
REM ./C.cell (12c818d87b63d06a65506943cc24bca4)
REM
REM compiler GCC version 9.2.1 20190827 (Red Hat 9.2.1-1)
REM options -cpp -mtune=generic -march=x86-64 -g -O0 -fpre-include=/usr/include/finclude/math-vector-fortran.h
REM seed 541815791 649274709 -454509289 -648017126 -606693214 1240004413 1077065354 -828296895 -389975742 1720785504 1192505615 1082821738 -1549768909 79066402 -994844053 1316954629 -257874078 -1002492554 698521117 476461435 2107762935 -49614437 1900593477 -1477316803 569317735 -805862218 583679523 300030814 1786524599 -1730263100 -1003392863 1391066109 -1902602157
REM
CELL 1.54180   50.00000   50.00000   50.00000   90.00000   90.00000   90.00000
LATT -1
SFAC C  
C      1  0.4223070000000  0.5340060000000  0.4874900000000 1.0
C      1  0.4174810000000  0.4818550000000  0.5145090000000 1.0
C      1  0.4435790000000  0.4368000000000  0.4869040000000 1.0
C      1  0.4918230000000  0.4157200000000  0.5133840000000 1.0
C      1  0.5425950000000  0.4269970000000  0.4856690000000 1.0
C      1  0.5776930000000  0.4659940000000  0.5125100000000 1.0
C      1  0.5825190000000  0.5181450000000  0.4854910000000 1.0
C      1  0.5564210000000  0.5632000000000  0.5130960000000 1.0
C      1  0.5081770000000  0.5842800000000  0.4866160000000 1.0
C      1  0.4574050000000  0.5730030000000  0.5143310000000 1.0
C      1  0.5395270000000  0.5187990000000  0.5872700000000 1.0
C      1  0.5188310000000  0.5383510000000  0.4122130000000 1.0
C      1  0.4947930000000  0.5421880000000  0.5878920000000 1.0
C      1  0.4688930000000  0.5309760000000  0.4127950000000 1.0
C      1  0.4587260000000  0.5068670000000  0.5882110000000 1.0
C      1  0.4604730000000  0.4812010000000  0.4127300000000 1.0
C      1  0.4811690000000  0.4616490000000  0.5877870000000 1.0
C      1  0.5052070000000  0.4578120000000  0.4121080000000 1.0
C      1  0.5311070000000  0.4690240000000  0.5872050000000 1.0
C      1  0.5412740000000  0.4931330000000  0.4117890000000 1.0
C      1  0.4832630000000  0.4800660000000  0.5360990000000 1.0
C      1  0.4973150000000  0.4739970000000  0.4639820000000 1.0
C      1  0.5139710000000  0.4774240000000  0.5357180000000 1.0
C      1  0.5237120000000  0.4899110000000  0.4637150000000 1.0
C      1  0.5259750000000  0.5058140000000  0.5356670000000 1.0
C      1  0.5167370000000  0.5199340000000  0.4639010000000 1.0
C      1  0.5026850000000  0.5260030000000  0.5360180000000 1.0
C      1  0.4860290000000  0.5225760000000  0.4642820000000 1.0
C      1  0.4762880000000  0.5100890000000  0.5362850000000 1.0
C      1  0.4740250000000  0.4941860000000  0.4643330000000 1.0
C      1  0.4543250000000  0.5508330000000  0.5587290000000 1.0
C      1  0.4317820000000  0.5142140000000  0.4428720000000 1.0
C      1  0.4378430000000  0.4714590000000  0.5586630000000 1.0
C      1  0.4650990000000  0.4403120000000  0.4422190000000 1.0
C      1  0.5082330000000  0.4312580000000  0.5576730000000 1.0
C      1  0.5456750000000  0.4491670000000  0.4412710000000 1.0
C      1  0.5682180000000  0.4857860000000  0.5571280000000 1.0
C      1  0.5621570000000  0.5285410000000  0.4413370000000 1.0
C      1  0.5349010000000  0.5596880000000  0.5577810000000 1.0
C      1  0.4917670000000  0.5687420000000  0.4423270000000 1.0
C      1  0.5221600000000  0.5647320000000  0.4474470000000 1.0
C      1  0.4811390000000  0.5654490000000  0.5529510000000 1.0
C      1  0.4450170000000  0.5418050000000  0.4483060000000 1.0
C      1  0.4322020000000  0.5015550000000  0.5533300000000 1.0
C      1  0.4429780000000  0.4613490000000  0.4480610000000 1.0
C      1  0.4778400000000  0.4352680000000  0.5525530000000 1.0
C      1  0.5188610000000  0.4345510000000  0.4470490000000 1.0
C      1  0.5549830000000  0.4581950000000  0.5516940000000 1.0
C      1  0.5677980000000  0.4984450000000  0.4466700000000 1.0
C      1  0.5570220000000  0.5386510000000  0.5519390000000 1.0
C      1  0.5702760000000  0.5149130000000  0.5126680000000 1.0
C      1  0.5477690000000  0.5533600000000  0.4861280000000 1.0
C      1  0.5076070000000  0.5712620000000  0.5136180000000 1.0
C      1  0.4639480000000  0.5621080000000  0.4871760000000 1.0
C      1  0.4346510000000  0.5290670000000  0.5143620000000 1.0
C      1  0.4297240000000  0.4850870000000  0.4873320000000 1.0
C      1  0.4522310000000  0.4466400000000  0.5138720000000 1.0
C      1  0.4923930000000  0.4287380000000  0.4863820000000 1.0
C      1  0.5360520000000  0.4378920000000  0.5128240000000 1.0
C      1  0.5653490000000  0.4709330000000  0.4856380000000 1.0
C      1  0.4772160000000  0.5520340000000  0.3956930000000 1.0
C      1  0.4534910000000  0.5288120000000  0.6054210000000 1.0
C      1  0.4429310000000  0.4958590000000  0.3959200000000 1.0
C      1  0.4587700000000  0.4632140000000  0.6051360000000 1.0
C      1  0.4857560000000  0.4458940000000  0.3952320000000 1.0
C      1  0.5227840000000  0.4479660000000  0.6043070000000 1.0
C      1  0.5465090000000  0.4711880000000  0.3945790000000 1.0
C      1  0.5570690000000  0.5041410000000  0.6040800000000 1.0
C      1  0.5412300000000  0.5367860000000  0.3948640000000 1.0
C      1  0.5142440000000  0.5541060000000  0.6047680000000 1.0
C      1  0.4698850000000  0.4632920000000  0.5591580000000 1.0
C      1  0.4958010000000  0.4525400000000  0.4409760000000 1.0
C      1  0.5259070000000  0.4591980000000  0.5584640000000 1.0
C      1  0.5435310000000  0.4821590000000  0.4404960000000 1.0
C      1  0.5471150000000  0.5112170000000  0.5583810000000 1.0
C      1  0.5301150000000  0.5367080000000  0.4408420000000 1.0
C      1  0.5041990000000  0.5474600000000  0.5590240000000 1.0
C      1  0.4740930000000  0.5408020000000  0.4415360000000 1.0
C      1  0.4564690000000  0.5178410000000  0.5595040000000 1.0
C      1  0.4528850000000  0.4887830000000  0.4416190000000 1.0
C      1  0.5571440000000  0.5178110000000  0.4084910000000 1.0
C      1  0.5379390000000  0.5480960000000  0.5905760000000 1.0
C      1  0.5002510000000  0.5611150000000  0.4093270000000 1.0
C      1  0.4664580000000  0.5496850000000  0.5914500000000 1.0
C      1  0.4414860000000  0.5203820000000  0.4099040000000 1.0
C      1  0.4428560000000  0.4821890000000  0.5915090000000 1.0
C      1  0.4620610000000  0.4519040000000  0.4094240000000 1.0
C      1  0.4997490000000  0.4388850000000  0.5906730000000 1.0
C      1  0.5335420000000  0.4503150000000  0.4085500000000 1.0
C      1  0.5585140000000  0.4796180000000  0.5900960000000 1.0
C      1  0.5806850000000  0.4924280000000  0.4713090000000 1.0
C      1  0.5703900000000  0.5413320000000  0.5269700000000 1.0
C      1  0.5319930000000  0.5747850000000  0.4721770000000 1.0
C      1  0.4825920000000  0.5793370000000  0.5281640000000 1.0
C      1  0.4386240000000  0.5539210000000  0.4732410000000 1.0
C      1  0.4193150000000  0.5075720000000  0.5286910000000 1.0
C      1  0.4296100000000  0.4586680000000  0.4730300000000 1.0
C      1  0.4680070000000  0.4252150000000  0.5278230000000 1.0
C      1  0.5174080000000  0.4206630000000  0.4718360000000 1.0
C      1  0.5613760000000  0.4460790000000  0.5267590000000 1.0
C      1  0.4661000000000  0.4261030000000  0.4703860000000 1.0
C      1  0.5167190000000  0.4203220000000  0.5293060000000 1.0
C      1  0.5596440000000  0.4453370000000  0.4693150000000 1.0
C      1  0.5810950000000  0.4908700000000  0.5287620000000 1.0
C      1  0.5702630000000  0.5402520000000  0.4695050000000 1.0
C      1  0.5339000000000  0.5738970000000  0.5296140000000 1.0
C      1  0.4832810000000  0.5796780000000  0.4706940000000 1.0
C      1  0.4403560000000  0.5546630000000  0.5306850000000 1.0
C      1  0.4189050000000  0.5091300000000  0.4712380000000 1.0
C      1  0.4297370000000  0.4597480000000  0.5304950000000 1.0
C      1  0.5210000000000  0.4641560000000  0.5079530000000 1.0
C      1  0.5378580000000  0.4833380000000  0.4911560000000 1.0
C      1  0.5406210000000  0.5087830000000  0.5078650000000 1.0
C      1  0.5275020000000  0.5309750000000  0.4914420000000 1.0
C      1  0.5042450000000  0.5412340000000  0.5084160000000 1.0
C      1  0.4790000000000  0.5358440000000  0.4920470000000 1.0
C      1  0.4621420000000  0.5166620000000  0.5088440000000 1.0
C      1  0.4593790000000  0.4912170000000  0.4921350000000 1.0
C      1  0.4724980000000  0.4690250000000  0.5085580000000 1.0
C      1  0.4957550000000  0.4587660000000  0.4915840000000 1.0
END
