TITL C-3577084-3642-92 6.0432571423829e-08 125000 -237.651286636219 0 0 40 (C4) n - 1
REM
REM in /home/bkarasulu/work/CARBON/AIRSS/Generating-Clusters/EDIP-Nigel-Params/with-SteepDescent/Higher-Symm/SD-CG/HFTN-CG
REM
REM
REM
REM
REM
REM ./C.cell (12c818d87b63d06a65506943cc24bca4)
REM
REM compiler GCC version 9.2.1 20190827 (Red Hat 9.2.1-1)
REM options -cpp -mtune=generic -march=x86-64 -g -O0 -fpre-include=/usr/include/finclude/math-vector-fortran.h
REM seed -669691761 -1189353840 2106317361 -1119046981 -1374579229 1024921878 -1146422668 39448621 57224769 367423355 1981413735 1863786871 1388892429 941808850 -328081386 1135250250 -235510008 743466479 -1191811519 2077096445 26248805 1959189911 1981497114 -943755708 -1504430330 1174710747 1293876248 721570889 -1606494559 1082040861 1954277964 1668571855 1296938445
REM
CELL 1.54180   50.00000   50.00000   50.00000   90.00000   90.00000   90.00000
LATT -1
SFAC C  
C      1  0.4779080000000  0.4722220000000  0.5319350000000 1.0
C      1  0.4722190000000  0.5220900000000  0.5319330000000 1.0
C      1  0.5220860000000  0.5277790000000  0.5319370000000 1.0
C      1  0.5277760000000  0.4779120000000  0.5319390000000 1.0
C      1  0.4779140000000  0.5277780000000  0.4680610000000 1.0
C      1  0.4722240000000  0.4779100000000  0.4680620000000 1.0
C      1  0.5220920000000  0.4722210000000  0.4680670000000 1.0
C      1  0.5277810000000  0.5220880000000  0.4680660000000 1.0
C      1  0.5086620000000  0.5532610000000  0.5335300000000 1.0
C      1  0.5532570000000  0.4913360000000  0.5335350000000 1.0
C      1  0.4913320000000  0.4467410000000  0.5335310000000 1.0
C      1  0.4467370000000  0.5086660000000  0.5335250000000 1.0
C      1  0.5086680000000  0.4467390000000  0.4664720000000 1.0
C      1  0.5532630000000  0.5086640000000  0.4664750000000 1.0
C      1  0.4913380000000  0.5532590000000  0.4664680000000 1.0
C      1  0.4467430000000  0.4913340000000  0.4664650000000 1.0
C      1  0.4508970000000  0.4791290000000  0.5368610000000 1.0
C      1  0.4791250000000  0.5491000000000  0.5368620000000 1.0
C      1  0.5490960000000  0.5208730000000  0.5368690000000 1.0
C      1  0.5208680000000  0.4509010000000  0.5368680000000 1.0
C      1  0.4509040000000  0.5208710000000  0.4631300000000 1.0
C      1  0.4791320000000  0.4509000000000  0.4631340000000 1.0
C      1  0.5491030000000  0.4791270000000  0.4631400000000 1.0
C      1  0.5208750000000  0.5490990000000  0.4631360000000 1.0
C      1  0.5128060000000  0.4327550000000  0.4924310000000 1.0
C      1  0.4327560000000  0.4871940000000  0.4924220000000 1.0
C      1  0.4871950000000  0.5672450000000  0.4924250000000 1.0
C      1  0.5672460000000  0.5128050000000  0.4924340000000 1.0
C      1  0.5128050000000  0.5672450000000  0.5075720000000 1.0
C      1  0.4327540000000  0.5128060000000  0.5075660000000 1.0
C      1  0.4871940000000  0.4327550000000  0.5075730000000 1.0
C      1  0.5672440000000  0.4871950000000  0.5075790000000 1.0
C      1  0.4659750000000  0.5534850000000  0.5089220000000 1.0
C      1  0.5534840000000  0.5340240000000  0.5089300000000 1.0
C      1  0.5340230000000  0.4465150000000  0.5089300000000 1.0
C      1  0.4465140000000  0.4659760000000  0.5089220000000 1.0
C      1  0.4659770000000  0.4465150000000  0.4910720000000 1.0
C      1  0.5534860000000  0.4659760000000  0.4910800000000 1.0
C      1  0.5340250000000  0.5534850000000  0.4910760000000 1.0
C      1  0.4465160000000  0.5340240000000  0.4910680000000 1.0
END
