TITL C-3577082-504-118 3.92881386163058e-07 125000 -970.914096251447 0 0 157 (C1) n - 1
REM
REM in /home/bkarasulu/work/CARBON/AIRSS/Generating-Clusters/EDIP-Nigel-Params/with-SteepDescent/Higher-Symm/SD-CG/HFTN-CG
REM
REM
REM
REM
REM
REM ./C.cell (12c818d87b63d06a65506943cc24bca4)
REM
REM compiler GCC version 9.2.1 20190827 (Red Hat 9.2.1-1)
REM options -cpp -mtune=generic -march=x86-64 -g -O0 -fpre-include=/usr/include/finclude/math-vector-fortran.h
REM seed -1581704087 1640283007 -1770073394 1699851831 -1880729727 -1839184640 398674056 1422375765 659051800 -155770189 2007513542 -492961537 370594770 1618804709 787365651 -524380264 1754468137 -351074739 1550847149 1100400558 355948190 666858467 -2064406511 1020729552 -2130532417 -449200985 -178541100 1021025911 -16806669 2005160263 344803205 540891458 1858771994
REM
CELL 1.54180   50.00000   50.00000   50.00000   90.00000   90.00000   90.00000
LATT -1
SFAC C  
C      1  0.4423180000000  0.5147400000000  0.4577490000000 1.0
C      1  0.4391890000000  0.4774650000000  0.5018770000000 1.0
C      1  0.4384000000000  0.5234550000000  0.5269730000000 1.0
C      1  0.4757930000000  0.5156060000000  0.5870010000000 1.0
C      1  0.4649970000000  0.5751430000000  0.4335910000000 1.0
C      1  0.4725250000000  0.4043500000000  0.4726440000000 1.0
C      1  0.5038960000000  0.5793270000000  0.5394500000000 1.0
C      1  0.5037890000000  0.4957020000000  0.4025030000000 1.0
C      1  0.5066320000000  0.4168130000000  0.5484640000000 1.0
C      1  0.4405940000000  0.4277680000000  0.5188540000000 1.0
C      1  0.4306630000000  0.5525270000000  0.5574530000000 1.0
C      1  0.4233540000000  0.5277860000000  0.4214380000000 1.0
C      1  0.4986410000000  0.5481990000000  0.4084160000000 1.0
C      1  0.5058000000000  0.3870130000000  0.5072940000000 1.0
C      1  0.5002840000000  0.5562130000000  0.5903640000000 1.0
C      1  0.4850130000000  0.5151340000000  0.5323110000000 1.0
C      1  0.4913740000000  0.5223860000000  0.4718380000000 1.0
C      1  0.4867760000000  0.4680920000000  0.4972090000000 1.0
C      1  0.4385790000000  0.4562320000000  0.5853500000000 1.0
C      1  0.4254510000000  0.6015770000000  0.4878460000000 1.0
C      1  0.4375110000000  0.4490390000000  0.4241970000000 1.0
C      1  0.4603060000000  0.5893760000000  0.5720960000000 1.0
C      1  0.4624950000000  0.5141230000000  0.3877260000000 1.0
C      1  0.4638380000000  0.3973470000000  0.5478780000000 1.0
C      1  0.4782460000000  0.3955690000000  0.5004040000000 1.0
C      1  0.4745570000000  0.5450870000000  0.5877570000000 1.0
C      1  0.4714110000000  0.5523550000000  0.4168690000000 1.0
C      1  0.5676800000000  0.5865130000000  0.5190790000000 1.0
C      1  0.5646590000000  0.4689770000000  0.4094520000000 1.0
C      1  0.5643630000000  0.4433850000000  0.5665440000000 1.0
C      1  0.4940400000000  0.4480040000000  0.4768520000000 1.0
C      1  0.4575350000000  0.5030500000000  0.5405170000000 1.0
C      1  0.4610590000000  0.5351770000000  0.4730410000000 1.0
C      1  0.4131970000000  0.5392440000000  0.4478270000000 1.0
C      1  0.4276450000000  0.4416820000000  0.4965170000000 1.0
C      1  0.4155650000000  0.5257240000000  0.5585330000000 1.0
C      1  0.5182710000000  0.5243260000000  0.4864790000000 1.0
C      1  0.5112910000000  0.4838310000000  0.5028480000000 1.0
C      1  0.5081510000000  0.4969760000000  0.5273870000000 1.0
C      1  0.5352000000000  0.4650400000000  0.5536530000000 1.0
C      1  0.5201860000000  0.5482500000000  0.5047400000000 1.0
C      1  0.5286360000000  0.4738560000000  0.4528370000000 1.0
C      1  0.4627620000000  0.6027200000000  0.5477210000000 1.0
C      1  0.4615310000000  0.4843610000000  0.3931770000000 1.0
C      1  0.4645130000000  0.4138750000000  0.5707640000000 1.0
C      1  0.4539350000000  0.5371780000000  0.5024790000000 1.0
C      1  0.4585370000000  0.4862950000000  0.4573660000000 1.0
C      1  0.4479870000000  0.4752940000000  0.5301720000000 1.0
C      1  0.4143180000000  0.5619830000000  0.5085730000000 1.0
C      1  0.4077280000000  0.4823810000000  0.4424380000000 1.0
C      1  0.4222810000000  0.4656220000000  0.5449400000000 1.0
C      1  0.4957160000000  0.6057440000000  0.5279810000000 1.0
C      1  0.4882880000000  0.4693590000000  0.4048940000000 1.0
C      1  0.4899140000000  0.4307050000000  0.5699310000000 1.0
C      1  0.5943610000000  0.5390390000000  0.5289520000000 1.0
C      1  0.5988200000000  0.5023010000000  0.4376350000000 1.0
C      1  0.6020000000000  0.4504280000000  0.5272770000000 1.0
C      1  0.4175160000000  0.4757130000000  0.5737420000000 1.0
C      1  0.4115320000000  0.5769840000000  0.4844800000000 1.0
C      1  0.4248480000000  0.4595920000000  0.4471630000000 1.0
C      1  0.4515650000000  0.5951340000000  0.4788390000000 1.0
C      1  0.4622650000000  0.4395850000000  0.4344900000000 1.0
C      1  0.4617500000000  0.4715390000000  0.5761020000000 1.0
C      1  0.5262800000000  0.5566470000000  0.5796290000000 1.0
C      1  0.5252440000000  0.5376860000000  0.4125920000000 1.0
C      1  0.5331130000000  0.3980680000000  0.5107590000000 1.0
C      1  0.5497010000000  0.4706240000000  0.4749280000000 1.0
C      1  0.5516010000000  0.4897510000000  0.5448780000000 1.0
C      1  0.5484900000000  0.5553190000000  0.4800320000000 1.0
C      1  0.4387440000000  0.4294950000000  0.5710830000000 1.0
C      1  0.4580150000000  0.5808290000000  0.5282280000000 1.0
C      1  0.4481910000000  0.4916860000000  0.4204500000000 1.0
C      1  0.4965670000000  0.4292720000000  0.5214940000000 1.0
C      1  0.4796020000000  0.5611380000000  0.5378620000000 1.0
C      1  0.4832810000000  0.5103940000000  0.4208440000000 1.0
C      1  0.4488840000000  0.5741750000000  0.4579680000000 1.0
C      1  0.4579080000000  0.4275880000000  0.4613370000000 1.0
C      1  0.4553230000000  0.5001730000000  0.5711910000000 1.0
C      1  0.5931960000000  0.4765530000000  0.5312230000000 1.0
C      1  0.5921660000000  0.5248590000000  0.5050910000000 1.0
C      1  0.5899390000000  0.4904250000000  0.4614210000000 1.0
C      1  0.4964430000000  0.5727490000000  0.4925510000000 1.0
C      1  0.5042890000000  0.4558470000000  0.4502210000000 1.0
C      1  0.5073350000000  0.4753720000000  0.5663060000000 1.0
C      1  0.5405500000000  0.4294570000000  0.4378980000000 1.0
C      1  0.5388700000000  0.4730140000000  0.5995310000000 1.0
C      1  0.5411010000000  0.5848380000000  0.4735910000000 1.0
C      1  0.5151810000000  0.5937760000000  0.4859070000000 1.0
C      1  0.5123160000000  0.4339160000000  0.4310760000000 1.0
C      1  0.5104920000000  0.4665790000000  0.5952430000000 1.0
C      1  0.5668130000000  0.5279540000000  0.5684550000000 1.0
C      1  0.5676010000000  0.5404630000000  0.4382920000000 1.0
C      1  0.5720540000000  0.4290260000000  0.4928930000000 1.0
C      1  0.5289800000000  0.5076370000000  0.4152240000000 1.0
C      1  0.5358180000000  0.4136760000000  0.5362990000000 1.0
C      1  0.5300490000000  0.5669040000000  0.5514520000000 1.0
C      1  0.5315010000000  0.4248260000000  0.5968940000000 1.0
C      1  0.5443490000000  0.6169840000000  0.5131340000000 1.0
C      1  0.5354940000000  0.4493340000000  0.3932350000000 1.0
C      1  0.4826690000000  0.4584470000000  0.5588120000000 1.0
C      1  0.4713200000000  0.5902800000000  0.5015710000000 1.0
C      1  0.4794360000000  0.4648040000000  0.4355150000000 1.0
C      1  0.5702420000000  0.5061120000000  0.5026120000000 1.0
C      1  0.5635640000000  0.4985560000000  0.4751010000000 1.0
C      1  0.5660620000000  0.4826020000000  0.5197560000000 1.0
C      1  0.4280520000000  0.4366170000000  0.5439270000000 1.0
C      1  0.4306160000000  0.5670170000000  0.5313930000000 1.0
C      1  0.4190140000000  0.4978120000000  0.4209190000000 1.0
C      1  0.5488860000000  0.4114410000000  0.4885720000000 1.0
C      1  0.5422270000000  0.5325090000000  0.5846090000000 1.0
C      1  0.5406480000000  0.5499810000000  0.4334920000000 1.0
C      1  0.5555250000000  0.4399640000000  0.4127630000000 1.0
C      1  0.5493510000000  0.4460580000000  0.5909370000000 1.0
C      1  0.5603170000000  0.6011000000000  0.4942150000000 1.0
C      1  0.4542510000000  0.5617150000000  0.5738940000000 1.0
C      1  0.4502050000000  0.5340000000000  0.4068230000000 1.0
C      1  0.4595590000000  0.4052470000000  0.5212980000000 1.0
C      1  0.4793110000000  0.5396020000000  0.5160940000000 1.0
C      1  0.4956230000000  0.5068940000000  0.4478680000000 1.0
C      1  0.4754310000000  0.4538040000000  0.5267880000000 1.0
C      1  0.5369240000000  0.4675750000000  0.5035820000000 1.0
C      1  0.5326410000000  0.5097420000000  0.5350950000000 1.0
C      1  0.5405650000000  0.5199230000000  0.4657280000000 1.0
C      1  0.5280220000000  0.5093950000000  0.5954230000000 1.0
C      1  0.5312010000000  0.5754210000000  0.4446670000000 1.0
C      1  0.5391940000000  0.4078890000000  0.4598480000000 1.0
C      1  0.5241620000000  0.5020360000000  0.4451570000000 1.0
C      1  0.5292610000000  0.4482240000000  0.5278390000000 1.0
C      1  0.5265120000000  0.5399910000000  0.5353480000000 1.0
C      1  0.4111500000000  0.5125750000000  0.5222140000000 1.0
C      1  0.4174700000000  0.5115730000000  0.4744590000000 1.0
C      1  0.4166210000000  0.4968360000000  0.4988640000000 1.0
C      1  0.4263180000000  0.5049720000000  0.5772230000000 1.0
C      1  0.4210100000000  0.5660320000000  0.4578990000000 1.0
C      1  0.4326200000000  0.4398300000000  0.4684850000000 1.0
C      1  0.4891890000000  0.5605560000000  0.4664130000000 1.0
C      1  0.5073760000000  0.4265920000000  0.4887220000000 1.0
C      1  0.4997170000000  0.5317560000000  0.5542410000000 1.0
C      1  0.5089640000000  0.4453340000000  0.4034400000000 1.0
C      1  0.5061520000000  0.4369220000000  0.5950930000000 1.0
C      1  0.5163480000000  0.6138640000000  0.5070270000000 1.0
C      1  0.5976390000000  0.4640920000000  0.4674230000000 1.0
C      1  0.5988140000000  0.4915830000000  0.5544250000000 1.0
C      1  0.5956280000000  0.5388580000000  0.4812560000000 1.0
C      1  0.5732270000000  0.4506680000000  0.4718950000000 1.0
C      1  0.5731560000000  0.4992370000000  0.5639000000000 1.0
C      1  0.5742790000000  0.5484520000000  0.4658340000000 1.0
C      1  0.5020370000000  0.5751040000000  0.4435100000000 1.0
C      1  0.5107610000000  0.4044010000000  0.4679230000000 1.0
C      1  0.5041100000000  0.5069610000000  0.5772260000000 1.0
C      1  0.5587570000000  0.5702710000000  0.5415660000000 1.0
C      1  0.5575990000000  0.4976850000000  0.4108370000000 1.0
C      1  0.5633850000000  0.4255470000000  0.5436160000000 1.0
C      1  0.5787570000000  0.4359380000000  0.5209860000000 1.0
C      1  0.5754280000000  0.5472370000000  0.5477430000000 1.0
C      1  0.5760220000000  0.5143810000000  0.4268600000000 1.0
C      1  0.4636190000000  0.4834050000000  0.4865250000000 1.0
END
