TITL C-3578201-9217-155 -3.45450780833733e-06 125000 -651.564889669234 0 0 104 (C1) n - 1
REM
REM in /home/bkarasulu/work/CARBON/AIRSS/Generating-Clusters/EDIP-Nigel-Params/with-SteepDescent/Higher-Symm/SD-CG/HFTN-CG
REM
REM
REM
REM
REM
REM ./C.cell (12c818d87b63d06a65506943cc24bca4)
REM
REM compiler GCC version 9.2.1 20190827 (Red Hat 9.2.1-1)
REM options -cpp -mtune=generic -march=x86-64 -g -O0 -fpre-include=/usr/include/finclude/math-vector-fortran.h
REM seed 108566456 -1370716340 -1366785567 571880147 -1194024536 1225509361 1507539392 -1155275987 -2041568097 59989348 1079091485 -179414167 1297613059 1381727133 654538202 -606220392 -1504477159 -1623909731 -1883005152 1934243076 -513052861 -44396979 -2147403378 1080199421 -858399466 121415777 1123338657 585424214 1726883041 -615051642 -634830312 1562807729 -1957082123
REM
CELL 1.54180   50.00000   50.00000   50.00000   90.00000   90.00000   90.00000
LATT -1
SFAC C  
C      1  0.4304350000000  0.5679190000000  0.4715880000000 1.0
C      1  0.4393300000000  0.4445220000000  0.5208120000000 1.0
C      1  0.5614920000000  0.4391330000000  0.4777100000000 1.0
C      1  0.5663640000000  0.5689820000000  0.5258550000000 1.0
C      1  0.5401350000000  0.5297650000000  0.5833500000000 1.0
C      1  0.5338410000000  0.4697760000000  0.4144860000000 1.0
C      1  0.4668580000000  0.4707690000000  0.5844930000000 1.0
C      1  0.4657750000000  0.5317830000000  0.4153200000000 1.0
C      1  0.4946280000000  0.4506550000000  0.5150400000000 1.0
C      1  0.4904450000000  0.5435600000000  0.4903900000000 1.0
C      1  0.5043060000000  0.5478540000000  0.5186380000000 1.0
C      1  0.5085780000000  0.4504010000000  0.4854390000000 1.0
C      1  0.4528190000000  0.4455420000000  0.5457250000000 1.0
C      1  0.4504480000000  0.5577500000000  0.4532530000000 1.0
C      1  0.5461090000000  0.5537910000000  0.5412710000000 1.0
C      1  0.5465090000000  0.4429240000000  0.4537370000000 1.0
C      1  0.4638530000000  0.5728520000000  0.5098760000000 1.0
C      1  0.4657910000000  0.4159060000000  0.4868750000000 1.0
C      1  0.5336530000000  0.4137170000000  0.5127590000000 1.0
C      1  0.5301410000000  0.5771680000000  0.4894720000000 1.0
C      1  0.4446030000000  0.4360610000000  0.4940460000000 1.0
C      1  0.4344280000000  0.5750650000000  0.5001230000000 1.0
C      1  0.5585660000000  0.5768770000000  0.4979270000000 1.0
C      1  0.5571800000000  0.4311950000000  0.5049770000000 1.0
C      1  0.5171790000000  0.5750620000000  0.5781680000000 1.0
C      1  0.5124790000000  0.4271140000000  0.4232930000000 1.0
C      1  0.4864670000000  0.4274340000000  0.5761370000000 1.0
C      1  0.4849890000000  0.5694790000000  0.4206240000000 1.0
C      1  0.5074150000000  0.5522180000000  0.4195290000000 1.0
C      1  0.5083850000000  0.4450790000000  0.5789600000000 1.0
C      1  0.4922100000000  0.4467920000000  0.4218640000000 1.0
C      1  0.4980710000000  0.5546650000000  0.5805310000000 1.0
C      1  0.5120720000000  0.5339720000000  0.4635500000000 1.0
C      1  0.5131220000000  0.4647160000000  0.5367780000000 1.0
C      1  0.4899830000000  0.4658890000000  0.4648480000000 1.0
C      1  0.4875810000000  0.5335260000000  0.5407670000000 1.0
C      1  0.5622070000000  0.4885560000000  0.4513070000000 1.0
C      1  0.5609080000000  0.5063410000000  0.5447380000000 1.0
C      1  0.4398920000000  0.5088460000000  0.4492250000000 1.0
C      1  0.4377570000000  0.4932430000000  0.5485230000000 1.0
C      1  0.4919260000000  0.5795740000000  0.4657140000000 1.0
C      1  0.4914760000000  0.4224800000000  0.5286310000000 1.0
C      1  0.5086260000000  0.4219270000000  0.4710970000000 1.0
C      1  0.5041750000000  0.5760730000000  0.5308170000000 1.0
C      1  0.5734740000000  0.4818120000000  0.4762270000000 1.0
C      1  0.5683050000000  0.5068650000000  0.5162020000000 1.0
C      1  0.4259720000000  0.5089510000000  0.4747220000000 1.0
C      1  0.4294920000000  0.4950310000000  0.5194470000000 1.0
C      1  0.5201150000000  0.4186860000000  0.5385240000000 1.0
C      1  0.5212310000000  0.5778530000000  0.4613150000000 1.0
C      1  0.4736910000000  0.5775250000000  0.5395160000000 1.0
C      1  0.4798440000000  0.4202710000000  0.4615040000000 1.0
C      1  0.4719660000000  0.5759070000000  0.4447500000000 1.0
C      1  0.4724940000000  0.4248050000000  0.5518000000000 1.0
C      1  0.5268390000000  0.4227470000000  0.4471900000000 1.0
C      1  0.5257150000000  0.5742050000000  0.5516370000000 1.0
C      1  0.4604300000000  0.5346580000000  0.5027440000000 1.0
C      1  0.4694120000000  0.4677070000000  0.5115480000000 1.0
C      1  0.5356980000000  0.4661220000000  0.4897810000000 1.0
C      1  0.5324700000000  0.5359080000000  0.5200060000000 1.0
C      1  0.4824800000000  0.4961520000000  0.5174360000000 1.0
C      1  0.4884830000000  0.5048190000000  0.4875500000000 1.0
C      1  0.5205700000000  0.5044770000000  0.5171800000000 1.0
C      1  0.5208790000000  0.4962250000000  0.4851530000000 1.0
C      1  0.5269790000000  0.4439560000000  0.5537940000000 1.0
C      1  0.5251620000000  0.5532460000000  0.4442680000000 1.0
C      1  0.4754780000000  0.5537880000000  0.5592920000000 1.0
C      1  0.4751650000000  0.4464950000000  0.4471900000000 1.0
C      1  0.4841110000000  0.5874920000000  0.4922990000000 1.0
C      1  0.4854980000000  0.4032010000000  0.5063650000000 1.0
C      1  0.5133600000000  0.4021440000000  0.4932350000000 1.0
C      1  0.5101390000000  0.5907160000000  0.5059830000000 1.0
C      1  0.4661780000000  0.5188070000000  0.5267050000000 1.0
C      1  0.4682780000000  0.4789020000000  0.4804120000000 1.0
C      1  0.5351560000000  0.4781440000000  0.5226030000000 1.0
C      1  0.5385850000000  0.5184000000000  0.4736340000000 1.0
C      1  0.5515730000000  0.5403940000000  0.4408050000000 1.0
C      1  0.5569470000000  0.4540350000000  0.5516880000000 1.0
C      1  0.4467690000000  0.4584570000000  0.4476330000000 1.0
C      1  0.4505920000000  0.5419340000000  0.5676920000000 1.0
C      1  0.5612030000000  0.4812990000000  0.5574390000000 1.0
C      1  0.5628670000000  0.5149790000000  0.4407710000000 1.0
C      1  0.4398550000000  0.5178220000000  0.5619010000000 1.0
C      1  0.4423870000000  0.4839130000000  0.4367050000000 1.0
C      1  0.5042660000000  0.5143790000000  0.5568240000000 1.0
C      1  0.5030920000000  0.4857080000000  0.4460110000000 1.0
C      1  0.5001210000000  0.4847750000000  0.5561340000000 1.0
C      1  0.4973770000000  0.5145140000000  0.4454670000000 1.0
C      1  0.4492160000000  0.4691980000000  0.5621370000000 1.0
C      1  0.4464460000000  0.5341590000000  0.4360300000000 1.0
C      1  0.5551620000000  0.5314680000000  0.5594050000000 1.0
C      1  0.5512330000000  0.4660220000000  0.4365490000000 1.0
C      1  0.4163400000000  0.5515710000000  0.5035300000000 1.0
C      1  0.4353500000000  0.4577490000000  0.4756770000000 1.0
C      1  0.5665390000000  0.4543100000000  0.5217300000000 1.0
C      1  0.5723880000000  0.5518290000000  0.4920150000000 1.0
C      1  0.5547200000000  0.5287960000000  0.4985310000000 1.0
C      1  0.5746900000000  0.4807360000000  0.5044660000000 1.0
C      1  0.4258720000000  0.4837570000000  0.4904570000000 1.0
C      1  0.4314230000000  0.5262660000000  0.5000690000000 1.0
C      1  0.5118240000000  0.5280110000000  0.5815970000000 1.0
C      1  0.5060960000000  0.4729810000000  0.4198250000000 1.0
C      1  0.4953030000000  0.4718240000000  0.5816730000000 1.0
C      1  0.4934920000000  0.5261390000000  0.4189670000000 1.0
END
