TITL C-3577085-527-398 1.84116889872551e-07 125000 -865.941312693074 0 0 137 (C1) n - 1
REM
REM in /home/bkarasulu/work/CARBON/AIRSS/Generating-Clusters/EDIP-Nigel-Params/with-SteepDescent/Higher-Symm/SD-CG/HFTN-CG
REM
REM
REM
REM
REM
REM ./C.cell (12c818d87b63d06a65506943cc24bca4)
REM
REM compiler GCC version 9.2.1 20190827 (Red Hat 9.2.1-1)
REM options -cpp -mtune=generic -march=x86-64 -g -O0 -fpre-include=/usr/include/finclude/math-vector-fortran.h
REM seed 605640370 1463874489 -825511621 477052253 2099011408 -993998927 -1615963588 228099442 1116787647 -1911037681 937461866 1417205377 34140377 408556053 -254337073 1589678682 2018380457 -807106962 -421105879 -1110821104 -688558295 192444854 131339263 1686624489 -1221755606 -2011193523 -1700731819 -594356587 1298340778 199103312 -222440479 -1551278422 -1934554472
REM
CELL 1.54180   50.00000   50.00000   50.00000   90.00000   90.00000   90.00000
LATT -1
SFAC C  
C      1  0.5249290000000  0.5324040000000  0.5717390000000 1.0
C      1  0.5477830000000  0.5280470000000  0.4419610000000 1.0
C      1  0.4253900000000  0.5298870000000  0.4885430000000 1.0
C      1  0.5278440000000  0.4679570000000  0.5711310000000 1.0
C      1  0.5503220000000  0.4653770000000  0.4418340000000 1.0
C      1  0.4222770000000  0.4672750000000  0.4867580000000 1.0
C      1  0.5914630000000  0.4620090000000  0.4652830000000 1.0
C      1  0.4313040000000  0.4594420000000  0.4426880000000 1.0
C      1  0.4881200000000  0.4594150000000  0.5899820000000 1.0
C      1  0.5829840000000  0.5357370000000  0.4683870000000 1.0
C      1  0.4331800000000  0.5363580000000  0.4448170000000 1.0
C      1  0.4831360000000  0.5350020000000  0.5948010000000 1.0
C      1  0.5332510000000  0.5119300000000  0.4224870000000 1.0
C      1  0.4133210000000  0.5125620000000  0.5103540000000 1.0
C      1  0.5503990000000  0.5166600000000  0.5687320000000 1.0
C      1  0.5332060000000  0.4825000000000  0.4236300000000 1.0
C      1  0.4119740000000  0.4829480000000  0.5100040000000 1.0
C      1  0.5514210000000  0.4866350000000  0.5693440000000 1.0
C      1  0.4905650000000  0.4667820000000  0.4494540000000 1.0
C      1  0.4574230000000  0.4370880000000  0.5358180000000 1.0
C      1  0.5397210000000  0.4304670000000  0.4996870000000 1.0
C      1  0.4912220000000  0.5575800000000  0.4486400000000 1.0
C      1  0.4769690000000  0.5674040000000  0.5355990000000 1.0
C      1  0.5484670000000  0.5616990000000  0.5174300000000 1.0
C      1  0.5062320000000  0.4698020000000  0.4218560000000 1.0
C      1  0.4160980000000  0.4682430000000  0.5355480000000 1.0
C      1  0.5728290000000  0.4727380000000  0.5557300000000 1.0
C      1  0.5106200000000  0.5271530000000  0.4122190000000 1.0
C      1  0.4127470000000  0.5266840000000  0.5359980000000 1.0
C      1  0.5707700000000  0.5320810000000  0.5542540000000 1.0
C      1  0.4703320000000  0.4824350000000  0.5804620000000 1.0
C      1  0.5844420000000  0.4817740000000  0.4875020000000 1.0
C      1  0.4478160000000  0.4807720000000  0.4302200000000 1.0
C      1  0.4659440000000  0.5180850000000  0.5778470000000 1.0
C      1  0.5816730000000  0.5172270000000  0.4911060000000 1.0
C      1  0.4511060000000  0.5163090000000  0.4324940000000 1.0
C      1  0.4451550000000  0.4426050000000  0.5782680000000 1.0
C      1  0.5840700000000  0.4435980000000  0.5189000000000 1.0
C      1  0.4753550000000  0.4389210000000  0.4136400000000 1.0
C      1  0.4386330000000  0.5563260000000  0.5643390000000 1.0
C      1  0.5926160000000  0.5593500000000  0.5148010000000 1.0
C      1  0.4663570000000  0.5574480000000  0.4117870000000 1.0
C      1  0.4202380000000  0.5119030000000  0.5601520000000 1.0
C      1  0.5898120000000  0.5168510000000  0.5382740000000 1.0
C      1  0.4867340000000  0.5129030000000  0.4057610000000 1.0
C      1  0.4270600000000  0.4837640000000  0.5576390000000 1.0
C      1  0.5878540000000  0.4877780000000  0.5365250000000 1.0
C      1  0.4877170000000  0.4838050000000  0.4031100000000 1.0
C      1  0.4708970000000  0.4868310000000  0.5069980000000 1.0
C      1  0.5201430000000  0.4867240000000  0.5199720000000 1.0
C      1  0.4997230000000  0.4845580000000  0.4975730000000 1.0
C      1  0.4660820000000  0.5136360000000  0.5165370000000 1.0
C      1  0.5290950000000  0.5140100000000  0.5229780000000 1.0
C      1  0.5037070000000  0.5065070000000  0.4733890000000 1.0
C      1  0.5314780000000  0.5597870000000  0.5766930000000 1.0
C      1  0.5486990000000  0.5549170000000  0.4321870000000 1.0
C      1  0.4192240000000  0.5577120000000  0.4937060000000 1.0
C      1  0.5352680000000  0.4399240000000  0.5719930000000 1.0
C      1  0.5469750000000  0.4378210000000  0.4338720000000 1.0
C      1  0.4141190000000  0.4401020000000  0.4897860000000 1.0
C      1  0.4715710000000  0.5555560000000  0.4879400000000 1.0
C      1  0.5039480000000  0.5571540000000  0.5283150000000 1.0
C      1  0.5263290000000  0.5544440000000  0.4802710000000 1.0
C      1  0.4686770000000  0.4437790000000  0.4874840000000 1.0
C      1  0.5010640000000  0.4435990000000  0.5319620000000 1.0
C      1  0.5212760000000  0.4434640000000  0.4794750000000 1.0
C      1  0.4668540000000  0.5685990000000  0.4392160000000 1.0
C      1  0.4661410000000  0.5670980000000  0.5628860000000 1.0
C      1  0.5694100000000  0.5696520000000  0.5000230000000 1.0
C      1  0.4775600000000  0.4394950000000  0.4444060000000 1.0
C      1  0.4647460000000  0.4300290000000  0.5623070000000 1.0
C      1  0.5697230000000  0.4311110000000  0.4962570000000 1.0
C      1  0.5269770000000  0.5777850000000  0.5314440000000 1.0
C      1  0.5146740000000  0.5734790000000  0.4584920000000 1.0
C      1  0.4613480000000  0.5749750000000  0.5108480000000 1.0
C      1  0.5262810000000  0.4240840000000  0.5264870000000 1.0
C      1  0.5072610000000  0.4240960000000  0.4572790000000 1.0
C      1  0.4569710000000  0.4235730000000  0.5077170000000 1.0
C      1  0.4254740000000  0.4238190000000  0.5084110000000 1.0
C      1  0.5461590000000  0.4285720000000  0.5491420000000 1.0
C      1  0.5225000000000  0.4247720000000  0.4309630000000 1.0
C      1  0.4317930000000  0.5700730000000  0.5150820000000 1.0
C      1  0.5428900000000  0.5767890000000  0.5585030000000 1.0
C      1  0.5285380000000  0.5730340000000  0.4308270000000 1.0
C      1  0.5205760000000  0.3913100000000  0.4923690000000 1.0
C      1  0.4775760000000  0.3914180000000  0.4794290000000 1.0
C      1  0.4892360000000  0.3917290000000  0.5252240000000 1.0
C      1  0.5255150000000  0.6070940000000  0.4912060000000 1.0
C      1  0.4811400000000  0.6046720000000  0.4775440000000 1.0
C      1  0.4917250000000  0.6108330000000  0.5213570000000 1.0
C      1  0.5671900000000  0.4474850000000  0.5420750000000 1.0
C      1  0.5067250000000  0.4404500000000  0.4108420000000 1.0
C      1  0.4262390000000  0.4396990000000  0.5351180000000 1.0
C      1  0.5664600000000  0.5605820000000  0.5433800000000 1.0
C      1  0.5041180000000  0.5558740000000  0.4190950000000 1.0
C      1  0.4258950000000  0.5529500000000  0.5380630000000 1.0
C      1  0.5968850000000  0.5304130000000  0.5136590000000 1.0
C      1  0.4622080000000  0.5284320000000  0.4080240000000 1.0
C      1  0.4377690000000  0.5289760000000  0.5769010000000 1.0
C      1  0.5957270000000  0.4709190000000  0.5133970000000 1.0
C      1  0.4633670000000  0.4672670000000  0.4068160000000 1.0
C      1  0.4427100000000  0.4708000000000  0.5786210000000 1.0
C      1  0.5190710000000  0.6043710000000  0.5183680000000 1.0
C      1  0.5080140000000  0.6004940000000  0.4702780000000 1.0
C      1  0.4711040000000  0.6027660000000  0.5037150000000 1.0
C      1  0.5163010000000  0.3962980000000  0.5200110000000 1.0
C      1  0.5034600000000  0.3969910000000  0.4705380000000 1.0
C      1  0.4696340000000  0.3966970000000  0.5057890000000 1.0
C      1  0.4492650000000  0.4392840000000  0.4549050000000 1.0
C      1  0.4908680000000  0.4388180000000  0.5689200000000 1.0
C      1  0.5820360000000  0.4363370000000  0.4714300000000 1.0
C      1  0.4476470000000  0.5580390000000  0.4574450000000 1.0
C      1  0.4825550000000  0.5610430000000  0.5849280000000 1.0
C      1  0.5645430000000  0.5573120000000  0.4746550000000 1.0
C      1  0.4809510000000  0.5155870000000  0.5443250000000 1.0
C      1  0.5467760000000  0.5130530000000  0.4958000000000 1.0
C      1  0.4746240000000  0.5125690000000  0.4636110000000 1.0
C      1  0.4836070000000  0.4868120000000  0.5528190000000 1.0
C      1  0.5529340000000  0.4834830000000  0.4900870000000 1.0
C      1  0.4663820000000  0.4830600000000  0.4573650000000 1.0
C      1  0.5370630000000  0.4683700000000  0.4693750000000 1.0
C      1  0.4547340000000  0.4716170000000  0.4853700000000 1.0
C      1  0.5087140000000  0.4722760000000  0.5447540000000 1.0
C      1  0.5301910000000  0.5246720000000  0.4717690000000 1.0
C      1  0.4587510000000  0.5267640000000  0.4892270000000 1.0
C      1  0.5097500000000  0.5296110000000  0.5422410000000 1.0
C      1  0.5131760000000  0.4719880000000  0.5965460000000 1.0
C      1  0.5799090000000  0.4719060000000  0.4409810000000 1.0
C      1  0.4118810000000  0.4728890000000  0.4598580000000 1.0
C      1  0.5093850000000  0.5236130000000  0.5956960000000 1.0
C      1  0.5765400000000  0.5223270000000  0.4438620000000 1.0
C      1  0.4140310000000  0.5240260000000  0.4617960000000 1.0
C      1  0.4059670000000  0.4989680000000  0.4538130000000 1.0
C      1  0.5874110000000  0.4979980000000  0.4373950000000 1.0
C      1  0.5108770000000  0.4978810000000  0.6054070000000 1.0
C      1  0.4977160000000  0.4526160000000  0.4974530000000 1.0
C      1  0.5012670000000  0.5522150000000  0.4984910000000 1.0
END
