TITL C-3577088-510-465 -2.36326137021669e-06 125000 -1046.94760214884 0 0 166 (C1) n - 1
REM
REM in /home/bkarasulu/work/CARBON/AIRSS/Generating-Clusters/EDIP-Nigel-Params/with-SteepDescent/Higher-Symm/SD-CG/HFTN-CG
REM
REM
REM
REM
REM
REM ./C.cell (12c818d87b63d06a65506943cc24bca4)
REM
REM compiler GCC version 9.2.1 20190827 (Red Hat 9.2.1-1)
REM options -cpp -mtune=generic -march=x86-64 -g -O0 -fpre-include=/usr/include/finclude/math-vector-fortran.h
REM seed 318334933 2054039180 -1656852306 -1073927412 -989173761 1123690043 -2022470545 680988476 982834710 897946144 1843042979 -619560834 -593480158 493557299 -290680160 294917429 -1747103015 -1660966072 1914214842 521050858 -370680667 -206140789 -339984843 2143123172 1039274350 -725666791 760339253 219698189 1916547629 -1864080481 -1417700514 1058944650 1714820700
REM
CELL 1.54180   50.00000   50.00000   50.00000   90.00000   90.00000   90.00000
LATT -1
SFAC C  
C      1  0.4038400000000  0.5280310000000  0.5261370000000 1.0
C      1  0.5262840000000  0.5264420000000  0.4048200000000 1.0
C      1  0.5709750000000  0.5293570000000  0.5715560000000 1.0
C      1  0.4043970000000  0.5272320000000  0.4745380000000 1.0
C      1  0.5258080000000  0.5274890000000  0.5961510000000 1.0
C      1  0.5705210000000  0.5252230000000  0.4304090000000 1.0
C      1  0.5232490000000  0.5205790000000  0.4335880000000 1.0
C      1  0.5479640000000  0.5251340000000  0.5538880000000 1.0
C      1  0.4304380000000  0.5235830000000  0.5146110000000 1.0
C      1  0.5220910000000  0.5208980000000  0.5666430000000 1.0
C      1  0.5480180000000  0.5166460000000  0.4490140000000 1.0
C      1  0.4317800000000  0.5199820000000  0.4858460000000 1.0
C      1  0.4875400000000  0.4507930000000  0.4440990000000 1.0
C      1  0.5562690000000  0.4580270000000  0.5135610000000 1.0
C      1  0.4568660000000  0.4526040000000  0.5389030000000 1.0
C      1  0.4687300000000  0.4513930000000  0.5658090000000 1.0
C      1  0.5674500000000  0.4585790000000  0.4849100000000 1.0
C      1  0.4584450000000  0.4507680000000  0.4405840000000 1.0
C      1  0.5668450000000  0.5623990000000  0.4703730000000 1.0
C      1  0.4917470000000  0.5647140000000  0.5739310000000 1.0
C      1  0.4408130000000  0.5638200000000  0.4570210000000 1.0
C      1  0.5671170000000  0.5648360000000  0.5295500000000 1.0
C      1  0.4932070000000  0.5619610000000  0.4303350000000 1.0
C      1  0.4426680000000  0.5633600000000  0.5426230000000 1.0
C      1  0.5451290000000  0.5061670000000  0.3930790000000 1.0
C      1  0.5705400000000  0.5077070000000  0.5924320000000 1.0
C      1  0.3850020000000  0.5074460000000  0.5149210000000 1.0
C      1  0.5450530000000  0.5074080000000  0.6072490000000 1.0
C      1  0.5709170000000  0.5058540000000  0.4076020000000 1.0
C      1  0.3845900000000  0.5076520000000  0.4853800000000 1.0
C      1  0.4668160000000  0.5544600000000  0.5891020000000 1.0
C      1  0.4406820000000  0.5543010000000  0.4274950000000 1.0
C      1  0.5934810000000  0.5548130000000  0.4851290000000 1.0
C      1  0.4682880000000  0.5537210000000  0.4132170000000 1.0
C      1  0.4404920000000  0.5543560000000  0.5726400000000 1.0
C      1  0.5938210000000  0.5558120000000  0.5163840000000 1.0
C      1  0.5509750000000  0.5365950000000  0.5276780000000 1.0
C      1  0.4518640000000  0.5353600000000  0.5299840000000 1.0
C      1  0.4993740000000  0.5333390000000  0.4440080000000 1.0
C      1  0.5509420000000  0.5348760000000  0.4731950000000 1.0
C      1  0.4520240000000  0.5373630000000  0.4706920000000 1.0
C      1  0.4986120000000  0.5383090000000  0.5570620000000 1.0
C      1  0.5554670000000  0.5879320000000  0.5143290000000 1.0
C      1  0.4621690000000  0.5860770000000  0.5391730000000 1.0
C      1  0.4854700000000  0.5843410000000  0.4495500000000 1.0
C      1  0.5530710000000  0.5851970000000  0.4834950000000 1.0
C      1  0.4583600000000  0.5871260000000  0.4589810000000 1.0
C      1  0.4833970000000  0.5885550000000  0.5587880000000 1.0
C      1  0.4780820000000  0.5158160000000  0.5673700000000 1.0
C      1  0.4531360000000  0.5152060000000  0.4473250000000 1.0
C      1  0.5706420000000  0.5166870000000  0.4872240000000 1.0
C      1  0.4796160000000  0.5122480000000  0.4331000000000 1.0
C      1  0.4523160000000  0.5133350000000  0.5518600000000 1.0
C      1  0.5699470000000  0.5145340000000  0.5166180000000 1.0
C      1  0.5004200000000  0.5334220000000  0.4730120000000 1.0
C      1  0.5248060000000  0.5353300000000  0.5145520000000 1.0
C      1  0.4765780000000  0.5352390000000  0.5142680000000 1.0
C      1  0.5003530000000  0.5406830000000  0.5281410000000 1.0
C      1  0.5250250000000  0.5374330000000  0.4866190000000 1.0
C      1  0.4765840000000  0.5398480000000  0.4863150000000 1.0
C      1  0.5285270000000  0.4432900000000  0.5123950000000 1.0
C      1  0.4776200000000  0.4439520000000  0.5189380000000 1.0
C      1  0.4940440000000  0.4419280000000  0.4724350000000 1.0
C      1  0.5214210000000  0.4490630000000  0.4828580000000 1.0
C      1  0.4714670000000  0.4504500000000  0.4900730000000 1.0
C      1  0.5047250000000  0.4522470000000  0.5300600000000 1.0
C      1  0.5988200000000  0.4829370000000  0.5309480000000 1.0
C      1  0.4194390000000  0.4762780000000  0.5730220000000 1.0
C      1  0.4773080000000  0.4759410000000  0.3940180000000 1.0
C      1  0.6147240000000  0.4763950000000  0.4590150000000 1.0
C      1  0.4121510000000  0.4772990000000  0.4254840000000 1.0
C      1  0.4795510000000  0.4768340000000  0.6131850000000 1.0
C      1  0.5778080000000  0.4837950000000  0.5760630000000 1.0
C      1  0.3940350000000  0.4827440000000  0.5286440000000 1.0
C      1  0.5282210000000  0.4817300000000  0.3935000000000 1.0
C      1  0.5788220000000  0.4808930000000  0.4208640000000 1.0
C      1  0.3927670000000  0.4830990000000  0.4713790000000 1.0
C      1  0.5291990000000  0.4826260000000  0.6061650000000 1.0
C      1  0.3996300000000  0.5551420000000  0.4848230000000 1.0
C      1  0.5637920000000  0.5531210000000  0.4213830000000 1.0
C      1  0.5366880000000  0.5557210000000  0.5955570000000 1.0
C      1  0.3996060000000  0.5559670000000  0.5155220000000 1.0
C      1  0.5636530000000  0.5571480000000  0.5807550000000 1.0
C      1  0.5375230000000  0.5544130000000  0.4061350000000 1.0
C      1  0.5547100000000  0.4707890000000  0.5612540000000 1.0
C      1  0.4179850000000  0.4699290000000  0.5151860000000 1.0
C      1  0.5271310000000  0.4689510000000  0.4209640000000 1.0
C      1  0.5546690000000  0.4695030000000  0.4364430000000 1.0
C      1  0.4187020000000  0.4725020000000  0.4837060000000 1.0
C      1  0.5270980000000  0.4725040000000  0.5771830000000 1.0
C      1  0.5525420000000  0.4863280000000  0.5260260000000 1.0
C      1  0.4498680000000  0.4827780000000  0.5321590000000 1.0
C      1  0.4978780000000  0.4803780000000  0.4400970000000 1.0
C      1  0.5505170000000  0.4862110000000  0.4629000000000 1.0
C      1  0.4426170000000  0.4914230000000  0.4771000000000 1.0
C      1  0.5094670000000  0.4922850000000  0.5607150000000 1.0
C      1  0.4049580000000  0.5220730000000  0.4440020000000 1.0
C      1  0.5967660000000  0.5210200000000  0.4458740000000 1.0
C      1  0.4992270000000  0.5216870000000  0.6107740000000 1.0
C      1  0.4049680000000  0.5213710000000  0.5566870000000 1.0
C      1  0.5973270000000  0.5240180000000  0.5558930000000 1.0
C      1  0.4992970000000  0.5206660000000  0.3901610000000 1.0
C      1  0.5220550000000  0.5887060000000  0.4858270000000 1.0
C      1  0.5015930000000  0.6037110000000  0.5296700000000 1.0
C      1  0.4747210000000  0.6040410000000  0.4878130000000 1.0
C      1  0.5245920000000  0.5939410000000  0.5158340000000 1.0
C      1  0.4990870000000  0.5992450000000  0.4712360000000 1.0
C      1  0.4773170000000  0.5957780000000  0.5155960000000 1.0
C      1  0.5693890000000  0.5700910000000  0.4426110000000 1.0
C      1  0.5150170000000  0.5723060000000  0.5895760000000 1.0
C      1  0.4156440000000  0.5716870000000  0.4691440000000 1.0
C      1  0.5680040000000  0.5730540000000  0.5577230000000 1.0
C      1  0.5165040000000  0.5707020000000  0.4151720000000 1.0
C      1  0.4177590000000  0.5718840000000  0.5299930000000 1.0
C      1  0.4924610000000  0.4340720000000  0.5682960000000 1.0
C      1  0.4438820000000  0.4338390000000  0.4596290000000 1.0
C      1  0.5599600000000  0.4341450000000  0.4687670000000 1.0
C      1  0.4994220000000  0.4328760000000  0.4236030000000 1.0
C      1  0.4328440000000  0.4348200000000  0.5382260000000 1.0
C      1  0.5729530000000  0.4412660000000  0.5315720000000 1.0
C      1  0.5966730000000  0.5271530000000  0.5263130000000 1.0
C      1  0.4310720000000  0.5252650000000  0.5707170000000 1.0
C      1  0.4741280000000  0.5246970000000  0.4056320000000 1.0
C      1  0.5971160000000  0.5256510000000  0.4762130000000 1.0
C      1  0.4311350000000  0.5258810000000  0.4294500000000 1.0
C      1  0.4735490000000  0.5258740000000  0.5955260000000 1.0
C      1  0.3971700000000  0.4930150000000  0.4431240000000 1.0
C      1  0.6009420000000  0.4919280000000  0.4389870000000 1.0
C      1  0.5025270000000  0.4923780000000  0.6168820000000 1.0
C      1  0.4005540000000  0.4915750000000  0.5567840000000 1.0
C      1  0.5985870000000  0.4941220000000  0.5568400000000 1.0
C      1  0.5007750000000  0.4910170000000  0.3853080000000 1.0
C      1  0.4979790000000  0.4893540000000  0.4697740000000 1.0
C      1  0.5260370000000  0.4909200000000  0.5118510000000 1.0
C      1  0.4753780000000  0.4910460000000  0.5166520000000 1.0
C      1  0.5032800000000  0.4831850000000  0.5300980000000 1.0
C      1  0.5242960000000  0.4801780000000  0.4820290000000 1.0
C      1  0.4719520000000  0.4818950000000  0.4876080000000 1.0
C      1  0.4338710000000  0.4882100000000  0.5946500000000 1.0
C      1  0.4514790000000  0.4880590000000  0.3956950000000 1.0
C      1  0.6119400000000  0.4735560000000  0.5081150000000 1.0
C      1  0.4292990000000  0.4710470000000  0.4045780000000 1.0
C      1  0.4526850000000  0.4710180000000  0.6092690000000 1.0
C      1  0.6200440000000  0.4888000000000  0.4844680000000 1.0
C      1  0.5077160000000  0.4075880000000  0.4306700000000 1.0
C      1  0.5635550000000  0.4145470000000  0.5302440000000 1.0
C      1  0.4347880000000  0.4089980000000  0.5277020000000 1.0
C      1  0.4998650000000  0.4171950000000  0.5460320000000 1.0
C      1  0.5381510000000  0.4157060000000  0.4733800000000 1.0
C      1  0.4583620000000  0.4164250000000  0.4775090000000 1.0
C      1  0.5616650000000  0.4423170000000  0.4425570000000 1.0
C      1  0.5145580000000  0.4468650000000  0.5789480000000 1.0
C      1  0.4228690000000  0.4467490000000  0.4720180000000 1.0
C      1  0.5620310000000  0.4424710000000  0.5574480000000 1.0
C      1  0.5240100000000  0.4406060000000  0.4151680000000 1.0
C      1  0.4142340000000  0.4414610000000  0.5192610000000 1.0
C      1  0.5361800000000  0.4152330000000  0.5211300000000 1.0
C      1  0.4589460000000  0.3963680000000  0.5287230000000 1.0
C      1  0.4936080000000  0.3945830000000  0.4500020000000 1.0
C      1  0.5284120000000  0.4012520000000  0.4969190000000 1.0
C      1  0.4818780000000  0.3993010000000  0.4748920000000 1.0
C      1  0.4862200000000  0.4011190000000  0.5259780000000 1.0
C      1  0.4471060000000  0.4526860000000  0.5859680000000 1.0
C      1  0.4521060000000  0.4525990000000  0.4116890000000 1.0
C      1  0.5977360000000  0.4569480000000  0.4869230000000 1.0
C      1  0.4988160000000  0.3973820000000  0.4991580000000 1.0
END
