TITL C-3577082-504-752 -6.71472569673214e-07 125000 -691.460590703455 0 0 110 (C1) n - 1
REM
REM in /home/bkarasulu/work/CARBON/AIRSS/Generating-Clusters/EDIP-Nigel-Params/with-SteepDescent/Higher-Symm/SD-CG/HFTN-CG
REM
REM
REM
REM
REM
REM ./C.cell (12c818d87b63d06a65506943cc24bca4)
REM
REM compiler GCC version 9.2.1 20190827 (Red Hat 9.2.1-1)
REM options -cpp -mtune=generic -march=x86-64 -g -O0 -fpre-include=/usr/include/finclude/math-vector-fortran.h
REM seed 1839416256 1621274383 291280817 684315282 1829482825 -1959579517 1754030592 -1474021685 331842745 -1091614879 1037030600 -1162613905 -355020299 -1487493778 -780863299 2131383624 833275906 247867055 -120569700 1227287084 29096061 1641304837 1336426154 1664273376 -235088788 -1336955261 -140553645 752532424 -1065494194 -1024026544 -2087760554 -1282166598 -932722752
REM
CELL 1.54180   50.00000   50.00000   50.00000   90.00000   90.00000   90.00000
LATT -1
SFAC C  
C      1  0.4983920000000  0.4144000000000  0.4908960000000 1.0
C      1  0.5029970000000  0.4420600000000  0.5668280000000 1.0
C      1  0.4970580000000  0.5280380000000  0.5885440000000 1.0
C      1  0.4995840000000  0.5803820000000  0.5135860000000 1.0
C      1  0.5054850000000  0.5582020000000  0.4181760000000 1.0
C      1  0.4958920000000  0.4586360000000  0.4149210000000 1.0
C      1  0.4992720000000  0.4153000000000  0.5191800000000 1.0
C      1  0.4899550000000  0.4421070000000  0.4381970000000 1.0
C      1  0.5006220000000  0.5311610000000  0.4102100000000 1.0
C      1  0.4978210000000  0.5690700000000  0.4860670000000 1.0
C      1  0.4977330000000  0.5553890000000  0.5788360000000 1.0
C      1  0.5005540000000  0.4602550000000  0.5883760000000 1.0
C      1  0.5241210000000  0.4769720000000  0.5917050000000 1.0
C      1  0.5227790000000  0.5598960000000  0.5659720000000 1.0
C      1  0.5263790000000  0.5760690000000  0.4741650000000 1.0
C      1  0.5241300000000  0.5149760000000  0.4065330000000 1.0
C      1  0.5162790000000  0.4368740000000  0.4513870000000 1.0
C      1  0.5269610000000  0.4188850000000  0.5274790000000 1.0
C      1  0.4732610000000  0.4755710000000  0.4094020000000 1.0
C      1  0.4828530000000  0.5710180000000  0.4301760000000 1.0
C      1  0.4761190000000  0.5767820000000  0.5307910000000 1.0
C      1  0.4704620000000  0.5166030000000  0.5828920000000 1.0
C      1  0.4779150000000  0.4284290000000  0.5604480000000 1.0
C      1  0.4734880000000  0.4072940000000  0.4801120000000 1.0
C      1  0.5644610000000  0.5519550000000  0.5188160000000 1.0
C      1  0.5664290000000  0.5387290000000  0.4584680000000 1.0
C      1  0.5741700000000  0.4857380000000  0.4447090000000 1.0
C      1  0.5846750000000  0.4469950000000  0.4850110000000 1.0
C      1  0.5713770000000  0.4608960000000  0.5395850000000 1.0
C      1  0.5789490000000  0.5137020000000  0.5549620000000 1.0
C      1  0.4190420000000  0.5576320000000  0.4877670000000 1.0
C      1  0.4204860000000  0.5441920000000  0.5352540000000 1.0
C      1  0.4363390000000  0.4896520000000  0.5506200000000 1.0
C      1  0.4239760000000  0.4496810000000  0.5103820000000 1.0
C      1  0.4219780000000  0.4667830000000  0.4563600000000 1.0
C      1  0.4265530000000  0.5181140000000  0.4421160000000 1.0
C      1  0.4721750000000  0.5266980000000  0.4144750000000 1.0
C      1  0.4598300000000  0.4442180000000  0.4415820000000 1.0
C      1  0.4723640000000  0.4218430000000  0.5310340000000 1.0
C      1  0.4726820000000  0.4691690000000  0.5851850000000 1.0
C      1  0.4722060000000  0.5600650000000  0.5653360000000 1.0
C      1  0.4651220000000  0.5738020000000  0.4820020000000 1.0
C      1  0.5237360000000  0.5148660000000  0.5865220000000 1.0
C      1  0.5317260000000  0.4389050000000  0.5604270000000 1.0
C      1  0.5214340000000  0.4261610000000  0.4783990000000 1.0
C      1  0.5236900000000  0.4666860000000  0.4148540000000 1.0
C      1  0.5334080000000  0.5566100000000  0.4279480000000 1.0
C      1  0.5267200000000  0.5784550000000  0.5224070000000 1.0
C      1  0.5378590000000  0.5518160000000  0.4579650000000 1.0
C      1  0.5370010000000  0.4950650000000  0.4364720000000 1.0
C      1  0.5489520000000  0.4603170000000  0.4797280000000 1.0
C      1  0.5406930000000  0.4547970000000  0.5339150000000 1.0
C      1  0.5446300000000  0.4963500000000  0.5591420000000 1.0
C      1  0.5348290000000  0.5500980000000  0.5308160000000 1.0
C      1  0.4694210000000  0.5387200000000  0.5328690000000 1.0
C      1  0.4692650000000  0.4917080000000  0.5654230000000 1.0
C      1  0.4596160000000  0.4509400000000  0.5244260000000 1.0
C      1  0.4416690000000  0.4474300000000  0.4645840000000 1.0
C      1  0.4618600000000  0.5044360000000  0.4319530000000 1.0
C      1  0.4423750000000  0.5587240000000  0.4699180000000 1.0
C      1  0.4400340000000  0.5458280000000  0.4435570000000 1.0
C      1  0.4283430000000  0.4806810000000  0.4315970000000 1.0
C      1  0.4373150000000  0.4346370000000  0.4904230000000 1.0
C      1  0.4433460000000  0.4596100000000  0.5488270000000 1.0
C      1  0.4437760000000  0.5282070000000  0.5465880000000 1.0
C      1  0.4275440000000  0.5663380000000  0.5148600000000 1.0
C      1  0.5623820000000  0.5348080000000  0.5600010000000 1.0
C      1  0.5646900000000  0.4735620000000  0.5662410000000 1.0
C      1  0.5666740000000  0.4355450000000  0.5036320000000 1.0
C      1  0.5591370000000  0.4601350000000  0.4513120000000 1.0
C      1  0.5660600000000  0.5220720000000  0.4339090000000 1.0
C      1  0.5679710000000  0.5728610000000  0.5001210000000 1.0
C      1  0.4792290000000  0.4731800000000  0.5178860000000 1.0
C      1  0.4906730000000  0.4908230000000  0.5402320000000 1.0
C      1  0.4919390000000  0.5197990000000  0.5314070000000 1.0
C      1  0.4769850000000  0.5248020000000  0.4803670000000 1.0
C      1  0.4733000000000  0.5047620000000  0.4605970000000 1.0
C      1  0.4943740000000  0.4863180000000  0.4662640000000 1.0
C      1  0.5354520000000  0.4874500000000  0.4863430000000 1.0
C      1  0.5215580000000  0.5002260000000  0.4633230000000 1.0
C      1  0.5196320000000  0.5299380000000  0.4672650000000 1.0
C      1  0.5014510000000  0.5380030000000  0.4880860000000 1.0
C      1  0.5152890000000  0.5275140000000  0.5152000000000 1.0
C      1  0.5266580000000  0.4840770000000  0.5367460000000 1.0
C      1  0.5772350000000  0.5217760000000  0.4798630000000 1.0
C      1  0.5861450000000  0.4953200000000  0.4707020000000 1.0
C      1  0.5888690000000  0.4744150000000  0.4917170000000 1.0
C      1  0.5834420000000  0.4804230000000  0.5199780000000 1.0
C      1  0.5844990000000  0.5079150000000  0.5280840000000 1.0
C      1  0.5771470000000  0.5278400000000  0.5085770000000 1.0
C      1  0.4092120000000  0.5224890000000  0.5190660000000 1.0
C      1  0.4214900000000  0.4967000000000  0.5247980000000 1.0
C      1  0.4164860000000  0.4764670000000  0.5048700000000 1.0
C      1  0.4134590000000  0.4844250000000  0.4770710000000 1.0
C      1  0.4147360000000  0.5117900000000  0.4690890000000 1.0
C      1  0.4082340000000  0.5307400000000  0.4904460000000 1.0
C      1  0.4622350000000  0.5515210000000  0.4253910000000 1.0
C      1  0.4500830000000  0.4634570000000  0.4212340000000 1.0
C      1  0.4553830000000  0.4148300000000  0.5004990000000 1.0
C      1  0.4575760000000  0.4472990000000  0.5716950000000 1.0
C      1  0.4527600000000  0.5381840000000  0.5731340000000 1.0
C      1  0.4556950000000  0.5737820000000  0.5101080000000 1.0
C      1  0.5383420000000  0.5376370000000  0.5730640000000 1.0
C      1  0.5444700000000  0.4582160000000  0.5810830000000 1.0
C      1  0.5402620000000  0.4248060000000  0.5018690000000 1.0
C      1  0.5363520000000  0.4508600000000  0.4356040000000 1.0
C      1  0.5457140000000  0.5325510000000  0.4149790000000 1.0
C      1  0.5424750000000  0.5842640000000  0.4978600000000 1.0
C      1  0.4892490000000  0.4753430000000  0.4918740000000 1.0
C      1  0.5300640000000  0.5006440000000  0.5122200000000 1.0
END
