TITL C-3577079-311-653 -2.50481848529479e-07 125000 -1095.59482602298 0 0 174 (C1) n - 1
REM
REM in /home/bkarasulu/work/CARBON/AIRSS/Generating-Clusters/EDIP-Nigel-Params/with-SteepDescent/Higher-Symm/SD-CG/HFTN-CG
REM
REM
REM
REM
REM
REM ./C.cell (12c818d87b63d06a65506943cc24bca4)
REM
REM compiler GCC version 9.2.1 20190827 (Red Hat 9.2.1-1)
REM options -cpp -mtune=generic -march=x86-64 -g -O0 -fpre-include=/usr/include/finclude/math-vector-fortran.h
REM seed 1474148334 -2001682358 -1883100007 1115225424 -1881378189 1895135258 -1062216171 -396269156 956064871 1486011031 1545051907 1833642351 -1886706035 -1507829908 -13159919 1287516403 -321501225 -1460126901 975228271 -1570566098 1600415936 224855199 -635651317 -1782316546 -935656178 748981656 -1164508756 -1066404046 -1381018978 -835738147 1448847552 -352216760 1017657994
REM
CELL 1.54180   50.00000   50.00000   50.00000   90.00000   90.00000   90.00000
LATT -1
SFAC C  
C      1  0.5374090000000  0.5232670000000  0.4047890000000 1.0
C      1  0.5330110000000  0.5878150000000  0.4627250000000 1.0
C      1  0.5228300000000  0.5896780000000  0.5445730000000 1.0
C      1  0.5310740000000  0.5234330000000  0.6003800000000 1.0
C      1  0.5360960000000  0.4358330000000  0.5804090000000 1.0
C      1  0.5294500000000  0.4035960000000  0.4998950000000 1.0
C      1  0.5248800000000  0.4365830000000  0.4190970000000 1.0
C      1  0.4111990000000  0.5611510000000  0.4972310000000 1.0
C      1  0.4166410000000  0.5489430000000  0.5442920000000 1.0
C      1  0.4144790000000  0.5026840000000  0.5618730000000 1.0
C      1  0.4111860000000  0.4641980000000  0.5325440000000 1.0
C      1  0.4104040000000  0.4495220000000  0.4880520000000 1.0
C      1  0.4190290000000  0.4770600000000  0.4461450000000 1.0
C      1  0.4161500000000  0.5257820000000  0.4545460000000 1.0
C      1  0.4350690000000  0.4673410000000  0.4935060000000 1.0
C      1  0.4410400000000  0.4852840000000  0.4688890000000 1.0
C      1  0.4343570000000  0.5154920000000  0.4757850000000 1.0
C      1  0.4248250000000  0.5333940000000  0.4993360000000 1.0
C      1  0.4369970000000  0.5337750000000  0.5261590000000 1.0
C      1  0.4374160000000  0.5052760000000  0.5384180000000 1.0
C      1  0.4316500000000  0.4818640000000  0.5194670000000 1.0
C      1  0.5789070000000  0.4902410000000  0.4314990000000 1.0
C      1  0.5771490000000  0.5520260000000  0.4685600000000 1.0
C      1  0.5789950000000  0.5678960000000  0.5208990000000 1.0
C      1  0.5758960000000  0.5411170000000  0.5622460000000 1.0
C      1  0.5770840000000  0.4693110000000  0.5602480000000 1.0
C      1  0.5761200000000  0.4426110000000  0.5133780000000 1.0
C      1  0.5811370000000  0.4407890000000  0.4539850000000 1.0
C      1  0.4274090000000  0.5177260000000  0.4276210000000 1.0
C      1  0.4028410000000  0.5691830000000  0.4715740000000 1.0
C      1  0.4249580000000  0.5781750000000  0.5406370000000 1.0
C      1  0.4287460000000  0.5180070000000  0.5831900000000 1.0
C      1  0.4216980000000  0.4590430000000  0.5596110000000 1.0
C      1  0.4098400000000  0.4378340000000  0.5169150000000 1.0
C      1  0.4169980000000  0.4479100000000  0.4402800000000 1.0
C      1  0.4502030000000  0.4227080000000  0.4648410000000 1.0
C      1  0.4552110000000  0.4804740000000  0.4091100000000 1.0
C      1  0.4592180000000  0.5649720000000  0.4250290000000 1.0
C      1  0.4555290000000  0.5794560000000  0.5024450000000 1.0
C      1  0.4513760000000  0.5600060000000  0.5753490000000 1.0
C      1  0.4588840000000  0.4755360000000  0.5868540000000 1.0
C      1  0.4583360000000  0.4212200000000  0.5389480000000 1.0
C      1  0.4308750000000  0.4401240000000  0.4175110000000 1.0
C      1  0.4553510000000  0.5264630000000  0.4293980000000 1.0
C      1  0.4490290000000  0.5602170000000  0.4556080000000 1.0
C      1  0.4648440000000  0.5499980000000  0.5181010000000 1.0
C      1  0.4628090000000  0.5083020000000  0.5526270000000 1.0
C      1  0.4513300000000  0.4593260000000  0.5625100000000 1.0
C      1  0.4536490000000  0.4451640000000  0.5019890000000 1.0
C      1  0.5458450000000  0.4269280000000  0.5542860000000 1.0
C      1  0.5405380000000  0.4131430000000  0.4754420000000 1.0
C      1  0.5438730000000  0.4568950000000  0.4084190000000 1.0
C      1  0.5461230000000  0.5442710000000  0.4238720000000 1.0
C      1  0.5411000000000  0.5845100000000  0.4904980000000 1.0
C      1  0.5409460000000  0.5749690000000  0.5606320000000 1.0
C      1  0.5433640000000  0.4959850000000  0.5950570000000 1.0
C      1  0.5233470000000  0.4338260000000  0.5107860000000 1.0
C      1  0.5167950000000  0.4473400000000  0.4461520000000 1.0
C      1  0.5249720000000  0.5015350000000  0.4222910000000 1.0
C      1  0.5214650000000  0.5591460000000  0.4594050000000 1.0
C      1  0.5134260000000  0.5667490000000  0.5267070000000 1.0
C      1  0.5215470000000  0.5294280000000  0.5715210000000 1.0
C      1  0.5256010000000  0.4651100000000  0.5630680000000 1.0
C      1  0.4497990000000  0.5838660000000  0.5581150000000 1.0
C      1  0.4580050000000  0.5065360000000  0.5825700000000 1.0
C      1  0.4610350000000  0.4311490000000  0.5660550000000 1.0
C      1  0.4572860000000  0.4092300000000  0.4890190000000 1.0
C      1  0.4548570000000  0.4511770000000  0.4088770000000 1.0
C      1  0.4656280000000  0.5405430000000  0.4038500000000 1.0
C      1  0.4570440000000  0.5846910000000  0.4720090000000 1.0
C      1  0.5050940000000  0.3891470000000  0.4940080000000 1.0
C      1  0.4998090000000  0.4318630000000  0.4060130000000 1.0
C      1  0.5144610000000  0.5303060000000  0.3876950000000 1.0
C      1  0.5097760000000  0.6050200000000  0.4610790000000 1.0
C      1  0.4999030000000  0.6022380000000  0.5566130000000 1.0
C      1  0.5038940000000  0.5203840000000  0.6112740000000 1.0
C      1  0.5123040000000  0.4229750000000  0.5897540000000 1.0
C      1  0.5587550000000  0.5342060000000  0.4512580000000 1.0
C      1  0.5625420000000  0.5628800000000  0.4955610000000 1.0
C      1  0.5664570000000  0.5648140000000  0.5488930000000 1.0
C      1  0.5656070000000  0.4915970000000  0.5765380000000 1.0
C      1  0.5659800000000  0.4459380000000  0.5432010000000 1.0
C      1  0.5666120000000  0.4272170000000  0.4801980000000 1.0
C      1  0.5687080000000  0.4628330000000  0.4254960000000 1.0
C      1  0.5473310000000  0.5364370000000  0.5015300000000 1.0
C      1  0.5417850000000  0.5287140000000  0.5491910000000 1.0
C      1  0.5541400000000  0.5017970000000  0.5412600000000 1.0
C      1  0.5622180000000  0.4673150000000  0.4987760000000 1.0
C      1  0.5624380000000  0.4637570000000  0.4683390000000 1.0
C      1  0.5625360000000  0.5043780000000  0.4503870000000 1.0
C      1  0.5352460000000  0.5339010000000  0.4725280000000 1.0
C      1  0.6162400000000  0.5494290000000  0.4938160000000 1.0
C      1  0.6180600000000  0.5480770000000  0.5418490000000 1.0
C      1  0.6091710000000  0.5046410000000  0.5585810000000 1.0
C      1  0.6153020000000  0.4640610000000  0.5311510000000 1.0
C      1  0.6161690000000  0.4447640000000  0.4870750000000 1.0
C      1  0.6187220000000  0.4704970000000  0.4476530000000 1.0
C      1  0.6105710000000  0.5183640000000  0.4549970000000 1.0
C      1  0.4856040000000  0.5614140000000  0.5396770000000 1.0
C      1  0.5036600000000  0.5057970000000  0.5688940000000 1.0
C      1  0.5016940000000  0.4497560000000  0.5534790000000 1.0
C      1  0.4965680000000  0.4353620000000  0.5007640000000 1.0
C      1  0.4884070000000  0.4606510000000  0.4434310000000 1.0
C      1  0.4991420000000  0.5156050000000  0.4277380000000 1.0
C      1  0.4941560000000  0.5608790000000  0.4680170000000 1.0
C      1  0.6067570000000  0.4945180000000  0.4398780000000 1.0
C      1  0.6036460000000  0.5410850000000  0.4705380000000 1.0
C      1  0.6065720000000  0.5579590000000  0.5185510000000 1.0
C      1  0.6029000000000  0.5318070000000  0.5585450000000 1.0
C      1  0.6027110000000  0.4786090000000  0.5512820000000 1.0
C      1  0.6056340000000  0.4455200000000  0.5126890000000 1.0
C      1  0.6095280000000  0.4475050000000  0.4603130000000 1.0
C      1  0.4887970000000  0.4986710000000  0.5427130000000 1.0
C      1  0.4813390000000  0.4675750000000  0.5384860000000 1.0
C      1  0.4797270000000  0.4581860000000  0.5081240000000 1.0
C      1  0.4734830000000  0.4831680000000  0.4614470000000 1.0
C      1  0.4780400000000  0.5135340000000  0.4494840000000 1.0
C      1  0.4754490000000  0.5374100000000  0.4710780000000 1.0
C      1  0.4789340000000  0.5305160000000  0.5009880000000 1.0
C      1  0.5035190000000  0.4022540000000  0.5449280000000 1.0
C      1  0.4934000000000  0.4065830000000  0.4546280000000 1.0
C      1  0.4993790000000  0.4754760000000  0.3886180000000 1.0
C      1  0.5066260000000  0.5747510000000  0.4153970000000 1.0
C      1  0.4962190000000  0.6041420000000  0.5029780000000 1.0
C      1  0.4963800000000  0.5675640000000  0.5938530000000 1.0
C      1  0.5028960000000  0.4746370000000  0.6074250000000 1.0
C      1  0.3842700000000  0.5160680000000  0.4983150000000 1.0
C      1  0.3902780000000  0.5295450000000  0.5264610000000 1.0
C      1  0.3887640000000  0.5077450000000  0.5461590000000 1.0
C      1  0.3851390000000  0.4810640000000  0.5319030000000 1.0
C      1  0.3871400000000  0.4690770000000  0.4820150000000 1.0
C      1  0.3917450000000  0.4855380000000  0.4577660000000 1.0
C      1  0.3895480000000  0.5144270000000  0.4654470000000 1.0
C      1  0.5185040000000  0.4266890000000  0.5401370000000 1.0
C      1  0.5152790000000  0.4231170000000  0.4626390000000 1.0
C      1  0.5231660000000  0.4782890000000  0.4039600000000 1.0
C      1  0.5198340000000  0.5548020000000  0.4304270000000 1.0
C      1  0.5135400000000  0.5816830000000  0.5018420000000 1.0
C      1  0.5088990000000  0.5571370000000  0.5698330000000 1.0
C      1  0.5176580000000  0.4843480000000  0.5842270000000 1.0
C      1  0.4219760000000  0.4326640000000  0.4641530000000 1.0
C      1  0.4289710000000  0.4902350000000  0.4207720000000 1.0
C      1  0.4192440000000  0.5552020000000  0.4542000000000 1.0
C      1  0.4269570000000  0.5824050000000  0.5114710000000 1.0
C      1  0.4267140000000  0.5450660000000  0.5731300000000 1.0
C      1  0.4103520000000  0.4776040000000  0.5763690000000 1.0
C      1  0.4329960000000  0.4209610000000  0.5240220000000 1.0
C      1  0.5353250000000  0.4668110000000  0.4581320000000 1.0
C      1  0.5351480000000  0.4944490000000  0.4499900000000 1.0
C      1  0.5202090000000  0.5086750000000  0.4705650000000 1.0
C      1  0.5258730000000  0.5377100000000  0.5233730000000 1.0
C      1  0.5016000000000  0.5154950000000  0.5157760000000 1.0
C      1  0.5340290000000  0.4803690000000  0.5374050000000 1.0
C      1  0.5325730000000  0.4690070000000  0.5095370000000 1.0
C      1  0.4720630000000  0.5998890000000  0.5162510000000 1.0
C      1  0.4725890000000  0.5527780000000  0.5942240000000 1.0
C      1  0.4820470000000  0.4605870000000  0.5964950000000 1.0
C      1  0.4792890000000  0.4030960000000  0.5308850000000 1.0
C      1  0.4695680000000  0.4169430000000  0.4431750000000 1.0
C      1  0.4776390000000  0.4929370000000  0.3927880000000 1.0
C      1  0.4827700000000  0.5828930000000  0.4279100000000 1.0
C      1  0.4890080000000  0.4378770000000  0.5784010000000 1.0
C      1  0.4841650000000  0.4081880000000  0.5023830000000 1.0
C      1  0.4775020000000  0.4395360000000  0.4241480000000 1.0
C      1  0.4888310000000  0.5207110000000  0.4004020000000 1.0
C      1  0.4854230000000  0.5876700000000  0.4575090000000 1.0
C      1  0.4761580000000  0.5897660000000  0.5438950000000 1.0
C      1  0.4776520000000  0.5246130000000  0.5995120000000 1.0
C      1  0.4861070000000  0.4802410000000  0.4888820000000 1.0
C      1  0.5773550000000  0.4929370000000  0.4982150000000 1.0
C      1  0.5115860000000  0.4936220000000  0.4953180000000 1.0
C      1  0.5650420000000  0.5133370000000  0.5141010000000 1.0
C      1  0.3778780000000  0.4876340000000  0.5037930000000 1.0
C      1  0.6040040000000  0.4927500000000  0.4977370000000 1.0
END
