TITL C-3578208-4450-205 1.63727507008495e-06 125000 -839.811647591555 0 0 134 (C1) n - 1
REM
REM in /home/bkarasulu/work/CARBON/AIRSS/Generating-Clusters/EDIP-Nigel-Params/with-SteepDescent/Higher-Symm/SD-CG/HFTN-CG
REM
REM
REM
REM
REM
REM ./C.cell (12c818d87b63d06a65506943cc24bca4)
REM
REM compiler GCC version 9.2.1 20190827 (Red Hat 9.2.1-1)
REM options -cpp -mtune=generic -march=x86-64 -g -O0 -fpre-include=/usr/include/finclude/math-vector-fortran.h
REM seed 551937078 968594127 1156217970 -1729421885 -1532253475 338329945 -1679982538 2021353518 440072411 -1989221313 -2116678716 -2027415783 -339372104 -1444551974 -1901496769 1134274511 258348291 -163132324 1455236578 792441086 -1672692408 1421220416 -1059843295 1780549524 1113043992 -1717476096 1876747637 1638897259 1417193901 -1312832599 20563433 -695461871 -1004113304
REM
CELL 1.54180   50.00000   50.00000   50.00000   90.00000   90.00000   90.00000
LATT -1
SFAC C  
C      1  0.5683940000000  0.4891570000000  0.5011680000000 1.0
C      1  0.4560130000000  0.4241070000000  0.4392590000000 1.0
C      1  0.4199370000000  0.4841430000000  0.5254530000000 1.0
C      1  0.4599700000000  0.4728020000000  0.4708010000000 1.0
C      1  0.4645550000000  0.4949050000000  0.5929380000000 1.0
C      1  0.4246360000000  0.4460680000000  0.4744820000000 1.0
C      1  0.4941680000000  0.5575850000000  0.5714660000000 1.0
C      1  0.4775200000000  0.4155850000000  0.5324250000000 1.0
C      1  0.5423160000000  0.4536880000000  0.4795470000000 1.0
C      1  0.5092560000000  0.5951310000000  0.4712140000000 1.0
C      1  0.5200150000000  0.4922430000000  0.6037670000000 1.0
C      1  0.4964440000000  0.5096910000000  0.4996960000000 1.0
C      1  0.4885790000000  0.5554900000000  0.4926180000000 1.0
C      1  0.5175790000000  0.4066170000000  0.5046220000000 1.0
C      1  0.4574970000000  0.5224610000000  0.4742660000000 1.0
C      1  0.4305550000000  0.4897250000000  0.4333130000000 1.0
C      1  0.4884300000000  0.4840180000000  0.5643950000000 1.0
C      1  0.4938030000000  0.4336830000000  0.5494210000000 1.0
C      1  0.5344360000000  0.4471330000000  0.5095520000000 1.0
C      1  0.5651480000000  0.5318780000000  0.5587180000000 1.0
C      1  0.4466050000000  0.4239630000000  0.4971760000000 1.0
C      1  0.5712170000000  0.4480480000000  0.5467590000000 1.0
C      1  0.5429910000000  0.4817630000000  0.4195690000000 1.0
C      1  0.4491670000000  0.4227690000000  0.5283470000000 1.0
C      1  0.6053210000000  0.5121060000000  0.5204870000000 1.0
C      1  0.4970630000000  0.4726940000000  0.4379260000000 1.0
C      1  0.4809140000000  0.4281240000000  0.4595790000000 1.0
C      1  0.4455630000000  0.4538070000000  0.5721640000000 1.0
C      1  0.4107420000000  0.4736850000000  0.4776280000000 1.0
C      1  0.4719300000000  0.4659780000000  0.4210340000000 1.0
C      1  0.4385980000000  0.5396430000000  0.4599650000000 1.0
C      1  0.4820030000000  0.5926070000000  0.4589870000000 1.0
C      1  0.4655430000000  0.4402250000000  0.5860650000000 1.0
C      1  0.4967720000000  0.5027240000000  0.4368200000000 1.0
C      1  0.4877410000000  0.4594630000000  0.4647450000000 1.0
C      1  0.4459140000000  0.5096590000000  0.4179760000000 1.0
C      1  0.5178240000000  0.5312750000000  0.6048220000000 1.0
C      1  0.4491140000000  0.4947540000000  0.5178440000000 1.0
C      1  0.4861740000000  0.5999630000000  0.5165460000000 1.0
C      1  0.5447980000000  0.5076520000000  0.5166620000000 1.0
C      1  0.4337090000000  0.4425670000000  0.4458410000000 1.0
C      1  0.5228680000000  0.4287690000000  0.5478970000000 1.0
C      1  0.5563620000000  0.5415140000000  0.4440640000000 1.0
C      1  0.5286910000000  0.4916590000000  0.5361110000000 1.0
C      1  0.4479240000000  0.5379380000000  0.4306180000000 1.0
C      1  0.4141800000000  0.5391980000000  0.5410600000000 1.0
C      1  0.5568350000000  0.5233170000000  0.4671400000000 1.0
C      1  0.4461670000000  0.4828200000000  0.5750740000000 1.0
C      1  0.5880830000000  0.4651780000000  0.4528480000000 1.0
C      1  0.5860460000000  0.4936770000000  0.4520340000000 1.0
C      1  0.4090050000000  0.5204560000000  0.4950480000000 1.0
C      1  0.5556340000000  0.4844600000000  0.4461740000000 1.0
C      1  0.5357590000000  0.5798090000000  0.5405720000000 1.0
C      1  0.4987590000000  0.4207170000000  0.4288680000000 1.0
C      1  0.4585400000000  0.5320670000000  0.5605850000000 1.0
C      1  0.5281070000000  0.4064000000000  0.4792920000000 1.0
C      1  0.5260310000000  0.4793600000000  0.4713760000000 1.0
C      1  0.5512840000000  0.5665610000000  0.4591580000000 1.0
C      1  0.4165660000000  0.4962560000000  0.4582000000000 1.0
C      1  0.4663920000000  0.5618030000000  0.5617720000000 1.0
C      1  0.4420420000000  0.5843690000000  0.5193200000000 1.0
C      1  0.5790930000000  0.4278750000000  0.5127970000000 1.0
C      1  0.5350680000000  0.5953230000000  0.5153580000000 1.0
C      1  0.5126250000000  0.5781290000000  0.4262780000000 1.0
C      1  0.4741440000000  0.4345360000000  0.4165920000000 1.0
C      1  0.4833350000000  0.5791840000000  0.4319550000000 1.0
C      1  0.4602230000000  0.4656720000000  0.5233530000000 1.0
C      1  0.5853340000000  0.4325320000000  0.4853390000000 1.0
C      1  0.4734450000000  0.5515900000000  0.4257990000000 1.0
C      1  0.4719120000000  0.4128490000000  0.4847160000000 1.0
C      1  0.5308680000000  0.5325910000000  0.4284820000000 1.0
C      1  0.5570690000000  0.4209960000000  0.4457170000000 1.0
C      1  0.4272200000000  0.5661060000000  0.5013830000000 1.0
C      1  0.5497420000000  0.4832370000000  0.5581810000000 1.0
C      1  0.5777400000000  0.4157560000000  0.4639280000000 1.0
C      1  0.5148650000000  0.4469020000000  0.5876530000000 1.0
C      1  0.4052970000000  0.4912720000000  0.5014820000000 1.0
C      1  0.4054850000000  0.4880580000000  0.5494090000000 1.0
C      1  0.5553360000000  0.5336240000000  0.5303440000000 1.0
C      1  0.5247010000000  0.5204760000000  0.4979020000000 1.0
C      1  0.5030910000000  0.4809530000000  0.4941520000000 1.0
C      1  0.4613410000000  0.5994770000000  0.5015320000000 1.0
C      1  0.5538910000000  0.5637370000000  0.4902940000000 1.0
C      1  0.5102930000000  0.5238390000000  0.4520050000000 1.0
C      1  0.4906510000000  0.4311860000000  0.5785510000000 1.0
C      1  0.5624080000000  0.4493510000000  0.5193900000000 1.0
C      1  0.5046470000000  0.5407230000000  0.5470710000000 1.0
C      1  0.4134050000000  0.5247040000000  0.4663260000000 1.0
C      1  0.5257520000000  0.4330270000000  0.4261410000000 1.0
C      1  0.5244530000000  0.5521950000000  0.5008640000000 1.0
C      1  0.4729840000000  0.5204670000000  0.5837670000000 1.0
C      1  0.5380910000000  0.4469710000000  0.5663820000000 1.0
C      1  0.4698760000000  0.5184190000000  0.5337980000000 1.0
C      1  0.4885830000000  0.4626360000000  0.5393730000000 1.0
C      1  0.5096300000000  0.5937100000000  0.5009880000000 1.0
C      1  0.4455680000000  0.4979150000000  0.4846600000000 1.0
C      1  0.5894050000000  0.4889250000000  0.5222770000000 1.0
C      1  0.4680060000000  0.5715440000000  0.5340620000000 1.0
C      1  0.5251040000000  0.5784910000000  0.4529110000000 1.0
C      1  0.4398870000000  0.5663140000000  0.4741030000000 1.0
C      1  0.5320390000000  0.5075020000000  0.4103830000000 1.0
C      1  0.4901610000000  0.4134080000000  0.5067670000000 1.0
C      1  0.5940670000000  0.5269670000000  0.4990660000000 1.0
C      1  0.5738440000000  0.5464850000000  0.5092100000000 1.0
C      1  0.4918170000000  0.5404030000000  0.5957630000000 1.0
C      1  0.5041370000000  0.5077880000000  0.5495990000000 1.0
C      1  0.4165760000000  0.5417010000000  0.5134140000000 1.0
C      1  0.4775130000000  0.5470350000000  0.5199120000000 1.0
C      1  0.5654900000000  0.5574670000000  0.5702090000000 1.0
C      1  0.5031450000000  0.4735660000000  0.5904250000000 1.0
C      1  0.4908470000000  0.5401750000000  0.4056400000000 1.0
C      1  0.4671010000000  0.5784360000000  0.4805060000000 1.0
C      1  0.5139690000000  0.4690540000000  0.5202480000000 1.0
C      1  0.5173310000000  0.5532310000000  0.4109060000000 1.0
C      1  0.5576980000000  0.5909690000000  0.4995460000000 1.0
C      1  0.4686380000000  0.4941110000000  0.4039510000000 1.0
C      1  0.5799620000000  0.5084840000000  0.4788200000000 1.0
C      1  0.5351690000000  0.4287100000000  0.4633530000000 1.0
C      1  0.5801630000000  0.4773750000000  0.5486590000000 1.0
C      1  0.4380920000000  0.4439310000000  0.5457670000000 1.0
C      1  0.4239360000000  0.4994970000000  0.5667550000000 1.0
C      1  0.5306180000000  0.5113580000000  0.4705960000000 1.0
C      1  0.4856310000000  0.5287730000000  0.4780900000000 1.0
C      1  0.5579550000000  0.5802850000000  0.5577520000000 1.0
C      1  0.5536780000000  0.5090980000000  0.5741780000000 1.0
C      1  0.4483610000000  0.4678980000000  0.4415260000000 1.0
C      1  0.5280220000000  0.5125840000000  0.5863980000000 1.0
C      1  0.4570980000000  0.4529870000000  0.4957390000000 1.0
C      1  0.5338480000000  0.4125570000000  0.5269680000000 1.0
C      1  0.5293620000000  0.5521840000000  0.5315270000000 1.0
C      1  0.5209620000000  0.4618820000000  0.4224660000000 1.0
C      1  0.5737790000000  0.4589570000000  0.4778630000000 1.0
C      1  0.4291250000000  0.5276760000000  0.5617540000000 1.0
C      1  0.4950700000000  0.5102660000000  0.4076580000000 1.0
END
