TITL C-3578208-4450-25 -6.60786394081663e-09 125000 -79.6713597190876 0 0 14 (D3h) n - 1
REM
REM in /home/bkarasulu/work/CARBON/AIRSS/Generating-Clusters/EDIP-Nigel-Params/with-SteepDescent/Higher-Symm/SD-CG/HFTN-CG
REM
REM
REM
REM
REM
REM ./C.cell (12c818d87b63d06a65506943cc24bca4)
REM
REM compiler GCC version 9.2.1 20190827 (Red Hat 9.2.1-1)
REM options -cpp -mtune=generic -march=x86-64 -g -O0 -fpre-include=/usr/include/finclude/math-vector-fortran.h
REM seed 960202893 1598014127 -1976087584 625254015 1767142425 -1957548822 1314030331 -1628453589 1079520051 -569473072 181535517 -719164831 1962761270 744230445 -1655184396 416172620 913726870 160308387 407127598 985750848 113897224 1868839374 840007136 404917293 -635291536 -1971129938 2066867840 -613355507 1119192966 1481211455 897433097 420721506 -90931060
REM
CELL 1.54180   50.00000   50.00000   50.00000   90.00000   90.00000   90.00000
LATT -1
SFAC C  
C      1  0.5206600000000  0.5392070000000  0.4830140000000 1.0
C      1  0.5206120000000  0.4625740000000  0.4830820000000 1.0
C      1  0.4542700000000  0.5009320000000  0.4830380000000 1.0
C      1  0.5206080000000  0.4625980000000  0.5096670000000 1.0
C      1  0.5206560000000  0.5392310000000  0.5095980000000 1.0
C      1  0.4542660000000  0.5009560000000  0.5096230000000 1.0
C      1  0.5119880000000  0.4775620000000  0.5299660000000 1.0
C      1  0.4715160000000  0.5009630000000  0.5299390000000 1.0
C      1  0.5120180000000  0.5243130000000  0.5299240000000 1.0
C      1  0.5120280000000  0.5242530000000  0.4627120000000 1.0
C      1  0.4715260000000  0.5009030000000  0.4627270000000 1.0
C      1  0.5119990000000  0.4775020000000  0.4627540000000 1.0
C      1  0.4985180000000  0.5008810000000  0.4569200000000 1.0
C      1  0.4985060000000  0.5009520000000  0.5357540000000 1.0
END
