TITL C-3577082-504-245 -3.45275382766979e-06 125000 -322.538091518177 0 0 54 (Ci) n - 1
REM
REM in /home/bkarasulu/work/CARBON/AIRSS/Generating-Clusters/EDIP-Nigel-Params/with-SteepDescent/Higher-Symm/SD-CG/HFTN-CG
REM
REM
REM
REM
REM
REM ./C.cell (12c818d87b63d06a65506943cc24bca4)
REM
REM compiler GCC version 9.2.1 20190827 (Red Hat 9.2.1-1)
REM options -cpp -mtune=generic -march=x86-64 -g -O0 -fpre-include=/usr/include/finclude/math-vector-fortran.h
REM seed -1179527564 922048789 -1757715609 1153411372 -1960101662 -56642610 696903044 -1901494461 1698895938 -781424273 1545957448 -2042507647 1439855251 -1343411213 -1825434678 -1671518167 -734635447 1128317606 -2138972860 -1249230091 -26316542 992871452 -1792025599 1711437699 -681405441 1342652169 -878233421 -33989352 -77752408 -1121007218 2033116221 -126781493 -411224836
REM
CELL 1.54180   50.00000   50.00000   50.00000   90.00000   90.00000   90.00000
LATT -1
SFAC C  
C      1  0.4267440000000  0.4991310000000  0.5140800000000 1.0
C      1  0.4512060000000  0.4993620000000  0.4437350000000 1.0
C      1  0.5243750000000  0.5002500000000  0.4297170000000 1.0
C      1  0.5732560000000  0.5008690000000  0.4859200000000 1.0
C      1  0.5487940000000  0.5006380000000  0.5562650000000 1.0
C      1  0.4756250000000  0.4997500000000  0.5702830000000 1.0
C      1  0.4742850000000  0.4937960000000  0.5114500000000 1.0
C      1  0.4766160000000  0.5043090000000  0.4839090000000 1.0
C      1  0.5027110000000  0.4966500000000  0.4719200000000 1.0
C      1  0.5257150000000  0.5062040000000  0.4885500000000 1.0
C      1  0.5233840000000  0.4956910000000  0.5160910000000 1.0
C      1  0.4972890000000  0.5033500000000  0.5280800000000 1.0
C      1  0.4803430000000  0.5408380000000  0.4725580000000 1.0
C      1  0.5102630000000  0.4659940000000  0.4701320000000 1.0
C      1  0.5313840000000  0.5365990000000  0.4938160000000 1.0
C      1  0.5196570000000  0.4591620000000  0.5274420000000 1.0
C      1  0.4897370000000  0.5340060000000  0.5298680000000 1.0
C      1  0.4686160000000  0.4634010000000  0.5061840000000 1.0
C      1  0.5508990000000  0.5064500000000  0.4407400000000 1.0
C      1  0.5763970000000  0.4954700000000  0.5146480000000 1.0
C      1  0.5253850000000  0.5043800000000  0.5734850000000 1.0
C      1  0.4491010000000  0.4935500000000  0.5592600000000 1.0
C      1  0.4236030000000  0.5045300000000  0.4853520000000 1.0
C      1  0.4746150000000  0.4956200000000  0.4265150000000 1.0
C      1  0.4965340000000  0.4545110000000  0.4467890000000 1.0
C      1  0.5452650000000  0.5470800000000  0.4698760000000 1.0
C      1  0.5477880000000  0.4547010000000  0.5230120000000 1.0
C      1  0.5034660000000  0.5454890000000  0.5532110000000 1.0
C      1  0.4547350000000  0.4529200000000  0.5301240000000 1.0
C      1  0.4522120000000  0.5452990000000  0.4769880000000 1.0
C      1  0.5432510000000  0.5409820000000  0.5214820000000 1.0
C      1  0.5011510000000  0.4590540000000  0.5498670000000 1.0
C      1  0.4599430000000  0.5385380000000  0.5267400000000 1.0
C      1  0.4567490000000  0.4590180000000  0.4785180000000 1.0
C      1  0.4988490000000  0.5409460000000  0.4501330000000 1.0
C      1  0.5400570000000  0.4614620000000  0.4732600000000 1.0
C      1  0.4975530000000  0.4882220000000  0.5542130000000 1.0
C      1  0.4522470000000  0.5097110000000  0.5248400000000 1.0
C      1  0.4545620000000  0.4880490000000  0.4709600000000 1.0
C      1  0.5024470000000  0.5117780000000  0.4457870000000 1.0
C      1  0.5477530000000  0.4902890000000  0.4751600000000 1.0
C      1  0.5454380000000  0.5119510000000  0.5290400000000 1.0
C      1  0.5642160000000  0.5265950000000  0.4592600000000 1.0
C      1  0.5663230000000  0.4746820000000  0.5344900000000 1.0
C      1  0.5034360000000  0.5254830000000  0.5753030000000 1.0
C      1  0.4357840000000  0.4734050000000  0.5407400000000 1.0
C      1  0.4336770000000  0.5253180000000  0.4655100000000 1.0
C      1  0.4965640000000  0.4745170000000  0.4246970000000 1.0
C      1  0.5511890000000  0.4491450000000  0.4956850000000 1.0
C      1  0.5287070000000  0.5522470000000  0.5426190000000 1.0
C      1  0.4760180000000  0.4470080000000  0.5476740000000 1.0
C      1  0.4488110000000  0.5508550000000  0.5043150000000 1.0
C      1  0.4712930000000  0.4477530000000  0.4573810000000 1.0
C      1  0.5239820000000  0.5529920000000  0.4523260000000 1.0
END
