TITL C-3578203-1966-85 -2.23938818651489e-07 125000 -27.3685144891716 0 0 6 (D(inf)h) n - 1
REM
REM in /home/bkarasulu/work/CARBON/AIRSS/Generating-Clusters/EDIP-Nigel-Params/with-SteepDescent/Higher-Symm/SD-CG/HFTN-CG
REM
REM
REM
REM
REM
REM ./C.cell (12c818d87b63d06a65506943cc24bca4)
REM
REM compiler GCC version 9.2.1 20190827 (Red Hat 9.2.1-1)
REM options -cpp -mtune=generic -march=x86-64 -g -O0 -fpre-include=/usr/include/finclude/math-vector-fortran.h
REM seed 1538732753 -2118333220 698665419 1956198293 -1262343669 -1206547022 -1139882524 380091248 1964306367 -1091840263 -634434025 -1102134851 -695601376 135766357 596067614 65303886 1596337626 841111450 1213560545 696378157 1306015655 -2104856397 -1508616381 -1387870646 -1781644980 -1682529328 -1003713257 -1677497817 -664212497 -246553854 791421342 -1816314713 1213451665
REM
CELL 1.54180   50.00000   50.00000   50.00000   90.00000   90.00000   90.00000
LATT -1
SFAC C  
C      1  0.5011670000000  0.4348510000000  0.4996820000000 1.0
C      1  0.5011670000000  0.5131930000000  0.4996820000000 1.0
C      1  0.5011670000000  0.4868070000000  0.4996820000000 1.0
C      1  0.5011670000000  0.5651490000000  0.4996820000000 1.0
C      1  0.5011670000000  0.4604220000000  0.4996820000000 1.0
C      1  0.5011670000000  0.5395780000000  0.4996820000000 1.0
END
