TITL C-3577084-3642-601 -2.45577381021876e-06 125000 -1246.64543505788 0 0 197 (C1) n - 1
REM
REM in /home/bkarasulu/work/CARBON/AIRSS/Generating-Clusters/EDIP-Nigel-Params/with-SteepDescent/Higher-Symm/SD-CG/HFTN-CG
REM
REM
REM
REM
REM
REM ./C.cell (12c818d87b63d06a65506943cc24bca4)
REM
REM compiler GCC version 9.2.1 20190827 (Red Hat 9.2.1-1)
REM options -cpp -mtune=generic -march=x86-64 -g -O0 -fpre-include=/usr/include/finclude/math-vector-fortran.h
REM seed -676117090 -1371944889 -879401253 -806175090 15310451 -1120319702 683270673 -1889323694 1409068227 -1095858362 2124984317 366765311 1084396518 521999188 -547568990 539250328 1406915767 -2012182507 996242790 1236463927 2111713203 -141369261 -333050267 328063801 534988333 -213940818 -395706424 -474674112 -798205452 -1661932837 -1673680631 -1581785389 -1310191452
REM
CELL 1.54180   50.00000   50.00000   50.00000   90.00000   90.00000   90.00000
LATT -1
SFAC C  
C      1  0.6144380000000  0.5085730000000  0.4563460000000 1.0
C      1  0.5141280000000  0.4563340000000  0.6142680000000 1.0
C      1  0.4581440000000  0.6031330000000  0.5027500000000 1.0
C      1  0.3896370000000  0.5046460000000  0.5400850000000 1.0
C      1  0.3977590000000  0.4956760000000  0.4594230000000 1.0
C      1  0.6056100000000  0.4911860000000  0.5352320000000 1.0
C      1  0.4974820000000  0.4597850000000  0.4013160000000 1.0
C      1  0.4989190000000  0.5374380000000  0.5865290000000 1.0
C      1  0.5102850000000  0.5428560000000  0.3939030000000 1.0
C      1  0.5437450000000  0.5895180000000  0.5031220000000 1.0
C      1  0.5454660000000  0.3950280000000  0.5090670000000 1.0
C      1  0.4612120000000  0.3948900000000  0.4961520000000 1.0
C      1  0.4551830000000  0.5118990000000  0.6135100000000 1.0
C      1  0.6065310000000  0.4584580000000  0.5051430000000 1.0
C      1  0.5140720000000  0.6148560000000  0.4593460000000 1.0
C      1  0.5405930000000  0.5103890000000  0.4004750000000 1.0
C      1  0.4578080000000  0.4921800000000  0.3870170000000 1.0
C      1  0.5364500000000  0.5001430000000  0.5878900000000 1.0
C      1  0.3975530000000  0.4541230000000  0.4967570000000 1.0
C      1  0.6024570000000  0.5372590000000  0.4939180000000 1.0
C      1  0.3940630000000  0.5418730000000  0.5079780000000 1.0
C      1  0.4926630000000  0.6022520000000  0.5378190000000 1.0
C      1  0.5120100000000  0.3840110000000  0.5464180000000 1.0
C      1  0.4956830000000  0.3970110000000  0.4635930000000 1.0
C      1  0.3911130000000  0.5074240000000  0.5869780000000 1.0
C      1  0.5117420000000  0.5897350000000  0.3949860000000 1.0
C      1  0.5925090000000  0.3911760000000  0.5102890000000 1.0
C      1  0.6087070000000  0.5101900000000  0.4097770000000 1.0
C      1  0.6039620000000  0.4959550000000  0.5828470000000 1.0
C      1  0.3933380000000  0.4908440000000  0.4132000000000 1.0
C      1  0.4930200000000  0.5822960000000  0.6025110000000 1.0
C      1  0.4936060000000  0.4130220000000  0.3970670000000 1.0
C      1  0.5123410000000  0.4083800000000  0.6128300000000 1.0
C      1  0.4142180000000  0.3916490000000  0.4926320000000 1.0
C      1  0.4112530000000  0.6064110000000  0.5059680000000 1.0
C      1  0.5884450000000  0.6027760000000  0.4957540000000 1.0
C      1  0.5877120000000  0.5086580000000  0.3931540000000 1.0
C      1  0.3911190000000  0.5888920000000  0.5083890000000 1.0
C      1  0.5147010000000  0.3909250000000  0.5926700000000 1.0
C      1  0.4077020000000  0.5086620000000  0.6079790000000 1.0
C      1  0.5826450000000  0.4954770000000  0.5992240000000 1.0
C      1  0.4113080000000  0.4913330000000  0.3933850000000 1.0
C      1  0.6080560000000  0.5844110000000  0.4959140000000 1.0
C      1  0.3936940000000  0.4085360000000  0.4891530000000 1.0
C      1  0.6098110000000  0.4116140000000  0.5088660000000 1.0
C      1  0.4947610000000  0.3942360000000  0.4162500000000 1.0
C      1  0.5117480000000  0.6098700000000  0.4125880000000 1.0
C      1  0.4918380000000  0.6025340000000  0.5848940000000 1.0
C      1  0.4211430000000  0.5500150000000  0.4099010000000 1.0
C      1  0.5453630000000  0.4188730000000  0.4379570000000 1.0
C      1  0.4207350000000  0.4395610000000  0.5529390000000 1.0
C      1  0.5631980000000  0.5433720000000  0.5904850000000 1.0
C      1  0.5514830000000  0.4556640000000  0.4137810000000 1.0
C      1  0.4364430000000  0.4583360000000  0.5931950000000 1.0
C      1  0.4487710000000  0.4132900000000  0.5822680000000 1.0
C      1  0.4512730000000  0.5864620000000  0.4141590000000 1.0
C      1  0.5534960000000  0.5880780000000  0.5744420000000 1.0
C      1  0.5838470000000  0.4409100000000  0.4403980000000 1.0
C      1  0.5801710000000  0.5600050000000  0.5530540000000 1.0
C      1  0.4161890000000  0.5807540000000  0.4453750000000 1.0
C      1  0.4148850000000  0.5537440000000  0.4371590000000 1.0
C      1  0.4419390000000  0.4185500000000  0.5553560000000 1.0
C      1  0.5384950000000  0.4307200000000  0.4133330000000 1.0
C      1  0.5880350000000  0.5495110000000  0.5781140000000 1.0
C      1  0.4140210000000  0.4490570000000  0.5786940000000 1.0
C      1  0.5795130000000  0.4541480000000  0.4159460000000 1.0
C      1  0.5731520000000  0.4147830000000  0.4410850000000 1.0
C      1  0.4432410000000  0.5879050000000  0.4411640000000 1.0
C      1  0.5719920000000  0.5871620000000  0.5544270000000 1.0
C      1  0.4578880000000  0.4365590000000  0.5953020000000 1.0
C      1  0.5424960000000  0.5660790000000  0.5880900000000 1.0
C      1  0.4477960000000  0.5591720000000  0.4079020000000 1.0
C      1  0.4828670000000  0.5029890000000  0.3926790000000 1.0
C      1  0.5148170000000  0.4121820000000  0.4768290000000 1.0
C      1  0.4154690000000  0.4727120000000  0.5088030000000 1.0
C      1  0.5116550000000  0.4889900000000  0.5750690000000 1.0
C      1  0.5243620000000  0.4984920000000  0.4211000000000 1.0
C      1  0.4659180000000  0.5005710000000  0.5901040000000 1.0
C      1  0.5016580000000  0.3922490000000  0.5217870000000 1.0
C      1  0.5011080000000  0.6037300000000  0.4811960000000 1.0
C      1  0.5036440000000  0.5803860000000  0.5245890000000 1.0
C      1  0.5996230000000  0.4674320000000  0.4796150000000 1.0
C      1  0.5841630000000  0.5151730000000  0.4945910000000 1.0
C      1  0.4111560000000  0.5199070000000  0.5015120000000 1.0
C      1  0.4114210000000  0.5169450000000  0.4713300000000 1.0
C      1  0.4737410000000  0.4005730000000  0.5204970000000 1.0
C      1  0.4998620000000  0.4864670000000  0.4081870000000 1.0
C      1  0.5835180000000  0.5027530000000  0.5224320000000 1.0
C      1  0.3995180000000  0.4972240000000  0.5150670000000 1.0
C      1  0.5941890000000  0.4963020000000  0.4724000000000 1.0
C      1  0.5207590000000  0.4091470000000  0.5060830000000 1.0
C      1  0.4724480000000  0.5975980000000  0.4791770000000 1.0
C      1  0.5154510000000  0.5825270000000  0.4965640000000 1.0
C      1  0.5009890000000  0.4665900000000  0.5916980000000 1.0
C      1  0.4886200000000  0.5117450000000  0.5745310000000 1.0
C      1  0.4856700000000  0.5309110000000  0.3999340000000 1.0
C      1  0.5468200000000  0.5658010000000  0.4165710000000 1.0
C      1  0.5692040000000  0.4117280000000  0.5465890000000 1.0
C      1  0.4118760000000  0.5432160000000  0.5633440000000 1.0
C      1  0.4546040000000  0.5617640000000  0.5822610000000 1.0
C      1  0.4578290000000  0.4369200000000  0.4171470000000 1.0
C      1  0.5461510000000  0.4326150000000  0.5858900000000 1.0
C      1  0.4378820000000  0.4158840000000  0.4583250000000 1.0
C      1  0.4342710000000  0.5839960000000  0.5418700000000 1.0
C      1  0.5654570000000  0.5832080000000  0.4591000000000 1.0
C      1  0.5882620000000  0.5443810000000  0.4361030000000 1.0
C      1  0.5843810000000  0.4565540000000  0.5625340000000 1.0
C      1  0.4163470000000  0.4565180000000  0.4368260000000 1.0
C      1  0.4119680000000  0.5652560000000  0.5441900000000 1.0
C      1  0.5474780000000  0.4117120000000  0.5660320000000 1.0
C      1  0.5680150000000  0.5461700000000  0.4153930000000 1.0
C      1  0.5880090000000  0.5644420000000  0.4571060000000 1.0
C      1  0.4161880000000  0.4351730000000  0.4568120000000 1.0
C      1  0.5864310000000  0.4350910000000  0.5434110000000 1.0
C      1  0.4589350000000  0.4170910000000  0.4387290000000 1.0
C      1  0.5466960000000  0.5862350000000  0.4369690000000 1.0
C      1  0.4557280000000  0.5820390000000  0.5611170000000 1.0
C      1  0.4323040000000  0.5429950000000  0.5839430000000 1.0
C      1  0.5621250000000  0.4565560000000  0.5815950000000 1.0
C      1  0.4369990000000  0.4573850000000  0.4161710000000 1.0
C      1  0.5405770000000  0.4789100000000  0.5022300000000 1.0
C      1  0.4532880000000  0.5080130000000  0.5361430000000 1.0
C      1  0.5178450000000  0.5548880000000  0.4812080000000 1.0
C      1  0.4402380000000  0.4773350000000  0.4896790000000 1.0
C      1  0.4525880000000  0.5457070000000  0.5022510000000 1.0
C      1  0.5563940000000  0.5240300000000  0.4847150000000 1.0
C      1  0.5218680000000  0.5181910000000  0.4462960000000 1.0
C      1  0.5187010000000  0.4784760000000  0.5473860000000 1.0
C      1  0.4652620000000  0.4964720000000  0.4513800000000 1.0
C      1  0.4963440000000  0.5340370000000  0.5283660000000 1.0
C      1  0.4843020000000  0.4588430000000  0.4787440000000 1.0
C      1  0.5231050000000  0.4374260000000  0.5170510000000 1.0
C      1  0.5093370000000  0.4517980000000  0.5387050000000 1.0
C      1  0.5447540000000  0.5085620000000  0.4631620000000 1.0
C      1  0.4812340000000  0.5433870000000  0.5032190000000 1.0
C      1  0.4840440000000  0.4728920000000  0.4535730000000 1.0
C      1  0.5014980000000  0.5383770000000  0.4607490000000 1.0
C      1  0.4787370000000  0.5181290000000  0.5467320000000 1.0
C      1  0.4395810000000  0.5222430000000  0.5130880000000 1.0
C      1  0.5347130000000  0.4957720000000  0.5278030000000 1.0
C      1  0.4520640000000  0.5004860000000  0.4767630000000 1.0
C      1  0.5342520000000  0.5375630000000  0.4995010000000 1.0
C      1  0.4608890000000  0.4585140000000  0.4951360000000 1.0
C      1  0.5463030000000  0.4508680000000  0.5059140000000 1.0
C      1  0.6056420000000  0.5613500000000  0.4803500000000 1.0
C      1  0.5582560000000  0.4817540000000  0.5969310000000 1.0
C      1  0.4775200000000  0.6013710000000  0.5610370000000 1.0
C      1  0.3924310000000  0.5650970000000  0.5227680000000 1.0
C      1  0.3958610000000  0.4339530000000  0.4779180000000 1.0
C      1  0.6057140000000  0.4359750000000  0.5215880000000 1.0
C      1  0.4355310000000  0.4780220000000  0.3954650000000 1.0
C      1  0.4311510000000  0.5234640000000  0.6053470000000 1.0
C      1  0.5646980000000  0.5238600000000  0.3970550000000 1.0
C      1  0.5260870000000  0.6066170000000  0.4361220000000 1.0
C      1  0.5278090000000  0.3903710000000  0.5683230000000 1.0
C      1  0.4808280000000  0.3978900000000  0.4401080000000 1.0
C      1  0.4800040000000  0.5577500000000  0.5977540000000 1.0
C      1  0.6025090000000  0.4793630000000  0.5604320000000 1.0
C      1  0.5633370000000  0.5987850000000  0.4840780000000 1.0
C      1  0.5256390000000  0.5658110000000  0.3966600000000 1.0
C      1  0.4807340000000  0.4376900000000  0.3989450000000 1.0
C      1  0.5251260000000  0.4321890000000  0.6058880000000 1.0
C      1  0.3966190000000  0.4782440000000  0.4377750000000 1.0
C      1  0.6088910000000  0.5239660000000  0.4338890000000 1.0
C      1  0.3926330000000  0.5208020000000  0.5627380000000 1.0
C      1  0.4354930000000  0.6022890000000  0.5189450000000 1.0
C      1  0.5685100000000  0.3926510000000  0.5244230000000 1.0
C      1  0.4385990000000  0.3965930000000  0.4802020000000 1.0
C      1  0.5326210000000  0.4318310000000  0.4620240000000 1.0
C      1  0.4313460000000  0.4607110000000  0.5335240000000 1.0
C      1  0.4517340000000  0.5203950000000  0.4376480000000 1.0
C      1  0.4869920000000  0.4393010000000  0.5527040000000 1.0
C      1  0.4830450000000  0.5568960000000  0.4439080000000 1.0
C      1  0.5152420000000  0.5566090000000  0.5392370000000 1.0
C      1  0.5753890000000  0.4571950000000  0.4642180000000 1.0
C      1  0.5626090000000  0.5427720000000  0.5369660000000 1.0
C      1  0.4447800000000  0.5542610000000  0.4748750000000 1.0
C      1  0.5461150000000  0.5243260000000  0.5734970000000 1.0
C      1  0.5394000000000  0.4745200000000  0.4336120000000 1.0
C      1  0.4547620000000  0.4766780000000  0.5762610000000 1.0
C      1  0.4652580000000  0.4251600000000  0.5369510000000 1.0
C      1  0.5196650000000  0.4600260000000  0.4532170000000 1.0
C      1  0.4302910000000  0.5352720000000  0.4554530000000 1.0
C      1  0.5554520000000  0.4401780000000  0.4799890000000 1.0
C      1  0.4624900000000  0.5744310000000  0.4602320000000 1.0
C      1  0.5416910000000  0.5561360000000  0.5218680000000 1.0
C      1  0.4780810000000  0.4531710000000  0.5780780000000 1.0
C      1  0.5231370000000  0.5477130000000  0.5717200000000 1.0
C      1  0.4676010000000  0.5414730000000  0.4220200000000 1.0
C      1  0.5606460000000  0.5120270000000  0.5396720000000 1.0
C      1  0.4434330000000  0.4835460000000  0.5491700000000 1.0
C      1  0.5617060000000  0.4861550000000  0.4518490000000 1.0
C      1  0.5169180000000  0.4798700000000  0.4819950000000 1.0
C      1  0.4835330000000  0.5221370000000  0.4810880000000 1.0
C      1  0.4534810000000  0.4463560000000  0.5199190000000 1.0
C      1  0.5167380000000  0.5166290000000  0.5137630000000 1.0
C      1  0.5015140000000  0.5026950000000  0.4935620000000 1.0
END
