TITL C-3578203-1966-262 -9.56313680365984e-06 125000 -1227.86219970736 0 0 197 (C1) n - 1
REM
REM in /home/bkarasulu/work/CARBON/AIRSS/Generating-Clusters/EDIP-Nigel-Params/with-SteepDescent/Higher-Symm/SD-CG/HFTN-CG
REM
REM
REM
REM
REM
REM ./C.cell (12c818d87b63d06a65506943cc24bca4)
REM
REM compiler GCC version 9.2.1 20190827 (Red Hat 9.2.1-1)
REM options -cpp -mtune=generic -march=x86-64 -g -O0 -fpre-include=/usr/include/finclude/math-vector-fortran.h
REM seed -1386579971 364106112 983481072 -118403836 171005095 684773143 1009123894 -1731176395 -295930786 1796949827 1415276171 964993368 -1454898788 -1104975923 554906109 -479124690 -1166683604 43944829 1202504242 -2021925013 -1143233018 2004975265 -1428536556 1243945121 -763754376 -531489530 1590140091 -691865396 -1200845250 736639722 306766856 -382313172 -469946209
REM
CELL 1.54180   50.00000   50.00000   50.00000   90.00000   90.00000   90.00000
LATT -1
SFAC C  
C      1  0.4798820000000  0.5238020000000  0.5782310000000 1.0
C      1  0.4369070000000  0.5018630000000  0.5629370000000 1.0
C      1  0.4321810000000  0.5165400000000  0.5356320000000 1.0
C      1  0.4238720000000  0.5123220000000  0.4901540000000 1.0
C      1  0.4098610000000  0.5168250000000  0.4429830000000 1.0
C      1  0.4830900000000  0.5155190000000  0.4133410000000 1.0
C      1  0.5124540000000  0.5230270000000  0.4185180000000 1.0
C      1  0.5690060000000  0.5132950000000  0.4523030000000 1.0
C      1  0.5879630000000  0.5196940000000  0.4747430000000 1.0
C      1  0.5748470000000  0.5111300000000  0.5463050000000 1.0
C      1  0.5574360000000  0.5147110000000  0.5730580000000 1.0
C      1  0.4599280000000  0.4910600000000  0.3846740000000 1.0
C      1  0.5360210000000  0.5025540000000  0.4129230000000 1.0
C      1  0.5856510000000  0.4946180000000  0.4159170000000 1.0
C      1  0.6057310000000  0.5041840000000  0.4916370000000 1.0
C      1  0.6155680000000  0.4939830000000  0.5407710000000 1.0
C      1  0.5617600000000  0.4994520000000  0.5988020000000 1.0
C      1  0.5046900000000  0.4998520000000  0.6157610000000 1.0
C      1  0.4509310000000  0.5074800000000  0.6088410000000 1.0
C      1  0.3815180000000  0.5036800000000  0.5305700000000 1.0
C      1  0.3825150000000  0.4938350000000  0.4799930000000 1.0
C      1  0.4210430000000  0.5016940000000  0.4201390000000 1.0
C      1  0.4219440000000  0.4724890000000  0.4274520000000 1.0
C      1  0.4576890000000  0.4623270000000  0.3942890000000 1.0
C      1  0.5299310000000  0.4762160000000  0.3999420000000 1.0
C      1  0.5758540000000  0.4659810000000  0.4173300000000 1.0
C      1  0.6052550000000  0.4760250000000  0.4832260000000 1.0
C      1  0.6077600000000  0.4652060000000  0.5313460000000 1.0
C      1  0.5696200000000  0.4706340000000  0.5945120000000 1.0
C      1  0.5113250000000  0.4727680000000  0.6073510000000 1.0
C      1  0.4522860000000  0.4794760000000  0.5976760000000 1.0
C      1  0.3926800000000  0.4779850000000  0.5343920000000 1.0
C      1  0.3865360000000  0.4643290000000  0.4879950000000 1.0
C      1  0.6047060000000  0.4727780000000  0.4542710000000 1.0
C      1  0.5795440000000  0.4886620000000  0.5169960000000 1.0
C      1  0.5862790000000  0.4710300000000  0.5708210000000 1.0
C      1  0.5290030000000  0.4822610000000  0.5829730000000 1.0
C      1  0.4791320000000  0.4865880000000  0.5822570000000 1.0
C      1  0.4074960000000  0.4977370000000  0.5708670000000 1.0
C      1  0.4227160000000  0.4945480000000  0.5164510000000 1.0
C      1  0.4214490000000  0.4723230000000  0.4570580000000 1.0
C      1  0.4602940000000  0.4938830000000  0.4255010000000 1.0
C      1  0.5012250000000  0.4739150000000  0.4076130000000 1.0
C      1  0.5483860000000  0.4924400000000  0.4391280000000 1.0
C      1  0.4774790000000  0.5085470000000  0.6199050000000 1.0
C      1  0.3917350000000  0.5177700000000  0.5549370000000 1.0
C      1  0.3807900000000  0.5153470000000  0.5020820000000 1.0
C      1  0.4093150000000  0.4988900000000  0.4664020000000 1.0
C      1  0.4403700000000  0.5149840000000  0.3993250000000 1.0
C      1  0.4882540000000  0.4968140000000  0.3918440000000 1.0
C      1  0.5638740000000  0.5161680000000  0.4100920000000 1.0
C      1  0.6021900000000  0.4975420000000  0.4393690000000 1.0
C      1  0.6092060000000  0.5157290000000  0.5201310000000 1.0
C      1  0.5971050000000  0.4972640000000  0.5632310000000 1.0
C      1  0.5273090000000  0.5158440000000  0.6055830000000 1.0
C      1  0.5727540000000  0.5960810000000  0.5094230000000 1.0
C      1  0.5770280000000  0.6016230000000  0.5365750000000 1.0
C      1  0.5156360000000  0.5974600000000  0.5641810000000 1.0
C      1  0.4874520000000  0.5986600000000  0.5743010000000 1.0
C      1  0.4540260000000  0.5923800000000  0.5563130000000 1.0
C      1  0.4333440000000  0.5996140000000  0.5237560000000 1.0
C      1  0.4354950000000  0.5975720000000  0.4926950000000 1.0
C      1  0.4568960000000  0.5940380000000  0.4416540000000 1.0
C      1  0.4765850000000  0.5980360000000  0.4218800000000 1.0
C      1  0.5293210000000  0.5964320000000  0.4459600000000 1.0
C      1  0.5541600000000  0.6018700000000  0.4578630000000 1.0
C      1  0.5150360000000  0.4152190000000  0.4159580000000 1.0
C      1  0.5571390000000  0.4139470000000  0.4350540000000 1.0
C      1  0.5809830000000  0.4150920000000  0.4748570000000 1.0
C      1  0.5769360000000  0.4176370000000  0.5192760000000 1.0
C      1  0.5562870000000  0.4147080000000  0.5607430000000 1.0
C      1  0.5125860000000  0.4137650000000  0.5815750000000 1.0
C      1  0.4610250000000  0.4250570000000  0.5752770000000 1.0
C      1  0.4208090000000  0.4285930000000  0.5485390000000 1.0
C      1  0.4130950000000  0.4148170000000  0.5019780000000 1.0
C      1  0.4399560000000  0.4167410000000  0.4586880000000 1.0
C      1  0.4713940000000  0.4156400000000  0.4264850000000 1.0
C      1  0.4908690000000  0.5734840000000  0.4222220000000 1.0
C      1  0.5333410000000  0.5853370000000  0.4205980000000 1.0
C      1  0.5741230000000  0.5842710000000  0.4517300000000 1.0
C      1  0.5966730000000  0.5880740000000  0.4975420000000 1.0
C      1  0.5644580000000  0.5799810000000  0.5498360000000 1.0
C      1  0.5349000000000  0.5865760000000  0.5818650000000 1.0
C      1  0.4805060000000  0.5737390000000  0.5868780000000 1.0
C      1  0.4385280000000  0.5743350000000  0.5721380000000 1.0
C      1  0.4136160000000  0.5797120000000  0.5267770000000 1.0
C      1  0.4145080000000  0.5828170000000  0.4799360000000 1.0
C      1  0.4332050000000  0.5855880000000  0.4297080000000 1.0
C      1  0.4333520000000  0.3952160000000  0.5131830000000 1.0
C      1  0.4591630000000  0.3949010000000  0.4682760000000 1.0
C      1  0.4837280000000  0.4050210000000  0.4519760000000 1.0
C      1  0.5122790000000  0.3970320000000  0.4410900000000 1.0
C      1  0.5370910000000  0.4060310000000  0.4572160000000 1.0
C      1  0.5564520000000  0.3980690000000  0.4811170000000 1.0
C      1  0.5498650000000  0.4070430000000  0.5105570000000 1.0
C      1  0.5407460000000  0.3973320000000  0.5414440000000 1.0
C      1  0.5135460000000  0.4045540000000  0.5505410000000 1.0
C      1  0.4597240000000  0.4026280000000  0.5570620000000 1.0
C      1  0.4343340000000  0.4022960000000  0.5431440000000 1.0
C      1  0.5427790000000  0.4495560000000  0.4817600000000 1.0
C      1  0.5316990000000  0.4329800000000  0.5043080000000 1.0
C      1  0.5316830000000  0.4487240000000  0.5295730000000 1.0
C      1  0.5136610000000  0.4365780000000  0.5500010000000 1.0
C      1  0.4866410000000  0.4482340000000  0.5473870000000 1.0
C      1  0.4664850000000  0.4300920000000  0.5320790000000 1.0
C      1  0.4467730000000  0.4478410000000  0.5130960000000 1.0
C      1  0.4564510000000  0.4447890000000  0.4804470000000 1.0
C      1  0.4869750000000  0.4316450000000  0.4678250000000 1.0
C      1  0.5054980000000  0.4473900000000  0.4508750000000 1.0
C      1  0.5342910000000  0.4382580000000  0.4557290000000 1.0
C      1  0.5004940000000  0.4758810000000  0.4426880000000 1.0
C      1  0.5261800000000  0.4916870000000  0.4581640000000 1.0
C      1  0.5395130000000  0.4782930000000  0.4827440000000 1.0
C      1  0.5488310000000  0.4915420000000  0.5084380000000 1.0
C      1  0.5335770000000  0.4774870000000  0.5306830000000 1.0
C      1  0.5181840000000  0.4898050000000  0.5531650000000 1.0
C      1  0.4875080000000  0.4781660000000  0.5531350000000 1.0
C      1  0.4691170000000  0.4915980000000  0.5346440000000 1.0
C      1  0.4476940000000  0.4775600000000  0.5193110000000 1.0
C      1  0.4500250000000  0.4702890000000  0.4668540000000 1.0
C      1  0.4711160000000  0.4873910000000  0.4527570000000 1.0
C      1  0.5154500000000  0.5775310000000  0.5425490000000 1.0
C      1  0.4909030000000  0.5626180000000  0.5512620000000 1.0
C      1  0.4678780000000  0.5752080000000  0.5374930000000 1.0
C      1  0.4512380000000  0.5642730000000  0.5159240000000 1.0
C      1  0.4591190000000  0.5801490000000  0.4895360000000 1.0
C      1  0.4665510000000  0.5747110000000  0.4616680000000 1.0
C      1  0.4930470000000  0.5636940000000  0.4512270000000 1.0
C      1  0.5176830000000  0.5768920000000  0.4638230000000 1.0
C      1  0.5451600000000  0.5672680000000  0.4765330000000 1.0
C      1  0.5497250000000  0.5778260000000  0.5051640000000 1.0
C      1  0.5422770000000  0.5664910000000  0.5328140000000 1.0
C      1  0.5755440000000  0.4296100000000  0.5450460000000 1.0
C      1  0.5403770000000  0.4266600000000  0.5825540000000 1.0
C      1  0.4874770000000  0.4311110000000  0.5880780000000 1.0
C      1  0.4383880000000  0.4431240000000  0.5675580000000 1.0
C      1  0.4176260000000  0.4380920000000  0.5198430000000 1.0
C      1  0.4170490000000  0.4254860000000  0.4749630000000 1.0
C      1  0.4459830000000  0.4281780000000  0.4310240000000 1.0
C      1  0.4907720000000  0.4311940000000  0.4122930000000 1.0
C      1  0.5420950000000  0.4285000000000  0.4138760000000 1.0
C      1  0.5811500000000  0.4260830000000  0.4475690000000 1.0
C      1  0.5899270000000  0.4309420000000  0.4978890000000 1.0
C      1  0.5201800000000  0.5200550000000  0.5496520000000 1.0
C      1  0.4922020000000  0.5317000000000  0.5509000000000 1.0
C      1  0.4757670000000  0.5194890000000  0.5299260000000 1.0
C      1  0.4551930000000  0.5338200000000  0.5137260000000 1.0
C      1  0.4519400000000  0.5237770000000  0.4849520000000 1.0
C      1  0.4739280000000  0.5145230000000  0.4659380000000 1.0
C      1  0.4962030000000  0.5322160000000  0.4518450000000 1.0
C      1  0.5237190000000  0.5217840000000  0.4609980000000 1.0
C      1  0.5472160000000  0.5343020000000  0.4769440000000 1.0
C      1  0.5451700000000  0.5216030000000  0.5064890000000 1.0
C      1  0.5450460000000  0.5331480000000  0.5352300000000 1.0
C      1  0.4817070000000  0.4463650000000  0.3898450000000 1.0
C      1  0.5480910000000  0.4573980000000  0.4120990000000 1.0
C      1  0.5873320000000  0.4538050000000  0.4410920000000 1.0
C      1  0.6049520000000  0.4554400000000  0.5030600000000 1.0
C      1  0.5944690000000  0.4498560000000  0.5528870000000 1.0
C      1  0.5481250000000  0.4510130000000  0.5961420000000 1.0
C      1  0.4887780000000  0.4555980000000  0.6030230000000 1.0
C      1  0.4300790000000  0.4682550000000  0.5815780000000 1.0
C      1  0.3970010000000  0.4590620000000  0.5147250000000 1.0
C      1  0.4037550000000  0.4508410000000  0.4679180000000 1.0
C      1  0.4425310000000  0.4545920000000  0.4179310000000 1.0
C      1  0.4093080000000  0.5527910000000  0.5229420000000 1.0
C      1  0.4060900000000  0.5567320000000  0.4726030000000 1.0
C      1  0.4294900000000  0.5581200000000  0.4252770000000 1.0
C      1  0.4789690000000  0.5527150000000  0.4031110000000 1.0
C      1  0.5407950000000  0.5605780000000  0.4098230000000 1.0
C      1  0.5766220000000  0.5568130000000  0.4479490000000 1.0
C      1  0.5959720000000  0.5598420000000  0.4988130000000 1.0
C      1  0.5806390000000  0.5542540000000  0.5514350000000 1.0
C      1  0.5411210000000  0.5594720000000  0.5871510000000 1.0
C      1  0.4919940000000  0.5476740000000  0.5930220000000 1.0
C      1  0.4298960000000  0.5476360000000  0.5719510000000 1.0
C      1  0.4481520000000  0.5231900000000  0.5817180000000 1.0
C      1  0.4133140000000  0.5373180000000  0.5473300000000 1.0
C      1  0.4037910000000  0.5378620000000  0.4968860000000 1.0
C      1  0.4161060000000  0.5443560000000  0.4474820000000 1.0
C      1  0.4493020000000  0.5432610000000  0.4078670000000 1.0
C      1  0.5175030000000  0.5457590000000  0.4011500000000 1.0
C      1  0.5627360000000  0.5449690000000  0.4229300000000 1.0
C      1  0.5894080000000  0.5470210000000  0.4732210000000 1.0
C      1  0.5951360000000  0.5433630000000  0.5248770000000 1.0
C      1  0.5627780000000  0.5432660000000  0.5743900000000 1.0
C      1  0.5205080000000  0.5438210000000  0.6006260000000 1.0
C      1  0.5039230000000  0.5079850000000  0.4979320000000 1.0
C      1  0.4812570000000  0.4127510000000  0.5124910000000 1.0
C      1  0.4987170000000  0.4307800000000  0.4965400000000 1.0
C      1  0.5004720000000  0.5892800000000  0.5026160000000 1.0
C      1  0.4897470000000  0.4574590000000  0.5039850000000 1.0
C      1  0.4992770000000  0.5354130000000  0.4959160000000 1.0
C      1  0.5032690000000  0.5617190000000  0.5028640000000 1.0
C      1  0.4912070000000  0.4837040000000  0.4967390000000 1.0
C      1  0.5069520000000  0.6145180000000  0.5030770000000 1.0
C      1  0.4609110000000  0.3951080000000  0.4985240000000 1.0
END
