TITL C-3578200-9634-140 -3.28206592103563e-06 125000 -1016.91608624142 0 0 164 (C1) n - 1
REM
REM in /home/bkarasulu/work/CARBON/AIRSS/Generating-Clusters/EDIP-Nigel-Params/with-SteepDescent/Higher-Symm/SD-CG/HFTN-CG
REM
REM
REM
REM
REM
REM ./C.cell (12c818d87b63d06a65506943cc24bca4)
REM
REM compiler GCC version 9.2.1 20190827 (Red Hat 9.2.1-1)
REM options -cpp -mtune=generic -march=x86-64 -g -O0 -fpre-include=/usr/include/finclude/math-vector-fortran.h
REM seed 394447457 -1974990328 -2100912703 -1151366088 -197953205 -1460899492 -982512404 -1772409280 -1898509685 -1476434254 -1830298960 -611677135 -773804025 -703770318 -911799838 -117076114 -1655354241 -1895045252 885822141 808823992 2136192408 -1711035584 -1668815281 -229783771 -283773869 -1293814636 1961656286 -520561092 -518434994 70739802 950304119 -612081036 -1122470277
REM
CELL 1.54180   50.00000   50.00000   50.00000   90.00000   90.00000   90.00000
LATT -1
SFAC C  
C      1  0.4280390000000  0.5124540000000  0.4263040000000 1.0
C      1  0.5940630000000  0.5166500000000  0.4752370000000 1.0
C      1  0.4764330000000  0.5163520000000  0.5874830000000 1.0
C      1  0.5675340000000  0.4857080000000  0.4289110000000 1.0
C      1  0.4036530000000  0.4867630000000  0.4737960000000 1.0
C      1  0.5257840000000  0.4860300000000  0.5966360000000 1.0
C      1  0.5646050000000  0.4837740000000  0.5638920000000 1.0
C      1  0.4117080000000  0.4833960000000  0.5217060000000 1.0
C      1  0.5260600000000  0.4870300000000  0.4130860000000 1.0
C      1  0.4386270000000  0.5176620000000  0.5646470000000 1.0
C      1  0.5889290000000  0.5175460000000  0.5192330000000 1.0
C      1  0.4733900000000  0.5127220000000  0.4071150000000 1.0
C      1  0.4198490000000  0.5128910000000  0.5255640000000 1.0
C      1  0.5212480000000  0.5165430000000  0.4191150000000 1.0
C      1  0.5645300000000  0.5130250000000  0.5551720000000 1.0
C      1  0.5801970000000  0.4883420000000  0.5233670000000 1.0
C      1  0.4788230000000  0.4837180000000  0.4143160000000 1.0
C      1  0.4395570000000  0.4878460000000  0.5549560000000 1.0
C      1  0.5835730000000  0.4878170000000  0.4697810000000 1.0
C      1  0.4840250000000  0.4871070000000  0.5848730000000 1.0
C      1  0.4326700000000  0.4838360000000  0.4359290000000 1.0
C      1  0.4157300000000  0.5147580000000  0.4733750000000 1.0
C      1  0.5210660000000  0.5156790000000  0.5890830000000 1.0
C      1  0.5676780000000  0.5147070000000  0.4403160000000 1.0
C      1  0.4769470000000  0.3992590000000  0.4807100000000 1.0
C      1  0.5277350000000  0.3999860000000  0.4896280000000 1.0
C      1  0.4978300000000  0.3967630000000  0.5309180000000 1.0
C      1  0.5252450000000  0.6015280000000  0.4848290000000 1.0
C      1  0.4719370000000  0.6016710000000  0.4907810000000 1.0
C      1  0.5066920000000  0.5952320000000  0.5302020000000 1.0
C      1  0.5291850000000  0.5883500000000  0.5113940000000 1.0
C      1  0.4784100000000  0.5894520000000  0.5190200000000 1.0
C      1  0.4965380000000  0.5967850000000  0.4718010000000 1.0
C      1  0.4726200000000  0.4040960000000  0.5117180000000 1.0
C      1  0.5245230000000  0.4065700000000  0.5205040000000 1.0
C      1  0.5055060000000  0.4098980000000  0.4722230000000 1.0
C      1  0.4725300000000  0.4834850000000  0.5103990000000 1.0
C      1  0.5021640000000  0.4842390000000  0.4688710000000 1.0
C      1  0.5237940000000  0.4835970000000  0.5164520000000 1.0
C      1  0.5282780000000  0.5146820000000  0.5126130000000 1.0
C      1  0.4974480000000  0.5149600000000  0.4688840000000 1.0
C      1  0.4749570000000  0.5135470000000  0.5180740000000 1.0
C      1  0.5457760000000  0.5250810000000  0.4895250000000 1.0
C      1  0.4906670000000  0.5250020000000  0.5464050000000 1.0
C      1  0.4674680000000  0.5281440000000  0.4701020000000 1.0
C      1  0.4556610000000  0.4718910000000  0.4843190000000 1.0
C      1  0.5140760000000  0.4740440000000  0.5436070000000 1.0
C      1  0.5309010000000  0.4734970000000  0.4659670000000 1.0
C      1  0.5027280000000  0.5600380000000  0.5956980000000 1.0
C      1  0.4151150000000  0.5601180000000  0.4546340000000 1.0
C      1  0.5808330000000  0.5614540000000  0.4498360000000 1.0
C      1  0.4931270000000  0.4415630000000  0.5970750000000 1.0
C      1  0.5839870000000  0.4415580000000  0.4563520000000 1.0
C      1  0.4168550000000  0.4393860000000  0.4478820000000 1.0
C      1  0.4986780000000  0.4423380000000  0.4050110000000 1.0
C      1  0.5887010000000  0.4426500000000  0.5422780000000 1.0
C      1  0.4191780000000  0.4416000000000  0.5537990000000 1.0
C      1  0.5047490000000  0.5589860000000  0.4069910000000 1.0
C      1  0.4139430000000  0.5599540000000  0.5441860000000 1.0
C      1  0.5859570000000  0.5588710000000  0.5535300000000 1.0
C      1  0.5193670000000  0.5232330000000  0.4488470000000 1.0
C      1  0.5381420000000  0.5216730000000  0.5413930000000 1.0
C      1  0.4460570000000  0.5218120000000  0.5118500000000 1.0
C      1  0.4816570000000  0.4775950000000  0.4451520000000 1.0
C      1  0.4647500000000  0.4761490000000  0.5396210000000 1.0
C      1  0.5539410000000  0.4784330000000  0.5094570000000 1.0
C      1  0.4881790000000  0.4814330000000  0.5551350000000 1.0
C      1  0.4563590000000  0.4828740000000  0.4562080000000 1.0
C      1  0.5548750000000  0.4824100000000  0.4812820000000 1.0
C      1  0.5160700000000  0.5155110000000  0.5585290000000 1.0
C      1  0.5446740000000  0.5201360000000  0.4605980000000 1.0
C      1  0.4446790000000  0.5146630000000  0.4844020000000 1.0
C      1  0.4354400000000  0.4253130000000  0.5358240000000 1.0
C      1  0.4965540000000  0.4322670000000  0.4330260000000 1.0
C      1  0.5642520000000  0.4277190000000  0.5385360000000 1.0
C      1  0.5604780000000  0.5711430000000  0.5446370000000 1.0
C      1  0.4975900000000  0.5790090000000  0.4270190000000 1.0
C      1  0.4368010000000  0.5699700000000  0.5285340000000 1.0
C      1  0.5677770000000  0.5780660000000  0.4706420000000 1.0
C      1  0.4902730000000  0.5741020000000  0.5722760000000 1.0
C      1  0.4387330000000  0.5780130000000  0.4533380000000 1.0
C      1  0.4300500000000  0.4245140000000  0.4699030000000 1.0
C      1  0.5031420000000  0.4217490000000  0.5777140000000 1.0
C      1  0.5610950000000  0.4230980000000  0.4592840000000 1.0
C      1  0.5337840000000  0.5603140000000  0.4050220000000 1.0
C      1  0.5850110000000  0.5531520000000  0.5812450000000 1.0
C      1  0.3943770000000  0.5586010000000  0.5230960000000 1.0
C      1  0.4685410000000  0.4388630000000  0.4001890000000 1.0
C      1  0.4310690000000  0.4438380000000  0.5796080000000 1.0
C      1  0.6040040000000  0.4435850000000  0.5181250000000 1.0
C      1  0.4645620000000  0.4433210000000  0.5990820000000 1.0
C      1  0.4347140000000  0.4377500000000  0.4234830000000 1.0
C      1  0.6013550000000  0.4422990000000  0.4793960000000 1.0
C      1  0.5330230000000  0.5614360000000  0.5909100000000 1.0
C      1  0.5674480000000  0.5621770000000  0.4242490000000 1.0
C      1  0.4051390000000  0.5618220000000  0.4854350000000 1.0
C      1  0.5494720000000  0.4217990000000  0.4871120000000 1.0
C      1  0.4877660000000  0.4186270000000  0.5511570000000 1.0
C      1  0.4603020000000  0.4221290000000  0.4670830000000 1.0
C      1  0.4513910000000  0.5793610000000  0.4807040000000 1.0
C      1  0.5116590000000  0.5819410000000  0.5551060000000 1.0
C      1  0.5379970000000  0.5813060000000  0.4654630000000 1.0
C      1  0.4294930000000  0.5740260000000  0.5002850000000 1.0
C      1  0.5203960000000  0.5906350000000  0.4413400000000 1.0
C      1  0.5380520000000  0.5742530000000  0.5640190000000 1.0
C      1  0.5624390000000  0.4133460000000  0.5136550000000 1.0
C      1  0.4678140000000  0.4250020000000  0.4373200000000 1.0
C      1  0.4581960000000  0.4116940000000  0.5475490000000 1.0
C      1  0.4563800000000  0.5883600000000  0.5400130000000 1.0
C      1  0.4740610000000  0.5932510000000  0.4228240000000 1.0
C      1  0.5582570000000  0.5862330000000  0.5196440000000 1.0
C      1  0.5516300000000  0.4176630000000  0.5609260000000 1.0
C      1  0.5147850000000  0.4123310000000  0.4432580000000 1.0
C      1  0.4216600000000  0.4121430000000  0.5158390000000 1.0
C      1  0.5420020000000  0.4180030000000  0.4396300000000 1.0
C      1  0.5303690000000  0.4177800000000  0.5767840000000 1.0
C      1  0.4156000000000  0.4123480000000  0.4900160000000 1.0
C      1  0.4487160000000  0.5898530000000  0.4303400000000 1.0
C      1  0.4645160000000  0.5832880000000  0.5664300000000 1.0
C      1  0.5750700000000  0.5803040000000  0.4977710000000 1.0
C      1  0.5854240000000  0.4652200000000  0.4385700000000 1.0
C      1  0.5073250000000  0.4659300000000  0.6066850000000 1.0
C      1  0.4109830000000  0.4700970000000  0.4508610000000 1.0
C      1  0.4181360000000  0.5298750000000  0.4478990000000 1.0
C      1  0.4973900000000  0.5304100000000  0.6013030000000 1.0
C      1  0.5959820000000  0.5366530000000  0.4546760000000 1.0
C      1  0.4156270000000  0.5334820000000  0.5572920000000 1.0
C      1  0.4960840000000  0.5301430000000  0.4116500000000 1.0
C      1  0.5946000000000  0.5331450000000  0.5423370000000 1.0
C      1  0.5873310000000  0.4685170000000  0.5556160000000 1.0
C      1  0.5034950000000  0.4725980000000  0.4024170000000 1.0
C      1  0.4084270000000  0.4675150000000  0.5452970000000 1.0
C      1  0.5440730000000  0.5340460000000  0.5959000000000 1.0
C      1  0.3973180000000  0.5325580000000  0.4876300000000 1.0
C      1  0.5671590000000  0.5340850000000  0.4171270000000 1.0
C      1  0.4605410000000  0.4718100000000  0.5969250000000 1.0
C      1  0.6045010000000  0.4705780000000  0.4832220000000 1.0
C      1  0.4348890000000  0.4648990000000  0.4132230000000 1.0
C      1  0.4593880000000  0.4662680000000  0.3998800000000 1.0
C      1  0.6038480000000  0.4718610000000  0.5122360000000 1.0
C      1  0.4362520000000  0.4722580000000  0.5811890000000 1.0
C      1  0.5415010000000  0.5327400000000  0.4041380000000 1.0
C      1  0.3961650000000  0.5304520000000  0.5158880000000 1.0
C      1  0.5690120000000  0.5293810000000  0.5817180000000 1.0
C      1  0.5251230000000  0.5591640000000  0.5080390000000 1.0
C      1  0.4772110000000  0.5598510000000  0.5132790000000 1.0
C      1  0.4961650000000  0.5660370000000  0.4691650000000 1.0
C      1  0.4715870000000  0.4349870000000  0.5122430000000 1.0
C      1  0.5207770000000  0.4370860000000  0.5208590000000 1.0
C      1  0.5038050000000  0.4402440000000  0.4759340000000 1.0
C      1  0.4733250000000  0.4450780000000  0.4842390000000 1.0
C      1  0.5296760000000  0.4465190000000  0.4922490000000 1.0
C      1  0.4933150000000  0.4439450000000  0.5328120000000 1.0
C      1  0.5240820000000  0.5549970000000  0.4779130000000 1.0
C      1  0.4724170000000  0.5558120000000  0.4831410000000 1.0
C      1  0.5012310000000  0.5499080000000  0.5266570000000 1.0
C      1  0.4470610000000  0.5217670000000  0.4081700000000 1.0
C      1  0.5497170000000  0.4763820000000  0.5861370000000 1.0
C      1  0.5519490000000  0.4794250000000  0.4065880000000 1.0
C      1  0.4494530000000  0.5233860000000  0.5899810000000 1.0
C      1  0.3977860000000  0.4760030000000  0.4987300000000 1.0
C      1  0.6075350000000  0.5216580000000  0.4989430000000 1.0
C      1  0.4999220000000  0.5237090000000  0.5002750000000 1.0
C      1  0.4996240000000  0.4778590000000  0.4987100000000 1.0
END
