TITL C-3577089-586-155 0.000151390394713789 125000 -532.699719351449 0 0 89 (C1) n - 1
REM
REM in /home/bkarasulu/work/CARBON/AIRSS/Generating-Clusters/EDIP-Nigel-Params/with-SteepDescent/Higher-Symm/SD-CG/HFTN-CG
REM
REM
REM
REM
REM
REM ./C.cell (12c818d87b63d06a65506943cc24bca4)
REM
REM compiler GCC version 9.2.1 20190827 (Red Hat 9.2.1-1)
REM options -cpp -mtune=generic -march=x86-64 -g -O0 -fpre-include=/usr/include/finclude/math-vector-fortran.h
REM seed 542949 -1939857272 1099838176 -1589404624 -412963312 -45329736 1409764132 -148205296 470178934 -744126373 1075793904 655223448 -1250965806 1977257508 2064507379 861289367 719235181 285199233 -1692315755 100201495 1473020078 89602661 669788140 1862949919 1505399991 1192932789 -57282927 -671602959 -1810227687 1418073183 1625177746 2042904242 -386681546
REM
CELL 1.54180   50.00000   50.00000   50.00000   90.00000   90.00000   90.00000
LATT -1
SFAC C  
C      1  0.5227740000000  0.5403320000000  0.5712150000000 1.0
C      1  0.5176240000000  0.5813820000000  0.5080020000000 1.0
C      1  0.5234790000000  0.5679080000000  0.4373120000000 1.0
C      1  0.5181990000000  0.4944240000000  0.4093910000000 1.0
C      1  0.5161100000000  0.4355480000000  0.4591790000000 1.0
C      1  0.5223540000000  0.4269140000000  0.5318740000000 1.0
C      1  0.5213010000000  0.4716690000000  0.5895040000000 1.0
C      1  0.4848570000000  0.4634870000000  0.5160930000000 1.0
C      1  0.4740340000000  0.4775870000000  0.5429990000000 1.0
C      1  0.4833840000000  0.5066330000000  0.5459290000000 1.0
C      1  0.4886200000000  0.5351560000000  0.5026560000000 1.0
C      1  0.4910230000000  0.5352280000000  0.4729590000000 1.0
C      1  0.4809150000000  0.5099260000000  0.4557300000000 1.0
C      1  0.4840580000000  0.4797380000000  0.4657800000000 1.0
C      1  0.5423210000000  0.5428220000000  0.5088240000000 1.0
C      1  0.5492250000000  0.5418370000000  0.4707150000000 1.0
C      1  0.5469350000000  0.5137450000000  0.4367100000000 1.0
C      1  0.5468560000000  0.4663310000000  0.4528160000000 1.0
C      1  0.5498190000000  0.4492230000000  0.5062750000000 1.0
C      1  0.5494470000000  0.4787960000000  0.5523900000000 1.0
C      1  0.5507780000000  0.5106350000000  0.5538380000000 1.0
C      1  0.5001020000000  0.4494600000000  0.4375160000000 1.0
C      1  0.5015870000000  0.4203700000000  0.5108110000000 1.0
C      1  0.5024140000000  0.4585890000000  0.5702300000000 1.0
C      1  0.5046590000000  0.5197840000000  0.5821270000000 1.0
C      1  0.4943380000000  0.5691690000000  0.5369770000000 1.0
C      1  0.5020470000000  0.5817030000000  0.4549040000000 1.0
C      1  0.5015410000000  0.5199490000000  0.4136610000000 1.0
C      1  0.5082730000000  0.4223790000000  0.4831140000000 1.0
C      1  0.5204930000000  0.4382960000000  0.5594100000000 1.0
C      1  0.5230120000000  0.5006320000000  0.5934580000000 1.0
C      1  0.5182240000000  0.5543030000000  0.5446640000000 1.0
C      1  0.5233990000000  0.5849860000000  0.4785810000000 1.0
C      1  0.5155910000000  0.5426690000000  0.4252280000000 1.0
C      1  0.5109050000000  0.4685780000000  0.4192860000000 1.0
C      1  0.5440470000000  0.5695130000000  0.4606590000000 1.0
C      1  0.5459580000000  0.5009780000000  0.4111140000000 1.0
C      1  0.5440670000000  0.4380170000000  0.4545260000000 1.0
C      1  0.5486890000000  0.4253080000000  0.5214230000000 1.0
C      1  0.5458640000000  0.4607740000000  0.5765440000000 1.0
C      1  0.5481570000000  0.5262580000000  0.5784440000000 1.0
C      1  0.5363870000000  0.5668460000000  0.5245360000000 1.0
C      1  0.4228850000000  0.5287880000000  0.5004180000000 1.0
C      1  0.4281750000000  0.5276400000000  0.4717330000000 1.0
C      1  0.4261180000000  0.5040340000000  0.4554320000000 1.0
C      1  0.4272790000000  0.4787460000000  0.4685610000000 1.0
C      1  0.4243480000000  0.4601740000000  0.5132020000000 1.0
C      1  0.4210720000000  0.4831960000000  0.5315700000000 1.0
C      1  0.4334560000000  0.5091860000000  0.5206270000000 1.0
C      1  0.4544820000000  0.5663460000000  0.4547430000000 1.0
C      1  0.4539000000000  0.5034960000000  0.4124260000000 1.0
C      1  0.4529000000000  0.4410460000000  0.4490370000000 1.0
C      1  0.4563210000000  0.4230300000000  0.5309580000000 1.0
C      1  0.4532010000000  0.4721370000000  0.5745450000000 1.0
C      1  0.4615500000000  0.5335210000000  0.5617270000000 1.0
C      1  0.4520320000000  0.5664370000000  0.5138080000000 1.0
C      1  0.5706160000000  0.5330900000000  0.5144430000000 1.0
C      1  0.5764880000000  0.5300930000000  0.4848270000000 1.0
C      1  0.5712080000000  0.5091790000000  0.4534700000000 1.0
C      1  0.5724260000000  0.4796690000000  0.4605650000000 1.0
C      1  0.5738510000000  0.4659120000000  0.5091650000000 1.0
C      1  0.5748330000000  0.4761560000000  0.5361500000000 1.0
C      1  0.5742710000000  0.5144120000000  0.5361270000000 1.0
C      1  0.4282990000000  0.5545340000000  0.5096980000000 1.0
C      1  0.4322930000000  0.5519120000000  0.4588940000000 1.0
C      1  0.4321340000000  0.5045040000000  0.4282720000000 1.0
C      1  0.4306710000000  0.4555990000000  0.4535210000000 1.0
C      1  0.4340020000000  0.4370560000000  0.5253890000000 1.0
C      1  0.4330290000000  0.4757160000000  0.5560390000000 1.0
C      1  0.4435120000000  0.5232090000000  0.5433950000000 1.0
C      1  0.4741330000000  0.4592170000000  0.4457030000000 1.0
C      1  0.4771600000000  0.4345620000000  0.5159740000000 1.0
C      1  0.4744860000000  0.4536820000000  0.5736010000000 1.0
C      1  0.4759040000000  0.5193780000000  0.5815980000000 1.0
C      1  0.4791510000000  0.5602790000000  0.5145720000000 1.0
C      1  0.4812820000000  0.5617060000000  0.4610630000000 1.0
C      1  0.4752530000000  0.5152230000000  0.4265690000000 1.0
C      1  0.5197490000000  0.5078500000000  0.4513730000000 1.0
C      1  0.5194360000000  0.4798300000000  0.4637890000000 1.0
C      1  0.5182360000000  0.4664630000000  0.5124350000000 1.0
C      1  0.5227840000000  0.4807590000000  0.5379600000000 1.0
C      1  0.5140750000000  0.5104780000000  0.5403130000000 1.0
C      1  0.5157230000000  0.5239760000000  0.5128190000000 1.0
C      1  0.5215840000000  0.5273370000000  0.4736600000000 1.0
C      1  0.5472260000000  0.4996730000000  0.4963650000000 1.0
C      1  0.5729550000000  0.4894040000000  0.4897350000000 1.0
C      1  0.4407710000000  0.4788120000000  0.4948930000000 1.0
C      1  0.5230120000000  0.4869600000000  0.4919120000000 1.0
C      1  0.4707980000000  0.4755750000000  0.4928220000000 1.0
END
