TITL C-3577076-40-282 -4.64241031680195e-06 125000 -1055.38118507549 0 0 170 (C1) n - 1
REM
REM in /home/bkarasulu/work/CARBON/AIRSS/Generating-Clusters/EDIP-Nigel-Params/with-SteepDescent/Higher-Symm/SD-CG/HFTN-CG
REM
REM
REM
REM
REM
REM ./C.cell (12c818d87b63d06a65506943cc24bca4)
REM
REM compiler GCC version 9.2.1 20190827 (Red Hat 9.2.1-1)
REM options -cpp -mtune=generic -march=x86-64 -g -O0 -fpre-include=/usr/include/finclude/math-vector-fortran.h
REM seed 53529348 -1168354482 -1499305362 1895913303 326104549 -1351702699 -263990585 1987662443 811010748 -811178487 -1682973344 -1200903518 1072962067 -821704563 1825065362 -43939198 1146258369 -505782224 1386560316 -713715806 834995106 -1028753738 1424094290 -941285741 1619193002 -1331555011 -1731682951 -1717282090 531808994 1549600156 -1020203984 954084699 1519661403
REM
CELL 1.54180   50.00000   50.00000   50.00000   90.00000   90.00000   90.00000
LATT -1
SFAC C  
C      1  0.5027170000000  0.5215610000000  0.5537760000000 1.0
C      1  0.4533920000000  0.5291220000000  0.4873900000000 1.0
C      1  0.5311680000000  0.5307810000000  0.4736630000000 1.0
C      1  0.5104570000000  0.4645800000000  0.5507160000000 1.0
C      1  0.4568910000000  0.4626910000000  0.4837070000000 1.0
C      1  0.5413220000000  0.4774920000000  0.4717050000000 1.0
C      1  0.5690040000000  0.4881110000000  0.4391410000000 1.0
C      1  0.5248220000000  0.4844490000000  0.5875260000000 1.0
C      1  0.4104910000000  0.4857480000000  0.4745520000000 1.0
C      1  0.5695890000000  0.5193060000000  0.4370690000000 1.0
C      1  0.5284470000000  0.5179460000000  0.5938420000000 1.0
C      1  0.4126640000000  0.5161390000000  0.4761910000000 1.0
C      1  0.4742580000000  0.5652570000000  0.4472670000000 1.0
C      1  0.5584210000000  0.5672830000000  0.5011360000000 1.0
C      1  0.4696600000000  0.5648980000000  0.5432960000000 1.0
C      1  0.4673300000000  0.4306520000000  0.4472940000000 1.0
C      1  0.5524700000000  0.4333620000000  0.5032440000000 1.0
C      1  0.4722940000000  0.4272510000000  0.5507140000000 1.0
C      1  0.5984670000000  0.4872040000000  0.4462380000000 1.0
C      1  0.5033560000000  0.4784140000000  0.6096920000000 1.0
C      1  0.4031420000000  0.4807840000000  0.4464050000000 1.0
C      1  0.6001740000000  0.5191950000000  0.4437700000000 1.0
C      1  0.5035840000000  0.5117680000000  0.6128840000000 1.0
C      1  0.4057810000000  0.5189030000000  0.4462100000000 1.0
C      1  0.4411980000000  0.5503230000000  0.4178090000000 1.0
C      1  0.6055250000000  0.5588160000000  0.4867560000000 1.0
C      1  0.4627960000000  0.5495600000000  0.5884800000000 1.0
C      1  0.4321720000000  0.4460970000000  0.4197210000000 1.0
C      1  0.5926940000000  0.4506080000000  0.4825710000000 1.0
C      1  0.4679140000000  0.4393490000000  0.5964520000000 1.0
C      1  0.5253620000000  0.4738120000000  0.4109320000000 1.0
C      1  0.5659930000000  0.4752060000000  0.5599900000000 1.0
C      1  0.4103140000000  0.4759370000000  0.5252450000000 1.0
C      1  0.5240270000000  0.5266000000000  0.4155610000000 1.0
C      1  0.5684350000000  0.5298510000000  0.5623210000000 1.0
C      1  0.4127220000000  0.5266570000000  0.5257050000000 1.0
C      1  0.4455520000000  0.4470970000000  0.4610020000000 1.0
C      1  0.5551880000000  0.4489140000000  0.4752170000000 1.0
C      1  0.4939580000000  0.4400920000000  0.5685370000000 1.0
C      1  0.4496360000000  0.5492580000000  0.4606270000000 1.0
C      1  0.5557320000000  0.5477530000000  0.4761100000000 1.0
C      1  0.4914270000000  0.5500630000000  0.5622920000000 1.0
C      1  0.4514690000000  0.4769860000000  0.5582380000000 1.0
C      1  0.4758500000000  0.4792240000000  0.4314100000000 1.0
C      1  0.5725990000000  0.4896700000000  0.5130550000000 1.0
C      1  0.4413870000000  0.5060060000000  0.5583240000000 1.0
C      1  0.4824650000000  0.5072360000000  0.4245440000000 1.0
C      1  0.5719650000000  0.5199740000000  0.5183350000000 1.0
C      1  0.5216660000000  0.6028090000000  0.5086900000000 1.0
C      1  0.4802890000000  0.6022570000000  0.5096070000000 1.0
C      1  0.5001320000000  0.6026510000000  0.4729510000000 1.0
C      1  0.5249720000000  0.3932570000000  0.5122170000000 1.0
C      1  0.4764360000000  0.3953530000000  0.5101580000000 1.0
C      1  0.4912670000000  0.3966550000000  0.4740190000000 1.0
C      1  0.4819010000000  0.4005500000000  0.5414970000000 1.0
C      1  0.4660680000000  0.4024230000000  0.4584290000000 1.0
C      1  0.5461140000000  0.4044390000000  0.4952820000000 1.0
C      1  0.4806460000000  0.5927070000000  0.5383930000000 1.0
C      1  0.4742320000000  0.5936080000000  0.4585950000000 1.0
C      1  0.5471210000000  0.5942470000000  0.4938700000000 1.0
C      1  0.4587710000000  0.4360060000000  0.4188670000000 1.0
C      1  0.5825010000000  0.4376130000000  0.5076680000000 1.0
C      1  0.4513520000000  0.4310690000000  0.5723400000000 1.0
C      1  0.4657870000000  0.5637860000000  0.4188120000000 1.0
C      1  0.5880600000000  0.5677010000000  0.5073020000000 1.0
C      1  0.4496740000000  0.5635840000000  0.5659780000000 1.0
C      1  0.4138210000000  0.5559060000000  0.5333760000000 1.0
C      1  0.5135350000000  0.5539610000000  0.4059400000000 1.0
C      1  0.5764260000000  0.5585680000000  0.5560800000000 1.0
C      1  0.4168780000000  0.4485210000000  0.5379170000000 1.0
C      1  0.5056210000000  0.4483180000000  0.4076300000000 1.0
C      1  0.5732950000000  0.4464380000000  0.5558700000000 1.0
C      1  0.4948430000000  0.4716770000000  0.4537380000000 1.0
C      1  0.5461310000000  0.4797090000000  0.5179820000000 1.0
C      1  0.4606490000000  0.4708110000000  0.5294920000000 1.0
C      1  0.4889730000000  0.5232450000000  0.4509980000000 1.0
C      1  0.5422300000000  0.5280610000000  0.5232700000000 1.0
C      1  0.4585010000000  0.5198400000000  0.5369930000000 1.0
C      1  0.4830260000000  0.4265500000000  0.5057450000000 1.0
C      1  0.5033900000000  0.4262100000000  0.4805020000000 1.0
C      1  0.5132170000000  0.4217260000000  0.5182870000000 1.0
C      1  0.4793290000000  0.5731160000000  0.4973750000000 1.0
C      1  0.5112090000000  0.5724530000000  0.4788960000000 1.0
C      1  0.5125070000000  0.5722670000000  0.5153630000000 1.0
C      1  0.4292500000000  0.4320610000000  0.5162070000000 1.0
C      1  0.5135800000000  0.4305800000000  0.4300550000000 1.0
C      1  0.5500980000000  0.4285340000000  0.5546730000000 1.0
C      1  0.4293380000000  0.5707190000000  0.5133050000000 1.0
C      1  0.5220320000000  0.5698050000000  0.4286000000000 1.0
C      1  0.5511740000000  0.5719280000000  0.5512180000000 1.0
C      1  0.5775390000000  0.5254390000000  0.4803330000000 1.0
C      1  0.4897070000000  0.5061520000000  0.5766360000000 1.0
C      1  0.4460400000000  0.5128340000000  0.4480150000000 1.0
C      1  0.5744130000000  0.4938210000000  0.4828480000000 1.0
C      1  0.4762280000000  0.4797060000000  0.5742500000000 1.0
C      1  0.4491990000000  0.4823570000000  0.4450810000000 1.0
C      1  0.4107730000000  0.4337630000000  0.4939190000000 1.0
C      1  0.5418500000000  0.4365500000000  0.4301370000000 1.0
C      1  0.5386530000000  0.4263170000000  0.5812130000000 1.0
C      1  0.4139520000000  0.5672360000000  0.4889660000000 1.0
C      1  0.5504740000000  0.5637150000000  0.4288770000000 1.0
C      1  0.5365560000000  0.5658040000000  0.5754260000000 1.0
C      1  0.5223700000000  0.6069830000000  0.4529950000000 1.0
C      1  0.5280210000000  0.6076120000000  0.5377170000000 1.0
C      1  0.4517510000000  0.6075590000000  0.5012340000000 1.0
C      1  0.5146480000000  0.3926650000000  0.4543230000000 1.0
C      1  0.5329390000000  0.3882780000000  0.5398870000000 1.0
C      1  0.4475770000000  0.3931450000000  0.5042380000000 1.0
C      1  0.4264730000000  0.4264430000000  0.4721060000000 1.0
C      1  0.5507100000000  0.4287630000000  0.4545670000000 1.0
C      1  0.5125240000000  0.4182730000000  0.5759780000000 1.0
C      1  0.4322790000000  0.5722090000000  0.4689780000000 1.0
C      1  0.5580580000000  0.5691820000000  0.4546780000000 1.0
C      1  0.5104750000000  0.5714630000000  0.5690620000000 1.0
C      1  0.3936920000000  0.4847270000000  0.5004480000000 1.0
C      1  0.5544670000000  0.4860440000000  0.4123390000000 1.0
C      1  0.5562380000000  0.4842530000000  0.5869320000000 1.0
C      1  0.3951780000000  0.5165460000000  0.5019940000000 1.0
C      1  0.5529800000000  0.5171420000000  0.4105040000000 1.0
C      1  0.5574000000000  0.5143430000000  0.5876680000000 1.0
C      1  0.4815560000000  0.4803560000000  0.4800130000000 1.0
C      1  0.5274290000000  0.4868020000000  0.4972750000000 1.0
C      1  0.4899160000000  0.4800390000000  0.5285030000000 1.0
C      1  0.4790730000000  0.5131040000000  0.4802910000000 1.0
C      1  0.5243750000000  0.5174460000000  0.4992050000000 1.0
C      1  0.4869220000000  0.5110900000000  0.5303850000000 1.0
C      1  0.4776930000000  0.5257390000000  0.5968940000000 1.0
C      1  0.4293670000000  0.5269960000000  0.4282290000000 1.0
C      1  0.6054060000000  0.5338110000000  0.4726690000000 1.0
C      1  0.4774730000000  0.4667210000000  0.5992440000000 1.0
C      1  0.4260310000000  0.4715620000000  0.4303210000000 1.0
C      1  0.5986540000000  0.4781810000000  0.4748990000000 1.0
C      1  0.5194770000000  0.5168260000000  0.4484460000000 1.0
C      1  0.5341610000000  0.5152700000000  0.5501480000000 1.0
C      1  0.4399570000000  0.5164730000000  0.5146850000000 1.0
C      1  0.5223250000000  0.4851220000000  0.4479510000000 1.0
C      1  0.5393120000000  0.4842610000000  0.5456590000000 1.0
C      1  0.4382630000000  0.4867050000000  0.5154300000000 1.0
C      1  0.5536740000000  0.6007050000000  0.5474670000000 1.0
C      1  0.4316520000000  0.5991320000000  0.5192700000000 1.0
C      1  0.5175540000000  0.5985820000000  0.4262820000000 1.0
C      1  0.5572740000000  0.4017090000000  0.5460640000000 1.0
C      1  0.4311910000000  0.4042210000000  0.5241250000000 1.0
C      1  0.5095140000000  0.4017270000000  0.4276880000000 1.0
C      1  0.4226950000000  0.5607870000000  0.5592760000000 1.0
C      1  0.4862310000000  0.5569050000000  0.4013680000000 1.0
C      1  0.5933870000000  0.5621670000000  0.5341010000000 1.0
C      1  0.4326680000000  0.4532800000000  0.5639000000000 1.0
C      1  0.4772880000000  0.4572760000000  0.4098310000000 1.0
C      1  0.5903480000000  0.4435070000000  0.5339580000000 1.0
C      1  0.5025900000000  0.5107930000000  0.4035080000000 1.0
C      1  0.5873320000000  0.5171020000000  0.5441370000000 1.0
C      1  0.4124080000000  0.5113510000000  0.5518010000000 1.0
C      1  0.5115810000000  0.4884510000000  0.3898550000000 1.0
C      1  0.5890690000000  0.4893040000000  0.5483330000000 1.0
C      1  0.3977380000000  0.4881930000000  0.5488100000000 1.0
C      1  0.4420860000000  0.4014340000000  0.4758550000000 1.0
C      1  0.5394200000000  0.4048380000000  0.4663670000000 1.0
C      1  0.5087730000000  0.3978340000000  0.5549740000000 1.0
C      1  0.4494560000000  0.5959060000000  0.4738220000000 1.0
C      1  0.5467960000000  0.5947420000000  0.4649800000000 1.0
C      1  0.5057970000000  0.5951260000000  0.5525810000000 1.0
C      1  0.4581020000000  0.5569590000000  0.5135690000000 1.0
C      1  0.5042730000000  0.5581660000000  0.4520510000000 1.0
C      1  0.5401860000000  0.5587810000000  0.5243370000000 1.0
C      1  0.4573290000000  0.4464790000000  0.5091900000000 1.0
C      1  0.4959210000000  0.4409410000000  0.4536560000000 1.0
C      1  0.5305590000000  0.4422650000000  0.5341640000000 1.0
C      1  0.5008050000000  0.4741750000000  0.5016110000000 1.0
C      1  0.4958680000000  0.5221400000000  0.5038370000000 1.0
END
