TITL C-3577089-586-367 9.7234241367848e-07 125000 -918.546640107477 0 0 150 (C1) n - 1
REM
REM in /home/bkarasulu/work/CARBON/AIRSS/Generating-Clusters/EDIP-Nigel-Params/with-SteepDescent/Higher-Symm/SD-CG/HFTN-CG
REM
REM
REM
REM
REM
REM ./C.cell (12c818d87b63d06a65506943cc24bca4)
REM
REM compiler GCC version 9.2.1 20190827 (Red Hat 9.2.1-1)
REM options -cpp -mtune=generic -march=x86-64 -g -O0 -fpre-include=/usr/include/finclude/math-vector-fortran.h
REM seed -939731665 -407207218 301447894 -766132062 1861303040 -1558535133 1897369745 1528611403 765519105 724541537 1310724491 806709171 -1385898504 1119954091 550465975 331377221 -293041205 1370528571 1298861845 -1157673556 -1367228563 224268709 1545374049 -1616907850 1092539658 -1099109360 -606082689 1753340768 78413183 756683468 2066629866 -590370183 1660112430
REM
CELL 1.54180   50.00000   50.00000   50.00000   90.00000   90.00000   90.00000
LATT -1
SFAC C  
C      1  0.4172920000000  0.4997770000000  0.5713440000000 1.0
C      1  0.4000070000000  0.5046620000000  0.4783210000000 1.0
C      1  0.4543610000000  0.5012180000000  0.4058310000000 1.0
C      1  0.5488510000000  0.4992380000000  0.4043560000000 1.0
C      1  0.6047190000000  0.5000030000000  0.4783630000000 1.0
C      1  0.5810720000000  0.5009240000000  0.5638920000000 1.0
C      1  0.4961380000000  0.5002240000000  0.6066370000000 1.0
C      1  0.5063370000000  0.4745680000000  0.5570250000000 1.0
C      1  0.4527770000000  0.4704550000000  0.5510380000000 1.0
C      1  0.4336160000000  0.4724620000000  0.4993310000000 1.0
C      1  0.4692790000000  0.4653340000000  0.4485340000000 1.0
C      1  0.5177990000000  0.4687820000000  0.4385510000000 1.0
C      1  0.5610150000000  0.4710890000000  0.4705050000000 1.0
C      1  0.5603190000000  0.4694490000000  0.5256690000000 1.0
C      1  0.4665730000000  0.5244750000000  0.4344310000000 1.0
C      1  0.5304040000000  0.5231710000000  0.4285210000000 1.0
C      1  0.5736900000000  0.5232780000000  0.4783480000000 1.0
C      1  0.5559780000000  0.5218350000000  0.5404060000000 1.0
C      1  0.5012690000000  0.5219660000000  0.5749790000000 1.0
C      1  0.4361500000000  0.5392550000000  0.5642740000000 1.0
C      1  0.4370510000000  0.5257630000000  0.4896930000000 1.0
C      1  0.4796870000000  0.4371520000000  0.4250310000000 1.0
C      1  0.5492040000000  0.4341630000000  0.4310630000000 1.0
C      1  0.5848880000000  0.4345160000000  0.4916710000000 1.0
C      1  0.5529750000000  0.4405140000000  0.5532900000000 1.0
C      1  0.4920910000000  0.4370910000000  0.5824670000000 1.0
C      1  0.4270980000000  0.4327180000000  0.5390770000000 1.0
C      1  0.4245760000000  0.4361540000000  0.4754620000000 1.0
C      1  0.4873400000000  0.4816880000000  0.4021360000000 1.0
C      1  0.5678320000000  0.4814350000000  0.4279820000000 1.0
C      1  0.5976480000000  0.4829700000000  0.5066720000000 1.0
C      1  0.5521410000000  0.4809070000000  0.5792780000000 1.0
C      1  0.4691320000000  0.4853980000000  0.5895310000000 1.0
C      1  0.4145860000000  0.4774730000000  0.5214160000000 1.0
C      1  0.4180060000000  0.4843980000000  0.4552940000000 1.0
C      1  0.5982690000000  0.4522390000000  0.5111200000000 1.0
C      1  0.5433930000000  0.4521260000000  0.5787510000000 1.0
C      1  0.4665410000000  0.4528650000000  0.5890770000000 1.0
C      1  0.4066430000000  0.4475660000000  0.5241200000000 1.0
C      1  0.4223820000000  0.4545460000000  0.4527970000000 1.0
C      1  0.4944950000000  0.4526460000000  0.4043880000000 1.0
C      1  0.5726950000000  0.4514790000000  0.4323800000000 1.0
C      1  0.5164840000000  0.5783780000000  0.5798690000000 1.0
C      1  0.4484920000000  0.5661070000000  0.5600470000000 1.0
C      1  0.4179720000000  0.5817520000000  0.4985020000000 1.0
C      1  0.4520140000000  0.5773070000000  0.4353940000000 1.0
C      1  0.5216550000000  0.5755920000000  0.4206220000000 1.0
C      1  0.5751660000000  0.5746550000000  0.4665020000000 1.0
C      1  0.5730050000000  0.5752190000000  0.5372550000000 1.0
C      1  0.5196180000000  0.4996040000000  0.4701120000000 1.0
C      1  0.5337090000000  0.5042770000000  0.4952540000000 1.0
C      1  0.5211080000000  0.4895560000000  0.5183230000000 1.0
C      1  0.4746350000000  0.5100600000000  0.5378890000000 1.0
C      1  0.4432780000000  0.5151910000000  0.5389610000000 1.0
C      1  0.4732280000000  0.4914540000000  0.4867660000000 1.0
C      1  0.4907890000000  0.5057060000000  0.4666650000000 1.0
C      1  0.5055060000000  0.5203700000000  0.4133100000000 1.0
C      1  0.5696220000000  0.5199640000000  0.4495590000000 1.0
C      1  0.5795730000000  0.5203280000000  0.5220060000000 1.0
C      1  0.5300060000000  0.5188080000000  0.5758420000000 1.0
C      1  0.4452810000000  0.5299650000000  0.5906910000000 1.0
C      1  0.4223100000000  0.5234160000000  0.5167630000000 1.0
C      1  0.4398630000000  0.5214120000000  0.4460090000000 1.0
C      1  0.4474380000000  0.5768210000000  0.5336530000000 1.0
C      1  0.4388160000000  0.5844480000000  0.4802160000000 1.0
C      1  0.4789520000000  0.5792070000000  0.4400310000000 1.0
C      1  0.5337400000000  0.5762340000000  0.4452660000000 1.0
C      1  0.5639620000000  0.5767400000000  0.4914830000000 1.0
C      1  0.5465750000000  0.5783920000000  0.5439820000000 1.0
C      1  0.4941750000000  0.5825720000000  0.5643060000000 1.0
C      1  0.5124620000000  0.4973960000000  0.3970980000000 1.0
C      1  0.5871690000000  0.4969240000000  0.4459850000000 1.0
C      1  0.5932320000000  0.4978270000000  0.5344370000000 1.0
C      1  0.5316030000000  0.4971090000000  0.5946290000000 1.0
C      1  0.4409170000000  0.5010260000000  0.5915480000000 1.0
C      1  0.4015040000000  0.5016870000000  0.5085970000000 1.0
C      1  0.4308040000000  0.4984290000000  0.4302710000000 1.0
C      1  0.4944980000000  0.4109330000000  0.5305520000000 1.0
C      1  0.4716660000000  0.4112890000000  0.5126000000000 1.0
C      1  0.4726230000000  0.4112350000000  0.4840200000000 1.0
C      1  0.4973540000000  0.4098050000000  0.4674750000000 1.0
C      1  0.5265200000000  0.4068630000000  0.4729440000000 1.0
C      1  0.5385650000000  0.4057340000000  0.4989300000000 1.0
C      1  0.5227490000000  0.4093460000000  0.5230540000000 1.0
C      1  0.4704270000000  0.5443930000000  0.5961720000000 1.0
C      1  0.4066720000000  0.5454740000000  0.5311900000000 1.0
C      1  0.4214400000000  0.5432980000000  0.4529250000000 1.0
C      1  0.4897880000000  0.5430390000000  0.4023770000000 1.0
C      1  0.5702810000000  0.5420310000000  0.4302930000000 1.0
C      1  0.5967580000000  0.5419320000000  0.5110330000000 1.0
C      1  0.5495330000000  0.5406320000000  0.5795530000000 1.0
C      1  0.5436610000000  0.4917240000000  0.5431990000000 1.0
C      1  0.4864410000000  0.4967950000000  0.5635790000000 1.0
C      1  0.4305360000000  0.4887780000000  0.5463390000000 1.0
C      1  0.4430840000000  0.4963150000000  0.4823070000000 1.0
C      1  0.4813200000000  0.4935630000000  0.4385190000000 1.0
C      1  0.5344150000000  0.4938910000000  0.4443890000000 1.0
C      1  0.5633050000000  0.4942870000000  0.4906360000000 1.0
C      1  0.4450920000000  0.4185600000000  0.5215870000000 1.0
C      1  0.4474160000000  0.4194020000000  0.4745960000000 1.0
C      1  0.4982650000000  0.4216070000000  0.4414960000000 1.0
C      1  0.5462040000000  0.4166610000000  0.4538020000000 1.0
C      1  0.5659210000000  0.4146610000000  0.5000090000000 1.0
C      1  0.5401590000000  0.4179330000000  0.5426200000000 1.0
C      1  0.4893100000000  0.4217020000000  0.5569880000000 1.0
C      1  0.5835720000000  0.4552830000000  0.4600780000000 1.0
C      1  0.5846890000000  0.4544240000000  0.5374730000000 1.0
C      1  0.5135070000000  0.4589970000000  0.5813520000000 1.0
C      1  0.4467740000000  0.4480260000000  0.5680470000000 1.0
C      1  0.4068610000000  0.4373280000000  0.4976370000000 1.0
C      1  0.4455990000000  0.4518100000000  0.4362070000000 1.0
C      1  0.5220660000000  0.4545310000000  0.4136980000000 1.0
C      1  0.5617910000000  0.5683210000000  0.4433820000000 1.0
C      1  0.5826900000000  0.5688460000000  0.5123940000000 1.0
C      1  0.5405080000000  0.5684080000000  0.5706810000000 1.0
C      1  0.4727610000000  0.5660190000000  0.5747450000000 1.0
C      1  0.4199520000000  0.5724550000000  0.5244540000000 1.0
C      1  0.4333870000000  0.5709760000000  0.4546250000000 1.0
C      1  0.4952000000000  0.5689190000000  0.4178230000000 1.0
C      1  0.5257690000000  0.5872230000000  0.5243460000000 1.0
C      1  0.4972210000000  0.5886220000000  0.5348280000000 1.0
C      1  0.4706990000000  0.5915220000000  0.5193620000000 1.0
C      1  0.4675460000000  0.5910540000000  0.4884690000000 1.0
C      1  0.4893450000000  0.5880200000000  0.4668750000000 1.0
C      1  0.5194710000000  0.5856750000000  0.4701380000000 1.0
C      1  0.5356920000000  0.5859500000000  0.4957610000000 1.0
C      1  0.6051590000000  0.5315530000000  0.4840140000000 1.0
C      1  0.5757970000000  0.5301040000000  0.5710520000000 1.0
C      1  0.4906450000000  0.5293880000000  0.6110970000000 1.0
C      1  0.4068820000000  0.5333670000000  0.5604970000000 1.0
C      1  0.4033650000000  0.5335690000000  0.4730300000000 1.0
C      1  0.4614110000000  0.5324580000000  0.4026120000000 1.0
C      1  0.5538050000000  0.5312530000000  0.4075820000000 1.0
C      1  0.5174170000000  0.4483430000000  0.4614270000000 1.0
C      1  0.5451000000000  0.4466350000000  0.4787890000000 1.0
C      1  0.5422160000000  0.4472040000000  0.5125240000000 1.0
C      1  0.4968620000000  0.4539990000000  0.5367520000000 1.0
C      1  0.4704820000000  0.4648720000000  0.5274480000000 1.0
C      1  0.4554240000000  0.4511060000000  0.5031250000000 1.0
C      1  0.4744520000000  0.4621600000000  0.4796080000000 1.0
C      1  0.4902120000000  0.5347940000000  0.5341820000000 1.0
C      1  0.4756940000000  0.5482730000000  0.5148600000000 1.0
C      1  0.4647800000000  0.5389120000000  0.4911030000000 1.0
C      1  0.4865780000000  0.5343730000000  0.4720570000000 1.0
C      1  0.5106840000000  0.5443060000000  0.4834580000000 1.0
C      1  0.5287010000000  0.5326850000000  0.5020330000000 1.0
C      1  0.5177930000000  0.5332230000000  0.5280080000000 1.0
C      1  0.5020950000000  0.4560840000000  0.4852920000000 1.0
C      1  0.4820710000000  0.4907900000000  0.5164690000000 1.0
C      1  0.5151010000000  0.4600250000000  0.5123090000000 1.0
END
