TITL C-3577082-504-661 -7.32149091120856e-07 125000 -583.755589761117 0 0 94 (C1) n - 1
REM
REM in /home/bkarasulu/work/CARBON/AIRSS/Generating-Clusters/EDIP-Nigel-Params/with-SteepDescent/Higher-Symm/SD-CG/HFTN-CG
REM
REM
REM
REM
REM
REM ./C.cell (12c818d87b63d06a65506943cc24bca4)
REM
REM compiler GCC version 9.2.1 20190827 (Red Hat 9.2.1-1)
REM options -cpp -mtune=generic -march=x86-64 -g -O0 -fpre-include=/usr/include/finclude/math-vector-fortran.h
REM seed -994886378 -1545599112 -1719218031 1422073769 1968395081 -261215014 1256956432 -1693594438 1222784603 336127850 -955273886 470342489 -1782666197 755598295 -1404826158 944158400 -2144956811 -1532849149 291273818 640350319 -2085695230 1150432548 -1747310293 1415726800 -269550838 -341556685 574083962 -1824276135 769439343 -837497193 -2083192139 -1946571340 906941640
REM
CELL 1.54180   50.00000   50.00000   50.00000   90.00000   90.00000   90.00000
LATT -1
SFAC C  
C      1  0.4986890000000  0.5416850000000  0.5122830000000 1.0
C      1  0.4975280000000  0.5002160000000  0.5422030000000 1.0
C      1  0.4974540000000  0.4611160000000  0.5153940000000 1.0
C      1  0.4959540000000  0.4688720000000  0.4657970000000 1.0
C      1  0.4987360000000  0.5194420000000  0.4647630000000 1.0
C      1  0.4554750000000  0.5815070000000  0.5269060000000 1.0
C      1  0.4491060000000  0.4902200000000  0.5692800000000 1.0
C      1  0.4557200000000  0.4304640000000  0.5304130000000 1.0
C      1  0.4454870000000  0.4613310000000  0.4394770000000 1.0
C      1  0.4539950000000  0.5337990000000  0.4436700000000 1.0
C      1  0.5261100000000  0.4262010000000  0.4848470000000 1.0
C      1  0.5251400000000  0.4872650000000  0.4321130000000 1.0
C      1  0.5262340000000  0.5714270000000  0.4758500000000 1.0
C      1  0.5255590000000  0.5424310000000  0.5501640000000 1.0
C      1  0.5296330000000  0.4680970000000  0.5593480000000 1.0
C      1  0.4114490000000  0.4789950000000  0.4950710000000 1.0
C      1  0.4262270000000  0.4957290000000  0.4716830000000 1.0
C      1  0.4175170000000  0.5240260000000  0.4758580000000 1.0
C      1  0.4095860000000  0.5267540000000  0.5046540000000 1.0
C      1  0.4104770000000  0.4991400000000  0.5165240000000 1.0
C      1  0.4556940000000  0.4930660000000  0.4822650000000 1.0
C      1  0.4366520000000  0.5430840000000  0.4648400000000 1.0
C      1  0.4260650000000  0.5448430000000  0.5214860000000 1.0
C      1  0.4388430000000  0.5029480000000  0.5281590000000 1.0
C      1  0.4293760000000  0.4561320000000  0.5041730000000 1.0
C      1  0.5224390000000  0.4568100000000  0.4272490000000 1.0
C      1  0.5284600000000  0.5469480000000  0.4330220000000 1.0
C      1  0.5260720000000  0.5720820000000  0.5424070000000 1.0
C      1  0.5262290000000  0.4909980000000  0.5809710000000 1.0
C      1  0.5278680000000  0.4223130000000  0.5141430000000 1.0
C      1  0.5606320000000  0.5626970000000  0.5072120000000 1.0
C      1  0.5531390000000  0.5062680000000  0.5413670000000 1.0
C      1  0.5597600000000  0.4573720000000  0.5247940000000 1.0
C      1  0.5548170000000  0.4600370000000  0.4642420000000 1.0
C      1  0.5567670000000  0.5116430000000  0.4521280000000 1.0
C      1  0.5007250000000  0.5709970000000  0.5239230000000 1.0
C      1  0.4991460000000  0.5043240000000  0.5727130000000 1.0
C      1  0.5038830000000  0.4344940000000  0.5285990000000 1.0
C      1  0.4968690000000  0.4482720000000  0.4428870000000 1.0
C      1  0.5024510000000  0.5321380000000  0.4369820000000 1.0
C      1  0.5524970000000  0.4976730000000  0.4275520000000 1.0
C      1  0.5479690000000  0.5820310000000  0.4906780000000 1.0
C      1  0.5512750000000  0.5310180000000  0.5609160000000 1.0
C      1  0.5560420000000  0.4560700000000  0.5532780000000 1.0
C      1  0.5509700000000  0.4317910000000  0.4722560000000 1.0
C      1  0.5773320000000  0.5052710000000  0.4718550000000 1.0
C      1  0.5829840000000  0.5470110000000  0.5001470000000 1.0
C      1  0.5760360000000  0.5031570000000  0.5209700000000 1.0
C      1  0.5779220000000  0.4755440000000  0.5100950000000 1.0
C      1  0.5774430000000  0.4763250000000  0.4795010000000 1.0
C      1  0.4507630000000  0.5078080000000  0.4299950000000 1.0
C      1  0.4408160000000  0.5665740000000  0.5087510000000 1.0
C      1  0.4420020000000  0.5180010000000  0.5664540000000 1.0
C      1  0.4376310000000  0.4520860000000  0.5322180000000 1.0
C      1  0.4455960000000  0.4480950000000  0.4636020000000 1.0
C      1  0.4497600000000  0.5631560000000  0.4808620000000 1.0
C      1  0.4310340000000  0.5372370000000  0.5492500000000 1.0
C      1  0.4503690000000  0.4781400000000  0.5415920000000 1.0
C      1  0.4536650000000  0.4621460000000  0.4872030000000 1.0
C      1  0.4318230000000  0.4882010000000  0.4419020000000 1.0
C      1  0.4778440000000  0.5506520000000  0.4410230000000 1.0
C      1  0.4770570000000  0.5718170000000  0.5414610000000 1.0
C      1  0.4762040000000  0.4840950000000  0.5804770000000 1.0
C      1  0.4790450000000  0.4203410000000  0.5182590000000 1.0
C      1  0.4728780000000  0.4627990000000  0.4282100000000 1.0
C      1  0.5244170000000  0.5307690000000  0.5201740000000 1.0
C      1  0.5265490000000  0.4895080000000  0.5364950000000 1.0
C      1  0.5226550000000  0.4770670000000  0.5108430000000 1.0
C      1  0.5229830000000  0.4823680000000  0.4644250000000 1.0
C      1  0.5301390000000  0.5420890000000  0.4702380000000 1.0
C      1  0.4812110000000  0.4755120000000  0.5372510000000 1.0
C      1  0.4828240000000  0.4549100000000  0.4903920000000 1.0
C      1  0.4792320000000  0.4945970000000  0.4605820000000 1.0
C      1  0.4878720000000  0.5405490000000  0.4834030000000 1.0
C      1  0.4809410000000  0.5238280000000  0.5281730000000 1.0
C      1  0.4749530000000  0.5435530000000  0.5520690000000 1.0
C      1  0.4834100000000  0.4568850000000  0.5708860000000 1.0
C      1  0.4800690000000  0.4168880000000  0.4884480000000 1.0
C      1  0.4754630000000  0.4923340000000  0.4220120000000 1.0
C      1  0.4748080000000  0.5717930000000  0.4653920000000 1.0
C      1  0.5510220000000  0.5787090000000  0.5292940000000 1.0
C      1  0.5487660000000  0.5092120000000  0.5800100000000 1.0
C      1  0.5537170000000  0.4293940000000  0.5252400000000 1.0
C      1  0.5479780000000  0.4466560000000  0.4373280000000 1.0
C      1  0.5544900000000  0.5355150000000  0.4363160000000 1.0
C      1  0.5024980000000  0.5055170000000  0.4221400000000 1.0
C      1  0.4993250000000  0.5773610000000  0.4856410000000 1.0
C      1  0.4999130000000  0.5359990000000  0.5681910000000 1.0
C      1  0.5074940000000  0.4469480000000  0.5579780000000 1.0
C      1  0.5016430000000  0.4224280000000  0.4686990000000 1.0
C      1  0.5390790000000  0.5228040000000  0.4948700000000 1.0
C      1  0.4600090000000  0.5095620000000  0.5088070000000 1.0
C      1  0.5706720000000  0.5204880000000  0.4972760000000 1.0
C      1  0.5260330000000  0.4960870000000  0.4899200000000 1.0
END
