TITL C-3578204-4308-428 4.56052749948472e-07 125000 -262.037501169125 0 0 43 (C1) n - 1
REM
REM in /home/bkarasulu/work/CARBON/AIRSS/Generating-Clusters/EDIP-Nigel-Params/with-SteepDescent/Higher-Symm/SD-CG/HFTN-CG
REM
REM
REM
REM
REM
REM ./C.cell (12c818d87b63d06a65506943cc24bca4)
REM
REM compiler GCC version 9.2.1 20190827 (Red Hat 9.2.1-1)
REM options -cpp -mtune=generic -march=x86-64 -g -O0 -fpre-include=/usr/include/finclude/math-vector-fortran.h
REM seed -556307951 2115406162 -42203152 1238742799 953178947 1882308993 -298914674 1131348257 -348065564 62821837 693075435 335341219 713789003 -2078748731 -1075357160 1234832468 -1522049421 306680630 -2070780996 1501565951 1161741820 545151212 -1634437164 1337656442 1073211105 145875254 1777016592 355056515 -435697126 1476453726 1118273097 -175303407 2084641379
REM
CELL 1.54180   50.00000   50.00000   50.00000   90.00000   90.00000   90.00000
LATT -1
SFAC C  
C      1  0.5318420000000  0.5026310000000  0.4533150000000 1.0
C      1  0.5342890000000  0.5464580000000  0.4781220000000 1.0
C      1  0.5338620000000  0.5427600000000  0.5267410000000 1.0
C      1  0.5303190000000  0.4964310000000  0.5479970000000 1.0
C      1  0.5315210000000  0.4553690000000  0.5223490000000 1.0
C      1  0.5327660000000  0.4576040000000  0.4718730000000 1.0
C      1  0.5389690000000  0.4989730000000  0.5192640000000 1.0
C      1  0.5533120000000  0.4738870000000  0.5125530000000 1.0
C      1  0.5564200000000  0.4729720000000  0.4828160000000 1.0
C      1  0.5557160000000  0.5014900000000  0.4703310000000 1.0
C      1  0.5573880000000  0.5285630000000  0.4862470000000 1.0
C      1  0.5543600000000  0.5240880000000  0.5154750000000 1.0
C      1  0.4545080000000  0.5037020000000  0.4724150000000 1.0
C      1  0.4493710000000  0.5281250000000  0.4881230000000 1.0
C      1  0.4537510000000  0.5250300000000  0.5173920000000 1.0
C      1  0.4481440000000  0.4986830000000  0.5304760000000 1.0
C      1  0.4532220000000  0.4749740000000  0.5128990000000 1.0
C      1  0.4485940000000  0.4768870000000  0.4838180000000 1.0
C      1  0.4909420000000  0.5489580000000  0.5010710000000 1.0
C      1  0.4908490000000  0.5039170000000  0.5295830000000 1.0
C      1  0.4884050000000  0.4753980000000  0.5428770000000 1.0
C      1  0.4918540000000  0.4752200000000  0.4910300000000 1.0
C      1  0.4896940000000  0.4771680000000  0.4595870000000 1.0
C      1  0.4927700000000  0.5224430000000  0.4847790000000 1.0
C      1  0.5159660000000  0.5273690000000  0.4609430000000 1.0
C      1  0.5203860000000  0.5558030000000  0.5034110000000 1.0
C      1  0.5168990000000  0.5260410000000  0.5469440000000 1.0
C      1  0.5178090000000  0.4689790000000  0.5464000000000 1.0
C      1  0.5146620000000  0.4510420000000  0.4972680000000 1.0
C      1  0.5188120000000  0.4758730000000  0.4523640000000 1.0
C      1  0.4890740000000  0.5274080000000  0.4469200000000 1.0
C      1  0.4762690000000  0.5676650000000  0.4840830000000 1.0
C      1  0.4881400000000  0.5345020000000  0.5507350000000 1.0
C      1  0.4731790000000  0.4803900000000  0.5673700000000 1.0
C      1  0.4870820000000  0.4400740000000  0.5050960000000 1.0
C      1  0.4745820000000  0.4535550000000  0.4512900000000 1.0
C      1  0.4742540000000  0.5442820000000  0.5271260000000 1.0
C      1  0.4521230000000  0.4955690000000  0.5585810000000 1.0
C      1  0.4722080000000  0.4555610000000  0.5249070000000 1.0
C      1  0.4526020000000  0.4540510000000  0.4674780000000 1.0
C      1  0.4741140000000  0.5027320000000  0.4502980000000 1.0
C      1  0.4542310000000  0.5535050000000  0.4764700000000 1.0
C      1  0.5035980000000  0.5004860000000  0.5026120000000 1.0
END
