TITL C-3578203-1966-268 4.71379717443945e-06 125000 -1158.27368108095 0 0 186 (C1) n - 1
REM
REM in /home/bkarasulu/work/CARBON/AIRSS/Generating-Clusters/EDIP-Nigel-Params/with-SteepDescent/Higher-Symm/SD-CG/HFTN-CG
REM
REM
REM
REM
REM
REM ./C.cell (12c818d87b63d06a65506943cc24bca4)
REM
REM compiler GCC version 9.2.1 20190827 (Red Hat 9.2.1-1)
REM options -cpp -mtune=generic -march=x86-64 -g -O0 -fpre-include=/usr/include/finclude/math-vector-fortran.h
REM seed 1806721624 566506318 -1716315551 180843571 341403751 1254879694 -979092049 340587750 1059492274 1364179165 -1082151019 -657174447 -90268398 1908650979 -153409158 -2062070602 351956077 -1666362991 -1525192421 896741164 -2033355775 288843010 -1011821082 -1614851538 -28688918 -476728708 2054328352 1758892422 -337985605 -661828040 1773987767 -918829842 1596084582
REM
CELL 1.54180   50.00000   50.00000   50.00000   90.00000   90.00000   90.00000
LATT -1
SFAC C  
C      1  0.5413720000000  0.4237440000000  0.4464030000000 1.0
C      1  0.5390890000000  0.4903540000000  0.5876390000000 1.0
C      1  0.5380150000000  0.5836700000000  0.4608340000000 1.0
C      1  0.4514170000000  0.4935830000000  0.5716070000000 1.0
C      1  0.4517680000000  0.5663370000000  0.4685980000000 1.0
C      1  0.4552970000000  0.4404690000000  0.4594490000000 1.0
C      1  0.4750100000000  0.4785260000000  0.5191100000000 1.0
C      1  0.4756480000000  0.5295820000000  0.5089810000000 1.0
C      1  0.4769150000000  0.4951030000000  0.4700990000000 1.0
C      1  0.5238490000000  0.4271920000000  0.5133390000000 1.0
C      1  0.5339450000000  0.5379020000000  0.5842150000000 1.0
C      1  0.5347130000000  0.5544790000000  0.4236460000000 1.0
C      1  0.3976080000000  0.4874400000000  0.4560180000000 1.0
C      1  0.3956810000000  0.4675940000000  0.5339380000000 1.0
C      1  0.3954500000000  0.5452710000000  0.5137520000000 1.0
C      1  0.5975190000000  0.4922710000000  0.4480100000000 1.0
C      1  0.5910110000000  0.4427310000000  0.5346270000000 1.0
C      1  0.5950640000000  0.5590580000000  0.5218390000000 1.0
C      1  0.5689300000000  0.4335610000000  0.4874490000000 1.0
C      1  0.5693860000000  0.5241530000000  0.5601830000000 1.0
C      1  0.5699110000000  0.5425290000000  0.4511260000000 1.0
C      1  0.4888570000000  0.5432990000000  0.5953660000000 1.0
C      1  0.4891240000000  0.5607190000000  0.4113320000000 1.0
C      1  0.4922930000000  0.3935190000000  0.4924820000000 1.0
C      1  0.5044220000000  0.4395150000000  0.5309100000000 1.0
C      1  0.5069340000000  0.5547580000000  0.5382920000000 1.0
C      1  0.5079260000000  0.5070050000000  0.4331670000000 1.0
C      1  0.6060610000000  0.4765420000000  0.5227660000000 1.0
C      1  0.6163730000000  0.5289280000000  0.5133420000000 1.0
C      1  0.6128610000000  0.4958450000000  0.4734140000000 1.0
C      1  0.5235950000000  0.5804100000000  0.4346890000000 1.0
C      1  0.5269960000000  0.4008940000000  0.4609360000000 1.0
C      1  0.5241520000000  0.5138090000000  0.5992990000000 1.0
C      1  0.5214940000000  0.4452750000000  0.6010850000000 1.0
C      1  0.5197720000000  0.6158170000000  0.4954040000000 1.0
C      1  0.5224240000000  0.4389990000000  0.4027880000000 1.0
C      1  0.5401010000000  0.3907720000000  0.4872050000000 1.0
C      1  0.5574450000000  0.5488490000000  0.5982990000000 1.0
C      1  0.5592970000000  0.5603720000000  0.4084710000000 1.0
C      1  0.4276980000000  0.5360430000000  0.4350480000000 1.0
C      1  0.4254270000000  0.4263350000000  0.5041180000000 1.0
C      1  0.4272320000000  0.5384110000000  0.5644310000000 1.0
C      1  0.5069040000000  0.4875450000000  0.4096120000000 1.0
C      1  0.5041130000000  0.4239910000000  0.5584990000000 1.0
C      1  0.5045990000000  0.5852810000000  0.5346430000000 1.0
C      1  0.6098990000000  0.5232800000000  0.4842670000000 1.0
C      1  0.6041220000000  0.4750170000000  0.4930840000000 1.0
C      1  0.6124620000000  0.5043530000000  0.5327410000000 1.0
C      1  0.5238820000000  0.5663840000000  0.4795290000000 1.0
C      1  0.5271240000000  0.4491440000000  0.4516410000000 1.0
C      1  0.5236290000000  0.4831870000000  0.5638480000000 1.0
C      1  0.4199230000000  0.4151840000000  0.4681530000000 1.0
C      1  0.4141340000000  0.5138200000000  0.5903020000000 1.0
C      1  0.4143250000000  0.5700650000000  0.4451910000000 1.0
C      1  0.5887110000000  0.5192810000000  0.5388600000000 1.0
C      1  0.5838100000000  0.5338980000000  0.4780140000000 1.0
C      1  0.5806370000000  0.4626970000000  0.4828160000000 1.0
C      1  0.4802690000000  0.5214830000000  0.4296890000000 1.0
C      1  0.4759360000000  0.4337950000000  0.5225780000000 1.0
C      1  0.4791920000000  0.5497760000000  0.5526720000000 1.0
C      1  0.5670980000000  0.4532320000000  0.5848870000000 1.0
C      1  0.5658450000000  0.6025730000000  0.4929550000000 1.0
C      1  0.5691790000000  0.4436340000000  0.4135970000000 1.0
C      1  0.4135330000000  0.4631530000000  0.4530120000000 1.0
C      1  0.4092940000000  0.4775930000000  0.5572980000000 1.0
C      1  0.4104600000000  0.5603480000000  0.4942570000000 1.0
C      1  0.5173710000000  0.5844040000000  0.5773460000000 1.0
C      1  0.5196210000000  0.5240330000000  0.3874160000000 1.0
C      1  0.5200020000000  0.3835290000000  0.5333390000000 1.0
C      1  0.3846890000000  0.5343760000000  0.4611910000000 1.0
C      1  0.3919030000000  0.4427300000000  0.4930630000000 1.0
C      1  0.3832500000000  0.5184100000000  0.5520580000000 1.0
C      1  0.5776770000000  0.4918460000000  0.4152820000000 1.0
C      1  0.5703940000000  0.4249840000000  0.5433450000000 1.0
C      1  0.5763060000000  0.5787190000000  0.5356560000000 1.0
C      1  0.4955280000000  0.4602560000000  0.5987290000000 1.0
C      1  0.4937310000000  0.6082580000000  0.4829750000000 1.0
C      1  0.4960680000000  0.4311060000000  0.4145490000000 1.0
C      1  0.4435260000000  0.5355130000000  0.4103730000000 1.0
C      1  0.4431310000000  0.4055800000000  0.5189320000000 1.0
C      1  0.4435100000000  0.5595840000000  0.5760870000000 1.0
C      1  0.4463050000000  0.4399710000000  0.4209410000000 1.0
C      1  0.4444970000000  0.4619670000000  0.5939850000000 1.0
C      1  0.4435210000000  0.5995900000000  0.4882180000000 1.0
C      1  0.4039900000000  0.4388740000000  0.4675830000000 1.0
C      1  0.4004980000000  0.5029970000000  0.5676930000000 1.0
C      1  0.4029460000000  0.5550300000000  0.4666160000000 1.0
C      1  0.3951450000000  0.5195890000000  0.5267180000000 1.0
C      1  0.3966070000000  0.5114580000000  0.4721700000000 1.0
C      1  0.3967760000000  0.4682650000000  0.5048700000000 1.0
C      1  0.4525620000000  0.5777040000000  0.5557270000000 1.0
C      1  0.4526360000000  0.5088120000000  0.4055610000000 1.0
C      1  0.4507900000000  0.4165080000000  0.5476070000000 1.0
C      1  0.5035100000000  0.5377920000000  0.5139430000000 1.0
C      1  0.5046720000000  0.4956290000000  0.4602860000000 1.0
C      1  0.5024270000000  0.4698750000000  0.5275090000000 1.0
C      1  0.4194360000000  0.5023920000000  0.5223820000000 1.0
C      1  0.4201440000000  0.5178410000000  0.4896920000000 1.0
C      1  0.4216470000000  0.4807220000000  0.4921300000000 1.0
C      1  0.4273780000000  0.5061840000000  0.4410660000000 1.0
C      1  0.4283600000000  0.4482740000000  0.5267970000000 1.0
C      1  0.4263880000000  0.5491040000000  0.5361240000000 1.0
C      1  0.5185630000000  0.3979560000000  0.5071660000000 1.0
C      1  0.5112020000000  0.5563340000000  0.5822420000000 1.0
C      1  0.5122260000000  0.5430680000000  0.4081760000000 1.0
C      1  0.5781750000000  0.4750550000000  0.5677670000000 1.0
C      1  0.5771650000000  0.5777480000000  0.4822800000000 1.0
C      1  0.5798540000000  0.4474090000000  0.4411480000000 1.0
C      1  0.5273070000000  0.4300800000000  0.5763820000000 1.0
C      1  0.5271700000000  0.5997010000000  0.5197410000000 1.0
C      1  0.5297970000000  0.4675050000000  0.4075270000000 1.0
C      1  0.4897810000000  0.5375980000000  0.4597150000000 1.0
C      1  0.4939570000000  0.4509730000000  0.4859450000000 1.0
C      1  0.4897230000000  0.5157210000000  0.5504400000000 1.0
C      1  0.5024730000000  0.5019180000000  0.3843750000000 1.0
C      1  0.5035780000000  0.3957060000000  0.5524640000000 1.0
C      1  0.4993970000000  0.5981680000000  0.5605410000000 1.0
C      1  0.4579180000000  0.4566610000000  0.5309100000000 1.0
C      1  0.4623410000000  0.5539240000000  0.5214490000000 1.0
C      1  0.4638110000000  0.4918810000000  0.4429450000000 1.0
C      1  0.5504760000000  0.4693920000000  0.5199330000000 1.0
C      1  0.5493060000000  0.5369280000000  0.5154790000000 1.0
C      1  0.5495050000000  0.4966490000000  0.4590970000000 1.0
C      1  0.4360850000000  0.5861590000000  0.4530840000000 1.0
C      1  0.4414210000000  0.4159040000000  0.4502840000000 1.0
C      1  0.4375520000000  0.4996530000000  0.5970980000000 1.0
C      1  0.4796500000000  0.5815320000000  0.5153440000000 1.0
C      1  0.4819000000000  0.4725450000000  0.4221510000000 1.0
C      1  0.4767150000000  0.4376420000000  0.5657200000000 1.0
C      1  0.4699110000000  0.4454730000000  0.5939590000000 1.0
C      1  0.4692870000000  0.6075240000000  0.5006990000000 1.0
C      1  0.4714440000000  0.4469760000000  0.4068250000000 1.0
C      1  0.4966420000000  0.5775700000000  0.4828540000000 1.0
C      1  0.4996700000000  0.4467080000000  0.4409210000000 1.0
C      1  0.4960150000000  0.4721860000000  0.5705130000000 1.0
C      1  0.5447790000000  0.5879350000000  0.5726680000000 1.0
C      1  0.5471280000000  0.5187790000000  0.3884750000000 1.0
C      1  0.5471940000000  0.3819990000000  0.5392770000000 1.0
C      1  0.5656820000000  0.4032020000000  0.4984390000000 1.0
C      1  0.5752620000000  0.5494520000000  0.5763590000000 1.0
C      1  0.5765110000000  0.5412160000000  0.4206310000000 1.0
C      1  0.5212980000000  0.5063840000000  0.5445330000000 1.0
C      1  0.5217220000000  0.5375350000000  0.4719060000000 1.0
C      1  0.5233360000000  0.4592080000000  0.4795150000000 1.0
C      1  0.4970480000000  0.4045450000000  0.4658520000000 1.0
C      1  0.4938590000000  0.5144640000000  0.5982760000000 1.0
C      1  0.4934590000000  0.5786840000000  0.4340150000000 1.0
C      1  0.5653220000000  0.5719370000000  0.4566380000000 1.0
C      1  0.5680640000000  0.4269160000000  0.4581540000000 1.0
C      1  0.5660300000000  0.4997200000000  0.5774070000000 1.0
C      1  0.5557370000000  0.4318120000000  0.5683490000000 1.0
C      1  0.5562690000000  0.5932240000000  0.5186880000000 1.0
C      1  0.5594850000000  0.4704640000000  0.4067740000000 1.0
C      1  0.5261880000000  0.5244780000000  0.5005520000000 1.0
C      1  0.5272320000000  0.4899630000000  0.4776200000000 1.0
C      1  0.5257690000000  0.4876340000000  0.5189140000000 1.0
C      1  0.5427090000000  0.5273180000000  0.4507350000000 1.0
C      1  0.5425630000000  0.4468570000000  0.5002060000000 1.0
C      1  0.5423150000000  0.5302320000000  0.5461830000000 1.0
C      1  0.5657760000000  0.4003000000000  0.5283080000000 1.0
C      1  0.5670100000000  0.5738520000000  0.5625400000000 1.0
C      1  0.5691450000000  0.5170600000000  0.4059640000000 1.0
C      1  0.5747300000000  0.4751320000000  0.4562240000000 1.0
C      1  0.5777130000000  0.4687170000000  0.5373970000000 1.0
C      1  0.5747040000000  0.5521040000000  0.5001350000000 1.0
C      1  0.4702120000000  0.5236140000000  0.4789700000000 1.0
C      1  0.4725230000000  0.4718430000000  0.4896090000000 1.0
C      1  0.4696790000000  0.5073830000000  0.5289090000000 1.0
C      1  0.4816860000000  0.4989260000000  0.5742920000000 1.0
C      1  0.4814140000000  0.5664940000000  0.4598590000000 1.0
C      1  0.4851440000000  0.4337950000000  0.4634230000000 1.0
C      1  0.4452200000000  0.4596550000000  0.4837770000000 1.0
C      1  0.4424550000000  0.5092210000000  0.5436830000000 1.0
C      1  0.4420480000000  0.5340440000000  0.4711560000000 1.0
C      1  0.4669880000000  0.4011840000000  0.5034160000000 1.0
C      1  0.4629800000000  0.5514980000000  0.5930130000000 1.0
C      1  0.4629970000000  0.5540370000000  0.4068160000000 1.0
C      1  0.5453910000000  0.4239100000000  0.4153380000000 1.0
C      1  0.5450200000000  0.4642640000000  0.6032690000000 1.0
C      1  0.5421960000000  0.6110610000000  0.4756230000000 1.0
C      1  0.4269540000000  0.4339130000000  0.5535320000000 1.0
C      1  0.4304510000000  0.5805730000000  0.5353320000000 1.0
C      1  0.4308050000000  0.4899080000000  0.4142880000000 1.0
C      1  0.4319520000000  0.4638940000000  0.4298180000000 1.0
C      1  0.4255680000000  0.4575120000000  0.5712420000000 1.0
C      1  0.4301580000000  0.5796160000000  0.5049160000000 1.0
END
