TITL C-3578196-9646-212 2.15176052693591e-06 125000 -988.596851717211 0 0 162 (C1) n - 1
REM
REM in /home/bkarasulu/work/CARBON/AIRSS/Generating-Clusters/EDIP-Nigel-Params/with-SteepDescent/Higher-Symm/SD-CG/HFTN-CG
REM
REM
REM
REM
REM
REM ./C.cell (12c818d87b63d06a65506943cc24bca4)
REM
REM compiler GCC version 9.2.1 20190827 (Red Hat 9.2.1-1)
REM options -cpp -mtune=generic -march=x86-64 -g -O0 -fpre-include=/usr/include/finclude/math-vector-fortran.h
REM seed -2072061510 -870094500 2127949545 1189757701 1464260530 625748168 -1208053040 1389965014 -1869512556 -1068454388 -219814184 -785921796 -1210368661 -775471225 529668711 785970266 -1533192451 1266532233 -1802715681 1859345870 -974432517 1629168665 -1984801698 1966185980 -413846905 -1566577545 -579180637 65725014 406272730 -1106892319 -349024788 461795334 302832592
REM
CELL 1.54180   50.00000   50.00000   50.00000   90.00000   90.00000   90.00000
LATT -1
SFAC C  
C      1  0.5890110000000  0.4331170000000  0.5132230000000 1.0
C      1  0.4192230000000  0.4377920000000  0.4915340000000 1.0
C      1  0.5886050000000  0.5610570000000  0.4927670000000 1.0
C      1  0.4182410000000  0.5563630000000  0.5057990000000 1.0
C      1  0.5615860000000  0.5814150000000  0.4615920000000 1.0
C      1  0.4406330000000  0.5789620000000  0.5381630000000 1.0
C      1  0.5589270000000  0.4149620000000  0.5408800000000 1.0
C      1  0.4402280000000  0.4147490000000  0.4597540000000 1.0
C      1  0.4835040000000  0.5072750000000  0.3957520000000 1.0
C      1  0.5144000000000  0.5073270000000  0.6026080000000 1.0
C      1  0.4875060000000  0.4994290000000  0.6085580000000 1.0
C      1  0.5108850000000  0.4982580000000  0.3989200000000 1.0
C      1  0.5445330000000  0.4644210000000  0.4529400000000 1.0
C      1  0.4558410000000  0.4613050000000  0.5509520000000 1.0
C      1  0.5490410000000  0.5347180000000  0.5468170000000 1.0
C      1  0.4508090000000  0.5340860000000  0.4490680000000 1.0
C      1  0.5977710000000  0.4413690000000  0.4876050000000 1.0
C      1  0.4098250000000  0.4431010000000  0.5184270000000 1.0
C      1  0.5946270000000  0.5512470000000  0.5202020000000 1.0
C      1  0.4071410000000  0.5509710000000  0.4789020000000 1.0
C      1  0.4650490000000  0.4013720000000  0.4955130000000 1.0
C      1  0.5360420000000  0.4032250000000  0.5040770000000 1.0
C      1  0.4653340000000  0.5930920000000  0.5030410000000 1.0
C      1  0.5361340000000  0.5958890000000  0.4947630000000 1.0
C      1  0.5061730000000  0.4601490000000  0.5478470000000 1.0
C      1  0.4789440000000  0.4676320000000  0.4552190000000 1.0
C      1  0.5199720000000  0.5393340000000  0.4493380000000 1.0
C      1  0.4814300000000  0.5376160000000  0.5480550000000 1.0
C      1  0.5176460000000  0.5475700000000  0.5728830000000 1.0
C      1  0.4831240000000  0.5492780000000  0.4247940000000 1.0
C      1  0.5129830000000  0.4540940000000  0.4253370000000 1.0
C      1  0.4761970000000  0.4278260000000  0.5812990000000 1.0
C      1  0.5229820000000  0.5733250000000  0.5142210000000 1.0
C      1  0.4790140000000  0.5723040000000  0.4825180000000 1.0
C      1  0.5245710000000  0.4259100000000  0.4845760000000 1.0
C      1  0.4779530000000  0.4234780000000  0.5159890000000 1.0
C      1  0.4547910000000  0.4469620000000  0.5797120000000 1.0
C      1  0.5518070000000  0.4506430000000  0.4252000000000 1.0
C      1  0.4445510000000  0.5514750000000  0.4227520000000 1.0
C      1  0.5567480000000  0.5508650000000  0.5734500000000 1.0
C      1  0.4871490000000  0.6053730000000  0.4637750000000 1.0
C      1  0.5134340000000  0.6050880000000  0.5344770000000 1.0
C      1  0.4880920000000  0.3908300000000  0.5343610000000 1.0
C      1  0.5142340000000  0.3952010000000  0.4633700000000 1.0
C      1  0.5632780000000  0.4494390000000  0.6031630000000 1.0
C      1  0.4342130000000  0.4528720000000  0.3987780000000 1.0
C      1  0.5690400000000  0.5479850000000  0.3983640000000 1.0
C      1  0.4314720000000  0.5466580000000  0.6008050000000 1.0
C      1  0.4266010000000  0.5876000000000  0.4470910000000 1.0
C      1  0.5736630000000  0.5885730000000  0.5504160000000 1.0
C      1  0.4204500000000  0.4255940000000  0.5605850000000 1.0
C      1  0.5820720000000  0.4237990000000  0.4431620000000 1.0
C      1  0.5682090000000  0.4399990000000  0.5529670000000 1.0
C      1  0.4297900000000  0.4399930000000  0.4481520000000 1.0
C      1  0.5710480000000  0.5559260000000  0.4500370000000 1.0
C      1  0.4302020000000  0.5538030000000  0.5497880000000 1.0
C      1  0.5721160000000  0.4101800000000  0.5154620000000 1.0
C      1  0.4295050000000  0.4115650000000  0.4867680000000 1.0
C      1  0.5724560000000  0.5848210000000  0.4884130000000 1.0
C      1  0.4301190000000  0.5821770000000  0.5109910000000 1.0
C      1  0.4434080000000  0.4928030000000  0.5960140000000 1.0
C      1  0.5575840000000  0.4951070000000  0.4044390000000 1.0
C      1  0.4366330000000  0.5082180000000  0.4021990000000 1.0
C      1  0.5610440000000  0.5074530000000  0.5960520000000 1.0
C      1  0.4647730000000  0.5128330000000  0.5964210000000 1.0
C      1  0.5353130000000  0.5139410000000  0.4020060000000 1.0
C      1  0.4608290000000  0.4921390000000  0.4058080000000 1.0
C      1  0.5374050000000  0.4901080000000  0.5985610000000 1.0
C      1  0.5296890000000  0.5616790000000  0.4194660000000 1.0
C      1  0.4702190000000  0.5592790000000  0.5771840000000 1.0
C      1  0.5205630000000  0.4450420000000  0.5803750000000 1.0
C      1  0.4696750000000  0.4489350000000  0.4315290000000 1.0
C      1  0.5767020000000  0.4377380000000  0.4674850000000 1.0
C      1  0.4283260000000  0.4260270000000  0.5339350000000 1.0
C      1  0.5715400000000  0.5645050000000  0.5339440000000 1.0
C      1  0.4295360000000  0.5635790000000  0.4633280000000 1.0
C      1  0.5827010000000  0.4813340000000  0.5259510000000 1.0
C      1  0.4161920000000  0.4830230000000  0.4721210000000 1.0
C      1  0.5816630000000  0.5142260000000  0.4784780000000 1.0
C      1  0.4219950000000  0.5105860000000  0.5249910000000 1.0
C      1  0.4070190000000  0.4703750000000  0.5320900000000 1.0
C      1  0.5920230000000  0.4738480000000  0.4679380000000 1.0
C      1  0.4024350000000  0.5236680000000  0.4682690000000 1.0
C      1  0.5973760000000  0.5221830000000  0.5296180000000 1.0
C      1  0.4432260000000  0.4902910000000  0.4830090000000 1.0
C      1  0.5563490000000  0.4870640000000  0.5133140000000 1.0
C      1  0.4440620000000  0.5095700000000  0.5048850000000 1.0
C      1  0.5562060000000  0.5081740000000  0.4932930000000 1.0
C      1  0.5467120000000  0.4676210000000  0.4003600000000 1.0
C      1  0.4574920000000  0.4676870000000  0.6011090000000 1.0
C      1  0.5515250000000  0.5356810000000  0.5990020000000 1.0
C      1  0.4464800000000  0.5360640000000  0.3968830000000 1.0
C      1  0.4246960000000  0.4909740000000  0.5753900000000 1.0
C      1  0.5715270000000  0.4962870000000  0.4286550000000 1.0
C      1  0.4176040000000  0.5078410000000  0.4229150000000 1.0
C      1  0.5779030000000  0.5049420000000  0.5737200000000 1.0
C      1  0.5330150000000  0.5895320000000  0.4650480000000 1.0
C      1  0.4692430000000  0.5845820000000  0.5318430000000 1.0
C      1  0.5312390000000  0.4109350000000  0.5327860000000 1.0
C      1  0.4685390000000  0.4078260000000  0.4662090000000 1.0
C      1  0.5020670000000  0.4238810000000  0.5721150000000 1.0
C      1  0.4933160000000  0.4302090000000  0.4294670000000 1.0
C      1  0.5036280000000  0.5727170000000  0.4262300000000 1.0
C      1  0.4968130000000  0.5705160000000  0.5712630000000 1.0
C      1  0.4940790000000  0.5280270000000  0.4429540000000 1.0
C      1  0.5070310000000  0.5251400000000  0.5553330000000 1.0
C      1  0.4818820000000  0.4764640000000  0.5481400000000 1.0
C      1  0.5078520000000  0.4759240000000  0.4494890000000 1.0
C      1  0.4944470000000  0.4141100000000  0.4545430000000 1.0
C      1  0.5061300000000  0.4091340000000  0.5467890000000 1.0
C      1  0.4949800000000  0.5861580000000  0.5456600000000 1.0
C      1  0.5065640000000  0.5878230000000  0.4521150000000 1.0
C      1  0.4702560000000  0.5158260000000  0.5184050000000 1.0
C      1  0.5340490000000  0.5125140000000  0.4734860000000 1.0
C      1  0.4626830000000  0.4931320000000  0.4610130000000 1.0
C      1  0.5326710000000  0.4834100000000  0.5315500000000 1.0
C      1  0.5414540000000  0.5428830000000  0.4007210000000 1.0
C      1  0.4590670000000  0.5417200000000  0.5978340000000 1.0
C      1  0.5381640000000  0.4605760000000  0.5980780000000 1.0
C      1  0.4598020000000  0.4625390000000  0.4060950000000 1.0
C      1  0.5655170000000  0.4877120000000  0.4552440000000 1.0
C      1  0.4309680000000  0.4815300000000  0.5492180000000 1.0
C      1  0.5722640000000  0.5119640000000  0.5464170000000 1.0
C      1  0.4253820000000  0.5136300000000  0.4499610000000 1.0
C      1  0.5223930000000  0.5413390000000  0.4796700000000 1.0
C      1  0.4813480000000  0.5444330000000  0.5171870000000 1.0
C      1  0.5154090000000  0.4590680000000  0.5191530000000 1.0
C      1  0.4839310000000  0.4543520000000  0.4801720000000 1.0
C      1  0.4569560000000  0.5539920000000  0.4728990000000 1.0
C      1  0.5449760000000  0.5548850000000  0.5231430000000 1.0
C      1  0.4548820000000  0.4392230000000  0.5298080000000 1.0
C      1  0.5474990000000  0.4440400000000  0.4746670000000 1.0
C      1  0.4135660000000  0.4532950000000  0.4681060000000 1.0
C      1  0.5870040000000  0.4524480000000  0.5347440000000 1.0
C      1  0.4147420000000  0.5397320000000  0.5295540000000 1.0
C      1  0.5876030000000  0.5427480000000  0.4702280000000 1.0
C      1  0.5779830000000  0.5539700000000  0.4231580000000 1.0
C      1  0.4219290000000  0.5526770000000  0.5763130000000 1.0
C      1  0.5735910000000  0.4408410000000  0.5800540000000 1.0
C      1  0.4233580000000  0.4422980000000  0.4211000000000 1.0
C      1  0.4769650000000  0.5361680000000  0.3967580000000 1.0
C      1  0.5216340000000  0.5356080000000  0.6009250000000 1.0
C      1  0.4829870000000  0.4719800000000  0.6121640000000 1.0
C      1  0.5166230000000  0.4695390000000  0.3986380000000 1.0
C      1  0.5148530000000  0.3835510000000  0.4911150000000 1.0
C      1  0.4877360000000  0.3818960000000  0.5060120000000 1.0
C      1  0.5135490000000  0.6154430000000  0.5065400000000 1.0
C      1  0.4862800000000  0.6145590000000  0.4921060000000 1.0
C      1  0.6057770000000  0.4970180000000  0.4839560000000 1.0
C      1  0.3967010000000  0.4948020000000  0.5167620000000 1.0
C      1  0.6075130000000  0.4960320000000  0.5134140000000 1.0
C      1  0.3929450000000  0.4938370000000  0.4878420000000 1.0
C      1  0.4338860000000  0.5781950000000  0.4229480000000 1.0
C      1  0.5654310000000  0.5783020000000  0.5739900000000 1.0
C      1  0.4297460000000  0.4333950000000  0.5842670000000 1.0
C      1  0.5649180000000  0.4251400000000  0.4226130000000 1.0
C      1  0.5098750000000  0.4953800000000  0.4735290000000 1.0
C      1  0.4896420000000  0.4946370000000  0.5255610000000 1.0
C      1  0.5159590000000  0.5084420000000  0.5326130000000 1.0
C      1  0.4850920000000  0.5116630000000  0.4658130000000 1.0
C      1  0.5001990000000  0.4406650000000  0.4997190000000 1.0
C      1  0.5020610000000  0.5568800000000  0.4980400000000 1.0
END
