TITL C-3578203-1966-328 -2.64742841168851e-06 125000 -455.584092490836 0 0 75 (C1) n - 1
REM
REM in /home/bkarasulu/work/CARBON/AIRSS/Generating-Clusters/EDIP-Nigel-Params/with-SteepDescent/Higher-Symm/SD-CG/HFTN-CG
REM
REM
REM
REM
REM
REM ./C.cell (12c818d87b63d06a65506943cc24bca4)
REM
REM compiler GCC version 9.2.1 20190827 (Red Hat 9.2.1-1)
REM options -cpp -mtune=generic -march=x86-64 -g -O0 -fpre-include=/usr/include/finclude/math-vector-fortran.h
REM seed 1296258754 446680032 1088925193 533764411 293243066 -2087222368 -1431349898 -74564210 1302700556 2046083561 -540322288 -110071520 1468643751 -135603627 700481295 -1403670547 -1832450713 -241039873 -1113321473 -2118056758 942149151 -1637293221 1751079745 323798743 -838008110 -1701941744 453201261 -88428000 -286005790 -1664967901 225660144 -1702950354 -82341386
REM
CELL 1.54180   50.00000   50.00000   50.00000   90.00000   90.00000   90.00000
LATT -1
SFAC C  
C      1  0.4424720000000  0.4622970000000  0.4424540000000 1.0
C      1  0.4649540000000  0.4621430000000  0.4861050000000 1.0
C      1  0.5764670000000  0.4421080000000  0.4992150000000 1.0
C      1  0.5261100000000  0.4573200000000  0.4422480000000 1.0
C      1  0.5360070000000  0.5425040000000  0.4543960000000 1.0
C      1  0.4838220000000  0.5683410000000  0.5050570000000 1.0
C      1  0.5052190000000  0.4423990000000  0.4557820000000 1.0
C      1  0.5129510000000  0.4210220000000  0.4718430000000 1.0
C      1  0.4862350000000  0.5261800000000  0.5623240000000 1.0
C      1  0.4940770000000  0.5454450000000  0.4688840000000 1.0
C      1  0.5634160000000  0.5482780000000  0.4948290000000 1.0
C      1  0.5869080000000  0.5110200000000  0.5089730000000 1.0
C      1  0.5227550000000  0.4978670000000  0.4909330000000 1.0
C      1  0.5063830000000  0.5709220000000  0.5562240000000 1.0
C      1  0.5101190000000  0.4790930000000  0.5096010000000 1.0
C      1  0.5687150000000  0.5304860000000  0.5155180000000 1.0
C      1  0.5050250000000  0.4947890000000  0.4667930000000 1.0
C      1  0.4359170000000  0.4890110000000  0.5449460000000 1.0
C      1  0.5326700000000  0.4248050000000  0.4910700000000 1.0
C      1  0.5230570000000  0.4591880000000  0.5269510000000 1.0
C      1  0.4209080000000  0.5457570000000  0.4898530000000 1.0
C      1  0.4636010000000  0.4855690000000  0.5064600000000 1.0
C      1  0.5105110000000  0.5784940000000  0.5097930000000 1.0
C      1  0.4713030000000  0.5751670000000  0.4804010000000 1.0
C      1  0.5002590000000  0.5274580000000  0.4249240000000 1.0
C      1  0.5195180000000  0.5291230000000  0.4971890000000 1.0
C      1  0.4390430000000  0.5188540000000  0.5459280000000 1.0
C      1  0.4516770000000  0.5324580000000  0.5196300000000 1.0
C      1  0.5539320000000  0.4423830000000  0.4824570000000 1.0
C      1  0.4952410000000  0.5166050000000  0.5360930000000 1.0
C      1  0.4368500000000  0.5405510000000  0.4676820000000 1.0
C      1  0.5010320000000  0.5040810000000  0.5784380000000 1.0
C      1  0.4702240000000  0.4638460000000  0.4391840000000 1.0
C      1  0.4995890000000  0.4622790000000  0.5533800000000 1.0
C      1  0.5359500000000  0.5129340000000  0.4509780000000 1.0
C      1  0.5194770000000  0.5334390000000  0.5263330000000 1.0
C      1  0.5512870000000  0.4521640000000  0.4554290000000 1.0
C      1  0.5502260000000  0.4865470000000  0.4833540000000 1.0
C      1  0.4409850000000  0.5127540000000  0.4588920000000 1.0
C      1  0.5784180000000  0.4878650000000  0.4944720000000 1.0
C      1  0.4743360000000  0.4365350000000  0.5282410000000 1.0
C      1  0.5208690000000  0.5639150000000  0.5330740000000 1.0
C      1  0.4947480000000  0.4194290000000  0.5202780000000 1.0
C      1  0.5461940000000  0.5216640000000  0.5320780000000 1.0
C      1  0.4887710000000  0.4877360000000  0.5275560000000 1.0
C      1  0.4167250000000  0.4940410000000  0.5012680000000 1.0
C      1  0.4387580000000  0.4647360000000  0.4702100000000 1.0
C      1  0.5613320000000  0.4995050000000  0.4609120000000 1.0
C      1  0.5120100000000  0.4809000000000  0.4257130000000 1.0
C      1  0.4663810000000  0.4367460000000  0.5013680000000 1.0
C      1  0.4268760000000  0.4910410000000  0.4749310000000 1.0
C      1  0.4838230000000  0.5164970000000  0.4684080000000 1.0
C      1  0.4588800000000  0.5184230000000  0.5680450000000 1.0
C      1  0.4584810000000  0.5583840000000  0.4619830000000 1.0
C      1  0.4609890000000  0.5127230000000  0.4923610000000 1.0
C      1  0.5373000000000  0.5500840000000  0.4832330000000 1.0
C      1  0.5094310000000  0.5492990000000  0.4434040000000 1.0
C      1  0.4601610000000  0.4808310000000  0.5602630000000 1.0
C      1  0.5262720000000  0.4620590000000  0.5712400000000 1.0
C      1  0.4693290000000  0.5562070000000  0.5272550000000 1.0
C      1  0.5522140000000  0.4690110000000  0.5359160000000 1.0
C      1  0.4740510000000  0.5130070000000  0.4379910000000 1.0
C      1  0.4830410000000  0.5553680000000  0.5541460000000 1.0
C      1  0.5747210000000  0.4655290000000  0.5141090000000 1.0
C      1  0.4874010000000  0.4653670000000  0.4641790000000 1.0
C      1  0.4361350000000  0.4815440000000  0.5173400000000 1.0
C      1  0.4818170000000  0.4859030000000  0.4251960000000 1.0
C      1  0.5236950000000  0.5076070000000  0.4243760000000 1.0
C      1  0.5514700000000  0.4521800000000  0.5603740000000 1.0
C      1  0.5212010000000  0.4303240000000  0.5173680000000 1.0
C      1  0.4813300000000  0.4822410000000  0.5800950000000 1.0
C      1  0.5275250000000  0.5770980000000  0.4875590000000 1.0
C      1  0.5277370000000  0.4918530000000  0.5700030000000 1.0
C      1  0.4244670000000  0.5414390000000  0.5164050000000 1.0
C      1  0.5482180000000  0.4972330000000  0.5481080000000 1.0
END
