TITL C-3578202-4305-154 -7.58385387747303e-06 125000 -795.425693330001 0 0 129 (C1) n - 1
REM
REM in /home/bkarasulu/work/CARBON/AIRSS/Generating-Clusters/EDIP-Nigel-Params/with-SteepDescent/Higher-Symm/SD-CG/HFTN-CG
REM
REM
REM
REM
REM
REM ./C.cell (12c818d87b63d06a65506943cc24bca4)
REM
REM compiler GCC version 9.2.1 20190827 (Red Hat 9.2.1-1)
REM options -cpp -mtune=generic -march=x86-64 -g -O0 -fpre-include=/usr/include/finclude/math-vector-fortran.h
REM seed -577709917 2892326 -1365372960 1590148996 794330730 1441196760 1614775956 -2003337815 -358492337 -1676009959 253699606 -1491653943 -1647534171 1055744337 -1622880822 347909103 57975785 -1858198216 -1736909145 -1976386560 1267082837 1759281151 -681457677 -1817151781 -636546614 930010304 520392874 -40673098 1949965466 -584833096 -1739652393 -54391878 -1684283483
REM
CELL 1.54180   50.00000   50.00000   50.00000   90.00000   90.00000   90.00000
LATT -1
SFAC C  
C      1  0.5342790000000  0.4931010000000  0.4915280000000 1.0
C      1  0.4921350000000  0.4935260000000  0.5321830000000 1.0
C      1  0.4748240000000  0.4921930000000  0.4775100000000 1.0
C      1  0.5279190000000  0.4670270000000  0.4789980000000 1.0
C      1  0.5079180000000  0.4665110000000  0.5347610000000 1.0
C      1  0.4659060000000  0.4664090000000  0.4892210000000 1.0
C      1  0.5726500000000  0.4972000000000  0.4398290000000 1.0
C      1  0.5157420000000  0.4919480000000  0.5881450000000 1.0
C      1  0.4100260000000  0.4979360000000  0.4644110000000 1.0
C      1  0.5282030000000  0.4422240000000  0.4958410000000 1.0
C      1  0.5031730000000  0.4409880000000  0.5125440000000 1.0
C      1  0.4808720000000  0.4401000000000  0.4877510000000 1.0
C      1  0.5972190000000  0.5230110000000  0.5055110000000 1.0
C      1  0.4453850000000  0.5220940000000  0.5771470000000 1.0
C      1  0.4591700000000  0.5218460000000  0.4144380000000 1.0
C      1  0.5051640000000  0.4230520000000  0.4412400000000 1.0
C      1  0.5532520000000  0.4268410000000  0.5374960000000 1.0
C      1  0.4377450000000  0.4255360000000  0.5266490000000 1.0
C      1  0.4897770000000  0.5535630000000  0.4173470000000 1.0
C      1  0.5728110000000  0.5502800000000  0.5306100000000 1.0
C      1  0.4313660000000  0.5539690000000  0.5493630000000 1.0
C      1  0.5071210000000  0.4167260000000  0.5313760000000 1.0
C      1  0.4630950000000  0.4152570000000  0.4893800000000 1.0
C      1  0.5314260000000  0.4163550000000  0.4804870000000 1.0
C      1  0.4564700000000  0.5629560000000  0.4545170000000 1.0
C      1  0.5641810000000  0.5718050000000  0.4801950000000 1.0
C      1  0.4843100000000  0.5745270000000  0.5712170000000 1.0
C      1  0.4527300000000  0.4550910000000  0.5746430000000 1.0
C      1  0.4577190000000  0.4548920000000  0.4292130000000 1.0
C      1  0.5851710000000  0.4540290000000  0.4986610000000 1.0
C      1  0.4565050000000  0.5144880000000  0.4636080000000 1.0
C      1  0.5551170000000  0.5154280000000  0.4814640000000 1.0
C      1  0.4888240000000  0.5147720000000  0.5558550000000 1.0
C      1  0.4204270000000  0.5429980000000  0.4824900000000 1.0
C      1  0.5517670000000  0.5423130000000  0.4409290000000 1.0
C      1  0.5246350000000  0.5412900000000  0.5765510000000 1.0
C      1  0.5579010000000  0.4489730000000  0.4522450000000 1.0
C      1  0.5009740000000  0.4510050000000  0.5605090000000 1.0
C      1  0.4279140000000  0.4507790000000  0.4743490000000 1.0
C      1  0.5742030000000  0.4437680000000  0.5516000000000 1.0
C      1  0.4182480000000  0.4454590000000  0.5355550000000 1.0
C      1  0.5073380000000  0.4408990000000  0.4176770000000 1.0
C      1  0.4943920000000  0.4924030000000  0.4531240000000 1.0
C      1  0.5469500000000  0.4951800000000  0.5201690000000 1.0
C      1  0.4611260000000  0.4938670000000  0.5278500000000 1.0
C      1  0.4220080000000  0.5185030000000  0.5613710000000 1.0
C      1  0.4857720000000  0.5174610000000  0.4045050000000 1.0
C      1  0.5943730000000  0.5187340000000  0.5339280000000 1.0
C      1  0.4528460000000  0.4672290000000  0.5150860000000 1.0
C      1  0.5102670000000  0.4665730000000  0.4551400000000 1.0
C      1  0.5400540000000  0.4696500000000  0.5342010000000 1.0
C      1  0.5465670000000  0.5301300000000  0.5598030000000 1.0
C      1  0.4263950000000  0.5282340000000  0.5073380000000 1.0
C      1  0.5292650000000  0.5256840000000  0.4316580000000 1.0
C      1  0.5143400000000  0.5617590000000  0.5084610000000 1.0
C      1  0.4818450000000  0.5563900000000  0.5192620000000 1.0
C      1  0.5054960000000  0.5602060000000  0.4759390000000 1.0
C      1  0.4690460000000  0.5871660000000  0.5479110000000 1.0
C      1  0.4766230000000  0.5844260000000  0.4524140000000 1.0
C      1  0.5518710000000  0.5850450000000  0.5036810000000 1.0
C      1  0.4542010000000  0.5483620000000  0.5673180000000 1.0
C      1  0.4611400000000  0.5498890000000  0.4225780000000 1.0
C      1  0.5850490000000  0.5494910000000  0.5040380000000 1.0
C      1  0.4221930000000  0.4743230000000  0.4555280000000 1.0
C      1  0.5753140000000  0.4741000000000  0.4556180000000 1.0
C      1  0.4978830000000  0.4704190000000  0.5839590000000 1.0
C      1  0.5745380000000  0.4888460000000  0.5659320000000 1.0
C      1  0.4087570000000  0.4874620000000  0.5246090000000 1.0
C      1  0.5228710000000  0.4837930000000  0.4099770000000 1.0
C      1  0.5286580000000  0.6025710000000  0.5009730000000 1.0
C      1  0.4849840000000  0.5997130000000  0.5265590000000 1.0
C      1  0.4854610000000  0.5994180000000  0.4757180000000 1.0
C      1  0.5139780000000  0.5148160000000  0.4547330000000 1.0
C      1  0.5356850000000  0.5191700000000  0.5339520000000 1.0
C      1  0.4539100000000  0.5161540000000  0.5083800000000 1.0
C      1  0.5234910000000  0.5846440000000  0.4512010000000 1.0
C      1  0.5287030000000  0.5813930000000  0.5449660000000 1.0
C      1  0.4482380000000  0.5793070000000  0.5039900000000 1.0
C      1  0.5625600000000  0.5123270000000  0.5744320000000 1.0
C      1  0.4047630000000  0.5109650000000  0.5110870000000 1.0
C      1  0.5374610000000  0.5073070000000  0.4118740000000 1.0
C      1  0.4794300000000  0.5433560000000  0.5485090000000 1.0
C      1  0.4728650000000  0.5410390000000  0.4678270000000 1.0
C      1  0.5462230000000  0.5415880000000  0.4974220000000 1.0
C      1  0.4621140000000  0.4417620000000  0.5294290000000 1.0
C      1  0.4893280000000  0.4435730000000  0.4576090000000 1.0
C      1  0.5504050000000  0.4471970000000  0.5149370000000 1.0
C      1  0.5521510000000  0.5714720000000  0.5293180000000 1.0
C      1  0.4448660000000  0.5753100000000  0.5337350000000 1.0
C      1  0.4984850000000  0.5755530000000  0.4353200000000 1.0
C      1  0.4609270000000  0.5012750000000  0.4362050000000 1.0
C      1  0.5775730000000  0.5018860000000  0.4974400000000 1.0
C      1  0.4628600000000  0.5010700000000  0.5658520000000 1.0
C      1  0.5132600000000  0.5299270000000  0.4798810000000 1.0
C      1  0.5115160000000  0.5309830000000  0.5211460000000 1.0
C      1  0.4764370000000  0.5335990000000  0.4991840000000 1.0
C      1  0.5314050000000  0.4208350000000  0.4524020000000 1.0
C      1  0.5271430000000  0.4247070000000  0.5505340000000 1.0
C      1  0.4367520000000  0.4219920000000  0.4983120000000 1.0
C      1  0.4274550000000  0.4636350000000  0.5592480000000 1.0
C      1  0.4844160000000  0.4611760000000  0.4169510000000 1.0
C      1  0.5886070000000  0.4618880000000  0.5307140000000 1.0
C      1  0.4478670000000  0.4100060000000  0.4479790000000 1.0
C      1  0.5749300000000  0.4079580000000  0.4806360000000 1.0
C      1  0.4729650000000  0.4106490000000  0.5634970000000 1.0
C      1  0.5565050000000  0.4659680000000  0.5615620000000 1.0
C      1  0.4218960000000  0.4639510000000  0.5104570000000 1.0
C      1  0.5283230000000  0.4606740000000  0.4294550000000 1.0
C      1  0.5713740000000  0.4357410000000  0.4778420000000 1.0
C      1  0.4721290000000  0.4393170000000  0.5575480000000 1.0
C      1  0.4510890000000  0.4382110000000  0.4535320000000 1.0
C      1  0.4416980000000  0.4783650000000  0.4334160000000 1.0
C      1  0.5873820000000  0.4782770000000  0.4823480000000 1.0
C      1  0.4688480000000  0.4779990000000  0.5842960000000 1.0
C      1  0.4228720000000  0.4916770000000  0.5494390000000 1.0
C      1  0.4941820000000  0.4889880000000  0.4094080000000 1.0
C      1  0.5860490000000  0.4908880000000  0.5395940000000 1.0
C      1  0.5438540000000  0.5636650000000  0.4597230000000 1.0
C      1  0.5126960000000  0.5662900000000  0.5648020000000 1.0
C      1  0.4380310000000  0.5664610000000  0.4789640000000 1.0
C      1  0.5065460000000  0.5171050000000  0.5797950000000 1.0
C      1  0.4264160000000  0.5207720000000  0.4634670000000 1.0
C      1  0.5672940000000  0.5208590000000  0.4541500000000 1.0
C      1  0.4627690000000  0.3979620000000  0.4672690000000 1.0
C      1  0.5511180000000  0.3980730000000  0.4889660000000 1.0
C      1  0.4872130000000  0.4003210000000  0.5425200000000 1.0
C      1  0.4720880000000  0.5952140000000  0.5010740000000 1.0
C      1  0.5145040000000  0.6033180000000  0.4743530000000 1.0
C      1  0.5144610000000  0.6011920000000  0.5276250000000 1.0
END
