TITL C-3578207-9274-461 -1.31015617414173e-06 125000 -1019.50685661737 0 0 163 (C1) n - 1
REM
REM in /home/bkarasulu/work/CARBON/AIRSS/Generating-Clusters/EDIP-Nigel-Params/with-SteepDescent/Higher-Symm/SD-CG/HFTN-CG
REM
REM
REM
REM
REM
REM ./C.cell (12c818d87b63d06a65506943cc24bca4)
REM
REM compiler GCC version 9.2.1 20190827 (Red Hat 9.2.1-1)
REM options -cpp -mtune=generic -march=x86-64 -g -O0 -fpre-include=/usr/include/finclude/math-vector-fortran.h
REM seed -1358601315 -816805249 -1376721666 -1144241875 1459063554 2065249091 -1416165752 1575262422 -415883283 2068574853 -487181711 1240134315 1540722926 -1879148109 1776813220 -847840575 1397566526 1368668300 1866342467 1800565419 -559240631 85162974 1630693790 1752841209 636680322 718391088 867492493 654169882 1440163388 -99775836 -2088064775 -10702981 -629022424
REM
CELL 1.54180   50.00000   50.00000   50.00000   90.00000   90.00000   90.00000
LATT -1
SFAC C  
C      1  0.4632950000000  0.5106320000000  0.4680710000000 1.0
C      1  0.5197300000000  0.5808650000000  0.5580420000000 1.0
C      1  0.5140070000000  0.4504640000000  0.5381910000000 1.0
C      1  0.4411680000000  0.4862530000000  0.4254790000000 1.0
C      1  0.5539850000000  0.4776220000000  0.4803280000000 1.0
C      1  0.5120040000000  0.5252440000000  0.4384770000000 1.0
C      1  0.5651770000000  0.4238680000000  0.4858320000000 1.0
C      1  0.4908970000000  0.5812880000000  0.5559370000000 1.0
C      1  0.4732420000000  0.4117710000000  0.5154600000000 1.0
C      1  0.5468300000000  0.5140270000000  0.5939320000000 1.0
C      1  0.5072070000000  0.4654640000000  0.4000450000000 1.0
C      1  0.5360230000000  0.4026880000000  0.5606050000000 1.0
C      1  0.3926590000000  0.4761940000000  0.5110470000000 1.0
C      1  0.4420630000000  0.4551250000000  0.5010420000000 1.0
C      1  0.4434870000000  0.4592140000000  0.4689920000000 1.0
C      1  0.5657970000000  0.5055150000000  0.4846730000000 1.0
C      1  0.6025530000000  0.5240570000000  0.5394600000000 1.0
C      1  0.5317690000000  0.4563640000000  0.4137230000000 1.0
C      1  0.4915300000000  0.4910360000000  0.6036110000000 1.0
C      1  0.5759830000000  0.5656130000000  0.5490480000000 1.0
C      1  0.4372500000000  0.5479630000000  0.4490050000000 1.0
C      1  0.4886460000000  0.4344500000000  0.5819100000000 1.0
C      1  0.4457270000000  0.5618570000000  0.5228630000000 1.0
C      1  0.4709170000000  0.4109280000000  0.5445230000000 1.0
C      1  0.5477330000000  0.5598120000000  0.4355130000000 1.0
C      1  0.5346370000000  0.5495750000000  0.4938320000000 1.0
C      1  0.5120720000000  0.5007820000000  0.4818390000000 1.0
C      1  0.4582400000000  0.4803210000000  0.4508590000000 1.0
C      1  0.5898460000000  0.5070590000000  0.4646590000000 1.0
C      1  0.6099070000000  0.5076720000000  0.5157600000000 1.0
C      1  0.5444230000000  0.5144230000000  0.4053600000000 1.0
C      1  0.5151690000000  0.4761190000000  0.5924450000000 1.0
C      1  0.4219730000000  0.5188320000000  0.5013460000000 1.0
C      1  0.4835890000000  0.5212480000000  0.5472940000000 1.0
C      1  0.5941470000000  0.5509140000000  0.5297770000000 1.0
C      1  0.4407750000000  0.5667120000000  0.4255750000000 1.0
C      1  0.4981760000000  0.4011490000000  0.5031100000000 1.0
C      1  0.5123660000000  0.5054560000000  0.5579220000000 1.0
C      1  0.4788450000000  0.4585640000000  0.4418060000000 1.0
C      1  0.4136160000000  0.4776320000000  0.4370900000000 1.0
C      1  0.5721660000000  0.5044070000000  0.5149810000000 1.0
C      1  0.5541850000000  0.4720630000000  0.4261910000000 1.0
C      1  0.4880650000000  0.5867760000000  0.4158250000000 1.0
C      1  0.5048720000000  0.5477230000000  0.4872910000000 1.0
C      1  0.5547800000000  0.5493050000000  0.5641710000000 1.0
C      1  0.5257620000000  0.4757350000000  0.4906830000000 1.0
C      1  0.5020590000000  0.4748580000000  0.4474620000000 1.0
C      1  0.5322880000000  0.5384340000000  0.4194810000000 1.0
C      1  0.5485930000000  0.5294400000000  0.4751550000000 1.0
C      1  0.4633030000000  0.5959410000000  0.4610630000000 1.0
C      1  0.4691910000000  0.4743070000000  0.6070730000000 1.0
C      1  0.4835780000000  0.4844810000000  0.5605510000000 1.0
C      1  0.5698740000000  0.5814550000000  0.5023460000000 1.0
C      1  0.4426300000000  0.3958770000000  0.4779910000000 1.0
C      1  0.5660610000000  0.5283790000000  0.5794410000000 1.0
C      1  0.4502680000000  0.4165050000000  0.4609590000000 1.0
C      1  0.5628660000000  0.4984800000000  0.4200280000000 1.0
C      1  0.4110430000000  0.5126050000000  0.5562590000000 1.0
C      1  0.5274820000000  0.5575750000000  0.5738100000000 1.0
C      1  0.5056010000000  0.5259790000000  0.3824460000000 1.0
C      1  0.4775230000000  0.4288920000000  0.4652800000000 1.0
C      1  0.4999520000000  0.5017910000000  0.4235690000000 1.0
C      1  0.3790750000000  0.4999790000000  0.5195960000000 1.0
C      1  0.5954300000000  0.4771530000000  0.4619200000000 1.0
C      1  0.5381570000000  0.5460420000000  0.5232010000000 1.0
C      1  0.5030160000000  0.5660790000000  0.4617120000000 1.0
C      1  0.4163860000000  0.4544650000000  0.4553690000000 1.0
C      1  0.5634550000000  0.5866300000000  0.5323100000000 1.0
C      1  0.4608460000000  0.4918050000000  0.5171530000000 1.0
C      1  0.5348020000000  0.5776390000000  0.5321570000000 1.0
C      1  0.5645620000000  0.4460910000000  0.5902490000000 1.0
C      1  0.4279200000000  0.4336280000000  0.5412620000000 1.0
C      1  0.4415490000000  0.5878710000000  0.4810120000000 1.0
C      1  0.4080490000000  0.5408310000000  0.5491980000000 1.0
C      1  0.5142440000000  0.5492630000000  0.3985670000000 1.0
C      1  0.4337480000000  0.4995380000000  0.5205810000000 1.0
C      1  0.4890520000000  0.5181420000000  0.4881320000000 1.0
C      1  0.4338670000000  0.5027560000000  0.5719650000000 1.0
C      1  0.5279430000000  0.5000320000000  0.5341560000000 1.0
C      1  0.4469310000000  0.5907380000000  0.5111840000000 1.0
C      1  0.4937470000000  0.5908690000000  0.5019540000000 1.0
C      1  0.4205320000000  0.4729830000000  0.5200260000000 1.0
C      1  0.5233550000000  0.5944470000000  0.5079670000000 1.0
C      1  0.4675090000000  0.4713270000000  0.5373790000000 1.0
C      1  0.5019980000000  0.5412780000000  0.5816270000000 1.0
C      1  0.5432570000000  0.4051240000000  0.4896680000000 1.0
C      1  0.5672320000000  0.4315240000000  0.5418540000000 1.0
C      1  0.5297040000000  0.4339790000000  0.4561110000000 1.0
C      1  0.4810000000000  0.5586250000000  0.5705500000000 1.0
C      1  0.5975710000000  0.4624760000000  0.5324520000000 1.0
C      1  0.5806080000000  0.5112150000000  0.4376440000000 1.0
C      1  0.4785280000000  0.5144420000000  0.5167410000000 1.0
C      1  0.5106930000000  0.4565400000000  0.4719910000000 1.0
C      1  0.4307990000000  0.5199700000000  0.4124330000000 1.0
C      1  0.5583300000000  0.4376590000000  0.4613620000000 1.0
C      1  0.4545450000000  0.5469750000000  0.5681950000000 1.0
C      1  0.5247010000000  0.4069880000000  0.4663010000000 1.0
C      1  0.4901630000000  0.5462760000000  0.4419710000000 1.0
C      1  0.3902740000000  0.5455330000000  0.5275150000000 1.0
C      1  0.4965140000000  0.4047140000000  0.4739760000000 1.0
C      1  0.3908580000000  0.4943760000000  0.5457830000000 1.0
C      1  0.5257980000000  0.4084730000000  0.5123970000000 1.0
C      1  0.5852650000000  0.5562350000000  0.5010800000000 1.0
C      1  0.5729560000000  0.4270670000000  0.5705230000000 1.0
C      1  0.4840170000000  0.5167550000000  0.5901140000000 1.0
C      1  0.4498250000000  0.4614660000000  0.5913550000000 1.0
C      1  0.4114210000000  0.5035470000000  0.4539750000000 1.0
C      1  0.5269480000000  0.5148990000000  0.4619870000000 1.0
C      1  0.4304350000000  0.5609340000000  0.4758220000000 1.0
C      1  0.5426400000000  0.5795620000000  0.4885280000000 1.0
C      1  0.5775180000000  0.4710590000000  0.5918810000000 1.0
C      1  0.5356100000000  0.4228920000000  0.5378820000000 1.0
C      1  0.4593210000000  0.4364790000000  0.5807630000000 1.0
C      1  0.4741990000000  0.5511500000000  0.5286910000000 1.0
C      1  0.5796500000000  0.5131550000000  0.5578940000000 1.0
C      1  0.5021120000000  0.4597450000000  0.5701880000000 1.0
C      1  0.4790640000000  0.4483060000000  0.4915960000000 1.0
C      1  0.4933870000000  0.4132520000000  0.5620920000000 1.0
C      1  0.4542730000000  0.4322150000000  0.5526430000000 1.0
C      1  0.4772560000000  0.6033870000000  0.5454620000000 1.0
C      1  0.6134770000000  0.4782240000000  0.5120000000000 1.0
C      1  0.4895230000000  0.5571040000000  0.4130720000000 1.0
C      1  0.4621000000000  0.5875890000000  0.4315620000000 1.0
C      1  0.5177810000000  0.5017110000000  0.3964830000000 1.0
C      1  0.5919530000000  0.4348760000000  0.5276880000000 1.0
C      1  0.4179320000000  0.5272000000000  0.4374630000000 1.0
C      1  0.5276150000000  0.5789380000000  0.4470930000000 1.0
C      1  0.5841380000000  0.4851350000000  0.5675870000000 1.0
C      1  0.5336490000000  0.4938050000000  0.5778090000000 1.0
C      1  0.4347910000000  0.5455830000000  0.5001780000000 1.0
C      1  0.4843910000000  0.4477370000000  0.5245630000000 1.0
C      1  0.5261070000000  0.4734800000000  0.5217220000000 1.0
C      1  0.5547410000000  0.4765430000000  0.5607190000000 1.0
C      1  0.4737290000000  0.5099030000000  0.4080580000000 1.0
C      1  0.4459350000000  0.4060140000000  0.5039330000000 1.0
C      1  0.4329250000000  0.5569510000000  0.5500160000000 1.0
C      1  0.4659350000000  0.4913230000000  0.3875600000000 1.0
C      1  0.5891940000000  0.5444620000000  0.4743830000000 1.0
C      1  0.4721420000000  0.6050470000000  0.5180210000000 1.0
C      1  0.5707030000000  0.5516650000000  0.4526630000000 1.0
C      1  0.4297280000000  0.4304310000000  0.4463410000000 1.0
C      1  0.4430530000000  0.5457190000000  0.4028060000000 1.0
C      1  0.4311720000000  0.5048360000000  0.4764810000000 1.0
C      1  0.4923000000000  0.5626390000000  0.5085390000000 1.0
C      1  0.4898170000000  0.5914740000000  0.4721940000000 1.0
C      1  0.4714360000000  0.5382650000000  0.3970770000000 1.0
C      1  0.5126640000000  0.5948840000000  0.4280640000000 1.0
C      1  0.5508740000000  0.5191840000000  0.5328150000000 1.0
C      1  0.5988380000000  0.4641830000000  0.4882240000000 1.0
C      1  0.4804180000000  0.4562210000000  0.4117430000000 1.0
C      1  0.4290390000000  0.4292880000000  0.5111950000000 1.0
C      1  0.5534860000000  0.4097440000000  0.5815240000000 1.0
C      1  0.3919510000000  0.5243860000000  0.5082960000000 1.0
C      1  0.5697560000000  0.4751360000000  0.5267350000000 1.0
C      1  0.5703130000000  0.4593870000000  0.4978050000000 1.0
C      1  0.5707480000000  0.4615560000000  0.4485970000000 1.0
C      1  0.4413570000000  0.4747040000000  0.5660790000000 1.0
C      1  0.4638460000000  0.5343560000000  0.4512200000000 1.0
C      1  0.4202990000000  0.4611980000000  0.5479880000000 1.0
C      1  0.4555050000000  0.4702530000000  0.4027660000000 1.0
C      1  0.4552490000000  0.5210740000000  0.5806940000000 1.0
C      1  0.5259280000000  0.4332450000000  0.4278210000000 1.0
C      1  0.5112130000000  0.3921810000000  0.5677940000000 1.0
END
