TITL C-3578207-9274-637 -1.62567919458986e-06 125000 -1243.90057828787 0 0 197 (C1) n - 1
REM
REM in /home/bkarasulu/work/CARBON/AIRSS/Generating-Clusters/EDIP-Nigel-Params/with-SteepDescent/Higher-Symm/SD-CG/HFTN-CG
REM
REM
REM
REM
REM
REM ./C.cell (12c818d87b63d06a65506943cc24bca4)
REM
REM compiler GCC version 9.2.1 20190827 (Red Hat 9.2.1-1)
REM options -cpp -mtune=generic -march=x86-64 -g -O0 -fpre-include=/usr/include/finclude/math-vector-fortran.h
REM seed 769106067 480450772 -742062121 -2032268019 953509225 -1602452753 -465554903 417105955 983492185 -454639779 -257621924 435198537 -1497419529 -405579117 743617165 -1198554049 1286295594 -1436907122 -1255127324 -2089242044 -171704137 -1304260090 -999827941 622935108 1717862992 846592153 -1990487656 -967811849 1242350400 420462564 -703681290 -1402694193 -52124623
REM
CELL 1.54180   50.00000   50.00000   50.00000   90.00000   90.00000   90.00000
LATT -1
SFAC C  
C      1  0.4903880000000  0.5939280000000  0.4635890000000 1.0
C      1  0.5433150000000  0.5945150000000  0.5098050000000 1.0
C      1  0.4642130000000  0.6074780000000  0.5257500000000 1.0
C      1  0.5543290000000  0.4374620000000  0.5620370000000 1.0
C      1  0.4179510000000  0.4321920000000  0.5161470000000 1.0
C      1  0.5280780000000  0.4429120000000  0.4294370000000 1.0
C      1  0.4749410000000  0.6189560000000  0.5027640000000 1.0
C      1  0.4972300000000  0.6102650000000  0.4881570000000 1.0
C      1  0.5158450000000  0.6021480000000  0.5085640000000 1.0
C      1  0.5275610000000  0.4740730000000  0.6238330000000 1.0
C      1  0.3777010000000  0.4721090000000  0.4603160000000 1.0
C      1  0.5961520000000  0.4720370000000  0.4119690000000 1.0
C      1  0.5229290000000  0.5371660000000  0.3989320000000 1.0
C      1  0.5758620000000  0.5365020000000  0.5672030000000 1.0
C      1  0.4057220000000  0.5368260000000  0.5346620000000 1.0
C      1  0.4800530000000  0.4524910000000  0.5778530000000 1.0
C      1  0.4426390000000  0.4558790000000  0.4431130000000 1.0
C      1  0.5821250000000  0.4524130000000  0.4772980000000 1.0
C      1  0.5005750000000  0.4911540000000  0.4428370000000 1.0
C      1  0.5384130000000  0.4957550000000  0.5256890000000 1.0
C      1  0.4670040000000  0.5002230000000  0.5252940000000 1.0
C      1  0.4370310000000  0.5865890000000  0.5089580000000 1.0
C      1  0.5349150000000  0.5867070000000  0.4396440000000 1.0
C      1  0.5357660000000  0.5898430000000  0.5564920000000 1.0
C      1  0.5833650000000  0.4858980000000  0.5578550000000 1.0
C      1  0.4057550000000  0.4840270000000  0.5442980000000 1.0
C      1  0.5122930000000  0.4862630000000  0.3892640000000 1.0
C      1  0.4735250000000  0.5603370000000  0.4869710000000 1.0
C      1  0.5242640000000  0.5581660000000  0.4785450000000 1.0
C      1  0.5056700000000  0.5629150000000  0.5270810000000 1.0
C      1  0.5386850000000  0.5177950000000  0.6103270000000 1.0
C      1  0.3795180000000  0.5141670000000  0.4801360000000 1.0
C      1  0.5792170000000  0.5154720000000  0.4084800000000 1.0
C      1  0.4860680000000  0.5179570000000  0.3726610000000 1.0
C      1  0.6168410000000  0.5142330000000  0.5505930000000 1.0
C      1  0.3992970000000  0.5131210000000  0.5773290000000 1.0
C      1  0.5582680000000  0.5937360000000  0.4853110000000 1.0
C      1  0.4812360000000  0.6016710000000  0.5494730000000 1.0
C      1  0.4611770000000  0.5952780000000  0.4600250000000 1.0
C      1  0.5658550000000  0.5600960000000  0.5810130000000 1.0
C      1  0.3947600000000  0.5609320000000  0.5223490000000 1.0
C      1  0.5409170000000  0.5596230000000  0.3989600000000 1.0
C      1  0.5398320000000  0.3983900000000  0.5345150000000 1.0
C      1  0.4555290000000  0.3982630000000  0.5144710000000 1.0
C      1  0.5082320000000  0.4047530000000  0.4551600000000 1.0
C      1  0.5724760000000  0.4388730000000  0.4520710000000 1.0
C      1  0.5071970000000  0.4403200000000  0.5836080000000 1.0
C      1  0.4238970000000  0.4403190000000  0.4619650000000 1.0
C      1  0.4937710000000  0.3987940000000  0.5508000000000 1.0
C      1  0.4614800000000  0.4008670000000  0.4644800000000 1.0
C      1  0.5451400000000  0.4043510000000  0.4860490000000 1.0
C      1  0.4941380000000  0.4732640000000  0.4086450000000 1.0
C      1  0.5783140000000  0.4768460000000  0.5301520000000 1.0
C      1  0.4319530000000  0.4736920000000  0.5532200000000 1.0
C      1  0.5952460000000  0.4975950000000  0.4247000000000 1.0
C      1  0.5168070000000  0.4995670000000  0.6168210000000 1.0
C      1  0.3874520000000  0.4986920000000  0.4567320000000 1.0
C      1  0.4751770000000  0.5532940000000  0.4021540000000 1.0
C      1  0.6002150000000  0.5515730000000  0.5261680000000 1.0
C      1  0.4301200000000  0.5501710000000  0.5753020000000 1.0
C      1  0.5785700000000  0.5288770000000  0.4677090000000 1.0
C      1  0.4877110000000  0.5286730000000  0.5849680000000 1.0
C      1  0.4349220000000  0.5296790000000  0.4494730000000 1.0
C      1  0.4537000000000  0.5824150000000  0.4354500000000 1.0
C      1  0.5843160000000  0.5825950000000  0.4909450000000 1.0
C      1  0.4672380000000  0.5873310000000  0.5715310000000 1.0
C      1  0.6232770000000  0.4859760000000  0.5076240000000 1.0
C      1  0.4325780000000  0.4838140000000  0.6033490000000 1.0
C      1  0.4475100000000  0.4898900000000  0.3917680000000 1.0
C      1  0.5389390000000  0.4129130000000  0.5600350000000 1.0
C      1  0.4329080000000  0.4121250000000  0.5021880000000 1.0
C      1  0.5306280000000  0.4185000000000  0.4436660000000 1.0
C      1  0.3812660000000  0.4932920000000  0.5015650000000 1.0
C      1  0.5600120000000  0.4954610000000  0.3974540000000 1.0
C      1  0.5572790000000  0.4975250000000  0.5982130000000 1.0
C      1  0.5176610000000  0.4866760000000  0.5661050000000 1.0
C      1  0.4298950000000  0.4856920000000  0.4821230000000 1.0
C      1  0.5505100000000  0.4839330000000  0.4480690000000 1.0
C      1  0.5786960000000  0.4356020000000  0.5455950000000 1.0
C      1  0.4220610000000  0.4286810000000  0.5449160000000 1.0
C      1  0.5029770000000  0.4461390000000  0.4155040000000 1.0
C      1  0.5254720000000  0.4497700000000  0.5311610000000 1.0
C      1  0.4541710000000  0.4556990000000  0.5083310000000 1.0
C      1  0.5187670000000  0.4395280000000  0.4801010000000 1.0
C      1  0.4773340000000  0.5771710000000  0.4194350000000 1.0
C      1  0.5862060000000  0.5769060000000  0.5195330000000 1.0
C      1  0.4433430000000  0.5739240000000  0.5615040000000 1.0
C      1  0.5391390000000  0.5049220000000  0.5540970000000 1.0
C      1  0.4277180000000  0.5035160000000  0.5051550000000 1.0
C      1  0.5288930000000  0.5011020000000  0.4337760000000 1.0
C      1  0.6018460000000  0.5395510000000  0.5531340000000 1.0
C      1  0.4055500000000  0.5383190000000  0.5638600000000 1.0
C      1  0.4968860000000  0.5420290000000  0.3853840000000 1.0
C      1  0.5526840000000  0.4190160000000  0.4616650000000 1.0
C      1  0.5114540000000  0.4149000000000  0.5697380000000 1.0
C      1  0.4370060000000  0.4159070000000  0.4734350000000 1.0
C      1  0.4029890000000  0.5030610000000  0.5214210000000 1.0
C      1  0.5315950000000  0.5042200000000  0.4030950000000 1.0
C      1  0.5649570000000  0.5053830000000  0.5699790000000 1.0
C      1  0.4632210000000  0.5230720000000  0.6038500000000 1.0
C      1  0.4317930000000  0.5272030000000  0.4184770000000 1.0
C      1  0.6067650000000  0.5244960000000  0.4814360000000 1.0
C      1  0.4548250000000  0.4448820000000  0.4171640000000 1.0
C      1  0.5978970000000  0.4406940000000  0.5014170000000 1.0
C      1  0.4523780000000  0.4388180000000  0.5820760000000 1.0
C      1  0.4800770000000  0.4545680000000  0.5469060000000 1.0
C      1  0.4682960000000  0.4588780000000  0.4632600000000 1.0
C      1  0.5536700000000  0.4532040000000  0.4897310000000 1.0
C      1  0.4361860000000  0.5401460000000  0.5292620000000 1.0
C      1  0.5064390000000  0.5463890000000  0.4328440000000 1.0
C      1  0.5555090000000  0.5495030000000  0.5366200000000 1.0
C      1  0.6099580000000  0.4909590000000  0.5648730000000 1.0
C      1  0.3878740000000  0.4906880000000  0.5646950000000 1.0
C      1  0.5015980000000  0.4957840000000  0.3653770000000 1.0
C      1  0.4802830000000  0.4799080000000  0.5912600000000 1.0
C      1  0.4281460000000  0.4820120000000  0.4366910000000 1.0
C      1  0.5920960000000  0.4800420000000  0.4693350000000 1.0
C      1  0.5784190000000  0.4982580000000  0.4502730000000 1.0
C      1  0.5022950000000  0.4996010000000  0.5898460000000 1.0
C      1  0.4179030000000  0.4999460000000  0.4575360000000 1.0
C      1  0.4552700000000  0.5205220000000  0.5453260000000 1.0
C      1  0.4822690000000  0.5312270000000  0.4398190000000 1.0
C      1  0.5614470000000  0.5361610000000  0.5115240000000 1.0
C      1  0.5101860000000  0.3674080000000  0.4887950000000 1.0
C      1  0.5091700000000  0.3642180000000  0.5171810000000 1.0
C      1  0.4819810000000  0.3637360000000  0.4894450000000 1.0
C      1  0.5744510000000  0.5608280000000  0.4605990000000 1.0
C      1  0.4969510000000  0.5653120000000  0.5776250000000 1.0
C      1  0.4318470000000  0.5615430000000  0.4602770000000 1.0
C      1  0.4359470000000  0.5345110000000  0.6002710000000 1.0
C      1  0.4496030000000  0.5387440000000  0.3966400000000 1.0
C      1  0.6173430000000  0.5358310000000  0.5073630000000 1.0
C      1  0.4795700000000  0.4297360000000  0.4237690000000 1.0
C      1  0.5820040000000  0.4216090000000  0.5198510000000 1.0
C      1  0.4452190000000  0.4179870000000  0.5600920000000 1.0
C      1  0.5661940000000  0.5352730000000  0.4255310000000 1.0
C      1  0.5293640000000  0.5380910000000  0.5910890000000 1.0
C      1  0.3987220000000  0.5348730000000  0.4851460000000 1.0
C      1  0.5160110000000  0.4750320000000  0.5211070000000 1.0
C      1  0.4686500000000  0.4786130000000  0.5032380000000 1.0
C      1  0.5140660000000  0.4703300000000  0.4825920000000 1.0
C      1  0.4601520000000  0.4934770000000  0.6062790000000 1.0
C      1  0.4293830000000  0.4981460000000  0.4129510000000 1.0
C      1  0.6125530000000  0.4955070000000  0.4818980000000 1.0
C      1  0.5330150000000  0.5305070000000  0.4416370000000 1.0
C      1  0.5327020000000  0.5346880000000  0.5540000000000 1.0
C      1  0.4347250000000  0.5321530000000  0.4994440000000 1.0
C      1  0.5758320000000  0.5622030000000  0.4304210000000 1.0
C      1  0.5212100000000  0.5656230000000  0.5955810000000 1.0
C      1  0.4080340000000  0.5607600000000  0.4784630000000 1.0
C      1  0.4663020000000  0.4369640000000  0.4877250000000 1.0
C      1  0.4954770000000  0.4264460000000  0.4987930000000 1.0
C      1  0.4997400000000  0.4320090000000  0.5306620000000 1.0
C      1  0.5444610000000  0.5788600000000  0.5826080000000 1.0
C      1  0.4082270000000  0.5768470000000  0.5029250000000 1.0
C      1  0.5529410000000  0.5768980000000  0.4179780000000 1.0
C      1  0.5040570000000  0.5800760000000  0.4373040000000 1.0
C      1  0.5565650000000  0.5818810000000  0.5340830000000 1.0
C      1  0.4448090000000  0.5683290000000  0.5324810000000 1.0
C      1  0.5685770000000  0.4674670000000  0.4066730000000 1.0
C      1  0.5457890000000  0.4697280000000  0.6024680000000 1.0
C      1  0.3862250000000  0.4666090000000  0.4869670000000 1.0
C      1  0.4577000000000  0.5154440000000  0.3795280000000 1.0
C      1  0.6273640000000  0.5121420000000  0.5230810000000 1.0
C      1  0.4171490000000  0.5103830000000  0.6004650000000 1.0
C      1  0.4152850000000  0.4560790000000  0.4876970000000 1.0
C      1  0.5550050000000  0.4576040000000  0.4325090000000 1.0
C      1  0.5318900000000  0.4587900000000  0.5776460000000 1.0
C      1  0.5078730000000  0.5356720000000  0.5371340000000 1.0
C      1  0.4627360000000  0.5335850000000  0.4871110000000 1.0
C      1  0.5302520000000  0.5302840000000  0.4721070000000 1.0
C      1  0.4309880000000  0.4615900000000  0.5807920000000 1.0
C      1  0.4658300000000  0.4669940000000  0.3991550000000 1.0
C      1  0.6044710000000  0.4644910000000  0.5199950000000 1.0
C      1  0.5217840000000  0.5182100000000  0.5141410000000 1.0
C      1  0.4782180000000  0.5213490000000  0.5075600000000 1.0
C      1  0.5052190000000  0.5118170000000  0.4703070000000 1.0
C      1  0.5554630000000  0.4556460000000  0.5217490000000 1.0
C      1  0.4501820000000  0.4542030000000  0.5372550000000 1.0
C      1  0.4987740000000  0.4623260000000  0.4559990000000 1.0
C      1  0.5555800000000  0.4099900000000  0.5125450000000 1.0
C      1  0.4660340000000  0.4078530000000  0.5410700000000 1.0
C      1  0.4819530000000  0.4144560000000  0.4487030000000 1.0
C      1  0.5455780000000  0.5753910000000  0.4656860000000 1.0
C      1  0.5060850000000  0.5816210000000  0.5505990000000 1.0
C      1  0.4509990000000  0.5773540000000  0.4809900000000 1.0
C      1  0.4722400000000  0.3906590000000  0.4906220000000 1.0
C      1  0.5157200000000  0.3967350000000  0.4830990000000 1.0
C      1  0.5124590000000  0.3896630000000  0.5294220000000 1.0
C      1  0.5562250000000  0.5238090000000  0.4867130000000 1.0
C      1  0.4819060000000  0.5306050000000  0.5555660000000 1.0
C      1  0.4630390000000  0.5205050000000  0.4590820000000 1.0
C      1  0.4603570000000  0.4854590000000  0.4759080000000 1.0
C      1  0.5419110000000  0.4777170000000  0.4764100000000 1.0
C      1  0.4927930000000  0.4817370000000  0.5406630000000 1.0
C      1  0.5006720000000  0.5088020000000  0.4976800000000 1.0
C      1  0.5018360000000  0.5682300000000  0.4967750000000 1.0
END
