TITL C-3578194-7807-502 8.55195117720995e-07 125000 -850.422754785509 0 0 137 (C1) n - 1
REM
REM in /home/bkarasulu/work/CARBON/AIRSS/Generating-Clusters/EDIP-Nigel-Params/with-SteepDescent/Higher-Symm/SD-CG/HFTN-CG
REM
REM
REM
REM
REM
REM ./C.cell (12c818d87b63d06a65506943cc24bca4)
REM
REM compiler GCC version 9.2.1 20190827 (Red Hat 9.2.1-1)
REM options -cpp -mtune=generic -march=x86-64 -g -O0 -fpre-include=/usr/include/finclude/math-vector-fortran.h
REM seed 935593002 608818008 -1626236231 439616738 1891708502 1160135768 1381769620 -1260826761 24390556 -1081486662 -2077858332 680494156 -1058583804 1256096044 -2144826613 1026295562 -637269013 983179217 1541952154 459970277 2060339609 487119835 38428143 -1333125379 -1628260367 1787674989 -253768534 -1246260737 1365975905 1242269778 -2012623115 503200866 274979764
REM
CELL 1.54180   50.00000   50.00000   50.00000   90.00000   90.00000   90.00000
LATT -1
SFAC C  
C      1  0.5206830000000  0.6071820000000  0.4780840000000 1.0
C      1  0.5196800000000  0.3926070000000  0.5220480000000 1.0
C      1  0.4544090000000  0.4077230000000  0.4933270000000 1.0
C      1  0.4545210000000  0.5932840000000  0.5067390000000 1.0
C      1  0.4251160000000  0.4764970000000  0.5067490000000 1.0
C      1  0.4255050000000  0.5246000000000  0.4930400000000 1.0
C      1  0.4219530000000  0.5036840000000  0.5699780000000 1.0
C      1  0.4228850000000  0.4970220000000  0.4300480000000 1.0
C      1  0.4514360000000  0.5408990000000  0.5678400000000 1.0
C      1  0.4525850000000  0.4598930000000  0.4323420000000 1.0
C      1  0.5941470000000  0.4728000000000  0.4657350000000 1.0
C      1  0.5861810000000  0.5332860000000  0.5320720000000 1.0
C      1  0.5044930000000  0.5892990000000  0.5208520000000 1.0
C      1  0.5035400000000  0.4074900000000  0.4776390000000 1.0
C      1  0.4591380000000  0.5171540000000  0.4547740000000 1.0
C      1  0.4585080000000  0.4837460000000  0.5459270000000 1.0
C      1  0.4251990000000  0.5440190000000  0.5385820000000 1.0
C      1  0.4260160000000  0.4567630000000  0.4613240000000 1.0
C      1  0.4998120000000  0.4762500000000  0.6059250000000 1.0
C      1  0.4987140000000  0.5241240000000  0.3935700000000 1.0
C      1  0.4703290000000  0.5051530000000  0.4285080000000 1.0
C      1  0.4695970000000  0.4956680000000  0.5722700000000 1.0
C      1  0.5286530000000  0.4610850000000  0.4005250000000 1.0
C      1  0.5256770000000  0.5403830000000  0.6036310000000 1.0
C      1  0.5845350000000  0.4942850000000  0.4478210000000 1.0
C      1  0.5819690000000  0.5083320000000  0.5500990000000 1.0
C      1  0.4294960000000  0.5210220000000  0.4461260000000 1.0
C      1  0.4288330000000  0.4796870000000  0.5540180000000 1.0
C      1  0.5073820000000  0.6041420000000  0.4489120000000 1.0
C      1  0.5063290000000  0.3958790000000  0.5511280000000 1.0
C      1  0.5336690000000  0.5604040000000  0.5033480000000 1.0
C      1  0.5323780000000  0.4399550000000  0.4974910000000 1.0
C      1  0.5841040000000  0.5278240000000  0.5019370000000 1.0
C      1  0.5839190000000  0.4728170000000  0.4939850000000 1.0
C      1  0.4997650000000  0.3888150000000  0.5003390000000 1.0
C      1  0.5008970000000  0.6100110000000  0.5000170000000 1.0
C      1  0.4484150000000  0.4861170000000  0.4197380000000 1.0
C      1  0.4473340000000  0.5146410000000  0.5806390000000 1.0
C      1  0.4771080000000  0.4468660000000  0.5764960000000 1.0
C      1  0.4772280000000  0.5538620000000  0.4240540000000 1.0
C      1  0.5458340000000  0.5723700000000  0.4558480000000 1.0
C      1  0.5452570000000  0.4280030000000  0.5427640000000 1.0
C      1  0.4912270000000  0.4969390000000  0.4855890000000 1.0
C      1  0.4911200000000  0.5043830000000  0.5160020000000 1.0
C      1  0.4097370000000  0.5214130000000  0.4682280000000 1.0
C      1  0.4093240000000  0.4793300000000  0.5316140000000 1.0
C      1  0.5473770000000  0.4698730000000  0.5884530000000 1.0
C      1  0.5457860000000  0.5293490000000  0.4103340000000 1.0
C      1  0.4898260000000  0.4590140000000  0.3992250000000 1.0
C      1  0.4869560000000  0.5424550000000  0.6018620000000 1.0
C      1  0.5565340000000  0.5108100000000  0.5643810000000 1.0
C      1  0.5569950000000  0.4909740000000  0.4391170000000 1.0
C      1  0.4614970000000  0.4943220000000  0.4757460000000 1.0
C      1  0.4610910000000  0.5067270000000  0.5250440000000 1.0
C      1  0.4369060000000  0.4275150000000  0.5076320000000 1.0
C      1  0.4367340000000  0.5737700000000  0.4924730000000 1.0
C      1  0.3936790000000  0.5033290000000  0.5320350000000 1.0
C      1  0.3943250000000  0.4972710000000  0.4678040000000 1.0
C      1  0.4804160000000  0.4080970000000  0.5380290000000 1.0
C      1  0.4815420000000  0.5922270000000  0.4625200000000 1.0
C      1  0.5633600000000  0.5519560000000  0.5416000000000 1.0
C      1  0.5629950000000  0.4513740000000  0.4673120000000 1.0
C      1  0.4585290000000  0.5591630000000  0.4447370000000 1.0
C      1  0.4581160000000  0.4415730000000  0.5560080000000 1.0
C      1  0.5696470000000  0.5543960000000  0.4584580000000 1.0
C      1  0.5687760000000  0.4450390000000  0.5349930000000 1.0
C      1  0.5500280000000  0.4268700000000  0.4788080000000 1.0
C      1  0.5506640000000  0.5727080000000  0.5241490000000 1.0
C      1  0.4896030000000  0.4512930000000  0.4965880000000 1.0
C      1  0.4904810000000  0.5507890000000  0.5045740000000 1.0
C      1  0.5198770000000  0.4290870000000  0.4392740000000 1.0
C      1  0.5184010000000  0.5729540000000  0.5628260000000 1.0
C      1  0.5833760000000  0.4572780000000  0.5569610000000 1.0
C      1  0.5835670000000  0.5434640000000  0.4353710000000 1.0
C      1  0.5399750000000  0.4473610000000  0.4233580000000 1.0
C      1  0.5375920000000  0.5543810000000  0.5814930000000 1.0
C      1  0.4789720000000  0.4507940000000  0.4244650000000 1.0
C      1  0.4774560000000  0.5503970000000  0.5760260000000 1.0
C      1  0.5967950000000  0.5189180000000  0.4406680000000 1.0
C      1  0.5944080000000  0.4827270000000  0.5513710000000 1.0
C      1  0.5071520000000  0.5526220000000  0.4292390000000 1.0
C      1  0.5071020000000  0.4475230000000  0.5711360000000 1.0
C      1  0.4738640000000  0.6070070000000  0.4878330000000 1.0
C      1  0.4729570000000  0.3934740000000  0.5125090000000 1.0
C      1  0.4254550000000  0.4506300000000  0.4922890000000 1.0
C      1  0.4251440000000  0.5503940000000  0.5076000000000 1.0
C      1  0.4974770000000  0.4334350000000  0.5311800000000 1.0
C      1  0.4985740000000  0.5669260000000  0.4695570000000 1.0
C      1  0.5415300000000  0.5152160000000  0.4353540000000 1.0
C      1  0.5411850000000  0.4861820000000  0.5655300000000 1.0
C      1  0.4436050000000  0.4322540000000  0.5347270000000 1.0
C      1  0.4438780000000  0.5692230000000  0.4655180000000 1.0
C      1  0.4836890000000  0.4614200000000  0.5261110000000 1.0
C      1  0.4841860000000  0.5396570000000  0.4749560000000 1.0
C      1  0.5580960000000  0.4863080000000  0.4939910000000 1.0
C      1  0.5581970000000  0.5135940000000  0.5038490000000 1.0
C      1  0.5231370000000  0.5799650000000  0.4351520000000 1.0
C      1  0.5223270000000  0.4197780000000  0.5649630000000 1.0
C      1  0.5059290000000  0.4713010000000  0.4814620000000 1.0
C      1  0.5063440000000  0.5302070000000  0.5202090000000 1.0
C      1  0.5777510000000  0.4477150000000  0.5072730000000 1.0
C      1  0.5813440000000  0.5495000000000  0.4836660000000 1.0
C      1  0.5269520000000  0.5768580000000  0.4792210000000 1.0
C      1  0.5252750000000  0.4232290000000  0.5208840000000 1.0
C      1  0.4083180000000  0.5203500000000  0.5491070000000 1.0
C      1  0.4091100000000  0.4803410000000  0.4507500000000 1.0
C      1  0.5431620000000  0.5365310000000  0.5578310000000 1.0
C      1  0.5438780000000  0.4655940000000  0.4473550000000 1.0
C      1  0.4989760000000  0.5118000000000  0.5701140000000 1.0
C      1  0.4996620000000  0.4897360000000  0.4315080000000 1.0
C      1  0.5292180000000  0.4126210000000  0.4625910000000 1.0
C      1  0.5286510000000  0.5873760000000  0.5382290000000 1.0
C      1  0.5077020000000  0.4815690000000  0.4029240000000 1.0
C      1  0.5051900000000  0.5198270000000  0.5992860000000 1.0
C      1  0.4785570000000  0.4174050000000  0.4638030000000 1.0
C      1  0.4790250000000  0.5825320000000  0.5355710000000 1.0
C      1  0.5374820000000  0.4687190000000  0.5027540000000 1.0
C      1  0.5368370000000  0.5315660000000  0.4975770000000 1.0
C      1  0.4890160000000  0.5725620000000  0.5624580000000 1.0
C      1  0.4904070000000  0.4287900000000  0.4381770000000 1.0
C      1  0.5202500000000  0.4589070000000  0.5956090000000 1.0
C      1  0.5190920000000  0.5410530000000  0.4041800000000 1.0
C      1  0.5107800000000  0.4652310000000  0.4513890000000 1.0
C      1  0.5107910000000  0.5364750000000  0.5507720000000 1.0
C      1  0.5125900000000  0.5165700000000  0.4412110000000 1.0
C      1  0.5119860000000  0.4845140000000  0.5606510000000 1.0
C      1  0.5690810000000  0.5452470000000  0.4111050000000 1.0
C      1  0.5700770000000  0.4541960000000  0.5819730000000 1.0
C      1  0.5047260000000  0.5188820000000  0.4701490000000 1.0
C      1  0.5041070000000  0.4822050000000  0.5316350000000 1.0
C      1  0.4669250000000  0.5590830000000  0.5201070000000 1.0
C      1  0.4673160000000  0.4416480000000  0.4800060000000 1.0
C      1  0.4550810000000  0.5360860000000  0.5371540000000 1.0
C      1  0.4557440000000  0.4647750000000  0.4630620000000 1.0
C      1  0.4751450000000  0.5280560000000  0.4092380000000 1.0
C      1  0.4753370000000  0.4726500000000  0.5913560000000 1.0
C      1  0.4428690000000  0.5005070000000  0.5001970000000 1.0
END
