TITL C-3577085-527-192 -2.04668395869095e-06 125000 -687.118799422563 0 0 108 (C3) n - 1
REM
REM in /home/bkarasulu/work/CARBON/AIRSS/Generating-Clusters/EDIP-Nigel-Params/with-SteepDescent/Higher-Symm/SD-CG/HFTN-CG
REM
REM
REM
REM
REM
REM ./C.cell (12c818d87b63d06a65506943cc24bca4)
REM
REM compiler GCC version 9.2.1 20190827 (Red Hat 9.2.1-1)
REM options -cpp -mtune=generic -march=x86-64 -g -O0 -fpre-include=/usr/include/finclude/math-vector-fortran.h
REM seed -1703640289 -1836632467 51902653 1987247177 1489442717 512131013 -242465161 -1672250425 -8181295 1205170516 203113156 1100634992 981308404 489238997 -2005137063 662373752 1995983851 -1442185210 -91266778 1507994723 931369454 1366729092 1632104612 1079905275 -1388540186 -1502543984 1623929691 1977201600 1085576417 12608895 -127776741 1961547283 -841144172
REM
CELL 1.54180   50.00000   50.00000   50.00000   90.00000   90.00000   90.00000
LATT -1
SFAC C  
C      1  0.5130220000000  0.5925450000000  0.5150030000000 1.0
C      1  0.4258670000000  0.5597040000000  0.5149360000000 1.0
C      1  0.4133430000000  0.4649970000000  0.5149900000000 1.0
C      1  0.4853620000000  0.4059390000000  0.5148900000000 1.0
C      1  0.5736420000000  0.4424470000000  0.5149580000000 1.0
C      1  0.5887780000000  0.5343460000000  0.5149030000000 1.0
C      1  0.4644010000000  0.4556660000000  0.4386620000000 1.0
C      1  0.5206610000000  0.4470350000000  0.4386270000000 1.0
C      1  0.5561920000000  0.4913680000000  0.4386560000000 1.0
C      1  0.5355360000000  0.5444050000000  0.4386480000000 1.0
C      1  0.4793770000000  0.5530100000000  0.4386830000000 1.0
C      1  0.4437730000000  0.5086030000000  0.4386540000000 1.0
C      1  0.5839680000000  0.4626640000000  0.4707580000000 1.0
C      1  0.5740350000000  0.5538520000000  0.4710470000000 1.0
C      1  0.4903490000000  0.5914010000000  0.4708040000000 1.0
C      1  0.4163440000000  0.5372050000000  0.4710690000000 1.0
C      1  0.4256690000000  0.4459560000000  0.4707800000000 1.0
C      1  0.5096060000000  0.4089640000000  0.4710240000000 1.0
C      1  0.5254810000000  0.5704210000000  0.4467140000000 1.0
C      1  0.4518260000000  0.5572370000000  0.4467590000000 1.0
C      1  0.4262710000000  0.4868830000000  0.4467100000000 1.0
C      1  0.4745160000000  0.4296880000000  0.4467250000000 1.0
C      1  0.5482220000000  0.4427330000000  0.4466800000000 1.0
C      1  0.5736310000000  0.5131130000000  0.4467280000000 1.0
C      1  0.4631370000000  0.4154410000000  0.4705920000000 1.0
C      1  0.5549630000000  0.4257060000000  0.4705380000000 1.0
C      1  0.5916600000000  0.5103690000000  0.4705930000000 1.0
C      1  0.5368580000000  0.5847610000000  0.4705780000000 1.0
C      1  0.4451890000000  0.5742100000000  0.4706320000000 1.0
C      1  0.4081650000000  0.4895540000000  0.4705770000000 1.0
C      1  0.4723770000000  0.5158610000000  0.5331560000000 1.0
C      1  0.4720220000000  0.4839580000000  0.5316630000000 1.0
C      1  0.5000770000000  0.4681310000000  0.5331410000000 1.0
C      1  0.5278830000000  0.4837760000000  0.5316540000000 1.0
C      1  0.5275630000000  0.5159850000000  0.5331470000000 1.0
C      1  0.5001100000000  0.5322440000000  0.5316700000000 1.0
C      1  0.4765180000000  0.5530950000000  0.5659060000000 1.0
C      1  0.4421500000000  0.5062540000000  0.5662700000000 1.0
C      1  0.4657630000000  0.4530840000000  0.5658840000000 1.0
C      1  0.5235110000000  0.4467410000000  0.5662430000000 1.0
C      1  0.5577520000000  0.4937750000000  0.5658780000000 1.0
C      1  0.5343710000000  0.5469580000000  0.5662650000000 1.0
C      1  0.5566170000000  0.5709580000000  0.4874820000000 1.0
C      1  0.4670530000000  0.5843020000000  0.4874600000000 1.0
C      1  0.4102400000000  0.5135590000000  0.4874930000000 1.0
C      1  0.4434650000000  0.4293220000000  0.4874270000000 1.0
C      1  0.5331370000000  0.4154920000000  0.4874490000000 1.0
C      1  0.5894760000000  0.4863850000000  0.4874170000000 1.0
C      1  0.5218470000000  0.4803310000000  0.4882910000000 1.0
C      1  0.5278240000000  0.5090590000000  0.4896720000000 1.0
C      1  0.5061100000000  0.5287610000000  0.4883050000000 1.0
C      1  0.4782420000000  0.5195720000000  0.4896830000000 1.0
C      1  0.4720370000000  0.4909170000000  0.4883020000000 1.0
C      1  0.4939290000000  0.4713760000000  0.4896690000000 1.0
C      1  0.4872120000000  0.5264260000000  0.5736090000000 1.0
C      1  0.4704740000000  0.5021730000000  0.5751350000000 1.0
C      1  0.4835120000000  0.4756760000000  0.5735970000000 1.0
C      1  0.5128840000000  0.4733060000000  0.5751210000000 1.0
C      1  0.5293130000000  0.4978460000000  0.5735950000000 1.0
C      1  0.5166790000000  0.5244680000000  0.5751330000000 1.0
C      1  0.4337630000000  0.5345060000000  0.4469090000000 1.0
C      1  0.4368410000000  0.4598630000000  0.4467030000000 1.0
C      1  0.5032330000000  0.4254100000000  0.4468720000000 1.0
C      1  0.5663370000000  0.4653980000000  0.4466830000000 1.0
C      1  0.5629780000000  0.5401210000000  0.4468890000000 1.0
C      1  0.4967950000000  0.5747770000000  0.4467200000000 1.0
C      1  0.4705610000000  0.5661850000000  0.5133130000000 1.0
C      1  0.4281080000000  0.5077650000000  0.5126140000000 1.0
C      1  0.4574020000000  0.4414070000000  0.5132860000000 1.0
C      1  0.5292220000000  0.4338500000000  0.5125800000000 1.0
C      1  0.5720430000000  0.4924000000000  0.5132790000000 1.0
C      1  0.5426770000000  0.5583750000000  0.5126070000000 1.0
C      1  0.5205180000000  0.5708950000000  0.5552210000000 1.0
C      1  0.4487080000000  0.5533260000000  0.5553210000000 1.0
C      1  0.4283470000000  0.4822940000000  0.5552160000000 1.0
C      1  0.4794670000000  0.4288890000000  0.5552860000000 1.0
C      1  0.5511630000000  0.4467720000000  0.5551870000000 1.0
C      1  0.5718530000000  0.5177460000000  0.5552920000000 1.0
C      1  0.5144810000000  0.5951480000000  0.4865520000000 1.0
C      1  0.4253270000000  0.5599580000000  0.4866170000000 1.0
C      1  0.4103580000000  0.4649730000000  0.4865380000000 1.0
C      1  0.4854110000000  0.4053590000000  0.4865710000000 1.0
C      1  0.5751550000000  0.4398880000000  0.4865050000000 1.0
C      1  0.5892550000000  0.5346930000000  0.4865840000000 1.0
C      1  0.5338990000000  0.5813790000000  0.5310540000000 1.0
C      1  0.4462570000000  0.5705330000000  0.5313990000000 1.0
C      1  0.4125760000000  0.4886520000000  0.5310520000000 1.0
C      1  0.4657890000000  0.4181750000000  0.5313590000000 1.0
C      1  0.5535410000000  0.4299470000000  0.5310150000000 1.0
C      1  0.5879690000000  0.5112690000000  0.5313610000000 1.0
C      1  0.4889580000000  0.4453490000000  0.5052890000000 1.0
C      1  0.5417910000000  0.4630780000000  0.5042070000000 1.0
C      1  0.5528500000000  0.5177600000000  0.5052960000000 1.0
C      1  0.5110800000000  0.5546510000000  0.5042340000000 1.0
C      1  0.4581940000000  0.5368870000000  0.5053160000000 1.0
C      1  0.4471310000000  0.4822680000000  0.5042270000000 1.0
C      1  0.5184250000000  0.5230060000000  0.4276080000000 1.0
C      1  0.4892980000000  0.5274850000000  0.4276190000000 1.0
C      1  0.4708600000000  0.5044890000000  0.4276110000000 1.0
C      1  0.4815460000000  0.4770250000000  0.4276090000000 1.0
C      1  0.5106790000000  0.4725560000000  0.4275970000000 1.0
C      1  0.5291210000000  0.4955410000000  0.4276050000000 1.0
C      1  0.5502540000000  0.5353380000000  0.5439810000000 1.0
C      1  0.4944530000000  0.5611840000000  0.5435540000000 1.0
C      1  0.4442710000000  0.5258310000000  0.5439970000000 1.0
C      1  0.4497890000000  0.4645820000000  0.5435390000000 1.0
C      1  0.5054960000000  0.4388000000000  0.5439660000000 1.0
C      1  0.5557800000000  0.4742030000000  0.5435230000000 1.0
END
