TITL C-3578204-4308-20 -3.20410864441174e-06 125000 -1020.43891737155 0 0 162 (C1) n - 1
REM
REM in /home/bkarasulu/work/CARBON/AIRSS/Generating-Clusters/EDIP-Nigel-Params/with-SteepDescent/Higher-Symm/SD-CG/HFTN-CG
REM
REM
REM
REM
REM
REM ./C.cell (12c818d87b63d06a65506943cc24bca4)
REM
REM compiler GCC version 9.2.1 20190827 (Red Hat 9.2.1-1)
REM options -cpp -mtune=generic -march=x86-64 -g -O0 -fpre-include=/usr/include/finclude/math-vector-fortran.h
REM seed 2053015081 1274254062 -1433477031 -264546088 2055306583 1866540921 -945546346 1792083034 107212258 -894717335 72685973 1441190669 86942462 1999484951 -1665329498 -827591220 217500270 -684588910 1038415297 -1117904001 1788979937 -171133335 330438378 -1000605736 960719844 -336450880 -1188020026 764226270 665954784 1786969692 -1507684098 1674721529 1907523686
REM
CELL 1.54180   50.00000   50.00000   50.00000   90.00000   90.00000   90.00000
LATT -1
SFAC C  
C      1  0.4510730000000  0.4120550000000  0.5246210000000 1.0
C      1  0.4516830000000  0.4123350000000  0.4748790000000 1.0
C      1  0.5986820000000  0.5081200000000  0.4855870000000 1.0
C      1  0.5983700000000  0.5080560000000  0.5145220000000 1.0
C      1  0.5640320000000  0.5151050000000  0.5511520000000 1.0
C      1  0.5639820000000  0.5150520000000  0.4493010000000 1.0
C      1  0.5536210000000  0.4847250000000  0.4537860000000 1.0
C      1  0.5535800000000  0.4850720000000  0.5463280000000 1.0
C      1  0.4770580000000  0.5230450000000  0.5620690000000 1.0
C      1  0.4769380000000  0.5233340000000  0.4378610000000 1.0
C      1  0.4649660000000  0.4235230000000  0.5756970000000 1.0
C      1  0.4650880000000  0.4240030000000  0.4258950000000 1.0
C      1  0.5414720000000  0.5692860000000  0.5750050000000 1.0
C      1  0.5414050000000  0.5695400000000  0.4249690000000 1.0
C      1  0.3942240000000  0.4960170000000  0.5275090000000 1.0
C      1  0.3939310000000  0.4961210000000  0.4723160000000 1.0
C      1  0.5771200000000  0.5535360000000  0.5148560000000 1.0
C      1  0.5772060000000  0.5536290000000  0.4851510000000 1.0
C      1  0.4979830000000  0.5855090000000  0.5323400000000 1.0
C      1  0.4980330000000  0.5856280000000  0.4675700000000 1.0
C      1  0.4680580000000  0.5540400000000  0.4854730000000 1.0
C      1  0.4680070000000  0.5539660000000  0.5143640000000 1.0
C      1  0.6075020000000  0.4859100000000  0.4710440000000 1.0
C      1  0.6077810000000  0.4861460000000  0.5291550000000 1.0
C      1  0.3951830000000  0.5224830000000  0.4857220000000 1.0
C      1  0.3954430000000  0.5223810000000  0.5141770000000 1.0
C      1  0.4270130000000  0.4836320000000  0.5599510000000 1.0
C      1  0.4264290000000  0.4839050000000  0.4396570000000 1.0
C      1  0.4038180000000  0.4708350000000  0.5145140000000 1.0
C      1  0.4036910000000  0.4708780000000  0.4852660000000 1.0
C      1  0.5367680000000  0.4329530000000  0.5686940000000 1.0
C      1  0.5370770000000  0.4322830000000  0.4310830000000 1.0
C      1  0.4875780000000  0.4746880000000  0.5921470000000 1.0
C      1  0.4874740000000  0.4747730000000  0.4080390000000 1.0
C      1  0.4471770000000  0.4462770000000  0.4232980000000 1.0
C      1  0.4469380000000  0.4458930000000  0.5777280000000 1.0
C      1  0.4942650000000  0.5629970000000  0.5857970000000 1.0
C      1  0.4942000000000  0.5633430000000  0.4140060000000 1.0
C      1  0.5023730000000  0.5288840000000  0.5460740000000 1.0
C      1  0.5025230000000  0.5286080000000  0.4539750000000 1.0
C      1  0.5453470000000  0.5855720000000  0.5499120000000 1.0
C      1  0.5455100000000  0.5859380000000  0.4500060000000 1.0
C      1  0.5209540000000  0.5523250000000  0.4094180000000 1.0
C      1  0.5210440000000  0.5520520000000  0.5903740000000 1.0
C      1  0.4856860000000  0.5750960000000  0.5597330000000 1.0
C      1  0.4856930000000  0.5752860000000  0.4401620000000 1.0
C      1  0.5746230000000  0.4750540000000  0.4222870000000 1.0
C      1  0.5746750000000  0.4755130000000  0.5778000000000 1.0
C      1  0.5643310000000  0.5756820000000  0.5292680000000 1.0
C      1  0.5645240000000  0.5758050000000  0.4705770000000 1.0
C      1  0.5034870000000  0.4495910000000  0.4017900000000 1.0
C      1  0.5036800000000  0.4496660000000  0.5988550000000 1.0
C      1  0.4572760000000  0.4682030000000  0.4059540000000 1.0
C      1  0.4573620000000  0.4681640000000  0.5944580000000 1.0
C      1  0.5347790000000  0.5506150000000  0.5256450000000 1.0
C      1  0.5349670000000  0.5507240000000  0.4738760000000 1.0
C      1  0.4761500000000  0.5508220000000  0.6027960000000 1.0
C      1  0.4761060000000  0.5509400000000  0.3971490000000 1.0
C      1  0.4977580000000  0.4247010000000  0.5337950000000 1.0
C      1  0.4988450000000  0.4258420000000  0.4657400000000 1.0
C      1  0.5834750000000  0.5036690000000  0.4272790000000 1.0
C      1  0.5832770000000  0.5042810000000  0.5729880000000 1.0
C      1  0.4733440000000  0.5238800000000  0.4071080000000 1.0
C      1  0.4734770000000  0.5237520000000  0.5928200000000 1.0
C      1  0.6046930000000  0.4392920000000  0.4848970000000 1.0
C      1  0.6046600000000  0.4394790000000  0.5151700000000 1.0
C      1  0.5818230000000  0.4534640000000  0.4426880000000 1.0
C      1  0.5816660000000  0.4539480000000  0.5572720000000 1.0
C      1  0.4526560000000  0.5400280000000  0.4460140000000 1.0
C      1  0.4528260000000  0.5396650000000  0.5538060000000 1.0
C      1  0.5893240000000  0.4126900000000  0.4835300000000 1.0
C      1  0.5891550000000  0.4129840000000  0.5168200000000 1.0
C      1  0.4943980000000  0.5043970000000  0.3976980000000 1.0
C      1  0.4945000000000  0.5043220000000  0.6023340000000 1.0
C      1  0.5067050000000  0.5606530000000  0.4839760000000 1.0
C      1  0.5066360000000  0.5606200000000  0.5157330000000 1.0
C      1  0.4102500000000  0.5298680000000  0.4427860000000 1.0
C      1  0.4104380000000  0.5296440000000  0.5571030000000 1.0
C      1  0.5322040000000  0.4514650000000  0.5909930000000 1.0
C      1  0.5320850000000  0.4512610000000  0.4091860000000 1.0
C      1  0.4932900000000  0.4242440000000  0.5844590000000 1.0
C      1  0.4930750000000  0.4244480000000  0.4165060000000 1.0
C      1  0.5622500000000  0.4187550000000  0.5285610000000 1.0
C      1  0.5624610000000  0.4179420000000  0.4713990000000 1.0
C      1  0.4263530000000  0.5359680000000  0.4189690000000 1.0
C      1  0.4265090000000  0.5357800000000  0.5809060000000 1.0
C      1  0.5633490000000  0.4302130000000  0.5560110000000 1.0
C      1  0.5636740000000  0.4296100000000  0.4439350000000 1.0
C      1  0.5915280000000  0.4620950000000  0.4700720000000 1.0
C      1  0.5916150000000  0.4624790000000  0.5299130000000 1.0
C      1  0.5672720000000  0.5199610000000  0.5908600000000 1.0
C      1  0.5670810000000  0.5199840000000  0.4101270000000 1.0
C      1  0.5093160000000  0.5144250000000  0.5192760000000 1.0
C      1  0.5103830000000  0.5139000000000  0.4806630000000 1.0
C      1  0.4576740000000  0.5698770000000  0.5543420000000 1.0
C      1  0.4576660000000  0.5701720000000  0.4455760000000 1.0
C      1  0.4436670000000  0.5168490000000  0.4044440000000 1.0
C      1  0.4438150000000  0.5166850000000  0.5954110000000 1.0
C      1  0.4740490000000  0.5980500000000  0.5152120000000 1.0
C      1  0.4740940000000  0.5981040000000  0.4847980000000 1.0
C      1  0.5180160000000  0.4422710000000  0.4831290000000 1.0
C      1  0.5140980000000  0.4426120000000  0.5152960000000 1.0
C      1  0.4214650000000  0.5685560000000  0.4848420000000 1.0
C      1  0.4215250000000  0.5685160000000  0.5151580000000 1.0
C      1  0.4081330000000  0.5440650000000  0.5297530000000 1.0
C      1  0.4078790000000  0.5442220000000  0.4701680000000 1.0
C      1  0.5803950000000  0.5267060000000  0.5277110000000 1.0
C      1  0.5810750000000  0.5269420000000  0.4721360000000 1.0
C      1  0.4511310000000  0.4859820000000  0.5371950000000 1.0
C      1  0.4501720000000  0.4864130000000  0.4621620000000 1.0
C      1  0.4738380000000  0.4954350000000  0.4472750000000 1.0
C      1  0.4742800000000  0.4950800000000  0.5525820000000 1.0
C      1  0.5443310000000  0.5050240000000  0.5991780000000 1.0
C      1  0.5441950000000  0.5050330000000  0.4015230000000 1.0
C      1  0.5642230000000  0.4700420000000  0.5196220000000 1.0
C      1  0.5640110000000  0.4693830000000  0.4802770000000 1.0
C      1  0.4776310000000  0.4101950000000  0.5150080000000 1.0
C      1  0.4782530000000  0.4110250000000  0.4847710000000 1.0
C      1  0.5231950000000  0.6017810000000  0.5369760000000 1.0
C      1  0.5232610000000  0.6019550000000  0.4630740000000 1.0
C      1  0.4505980000000  0.5323760000000  0.5248420000000 1.0
C      1  0.4503870000000  0.5326680000000  0.4749320000000 1.0
C      1  0.4617890000000  0.4588850000000  0.5272300000000 1.0
C      1  0.4604110000000  0.4591580000000  0.4722170000000 1.0
C      1  0.5388360000000  0.5232780000000  0.4853280000000 1.0
C      1  0.5381670000000  0.5233270000000  0.5139030000000 1.0
C      1  0.4928660000000  0.4736650000000  0.5615240000000 1.0
C      1  0.4927430000000  0.4741090000000  0.4386640000000 1.0
C      1  0.5155670000000  0.4864900000000  0.5245430000000 1.0
C      1  0.5160710000000  0.4860570000000  0.4759900000000 1.0
C      1  0.5495940000000  0.4430420000000  0.5153010000000 1.0
C      1  0.5493030000000  0.4422220000000  0.4844270000000 1.0
C      1  0.4504320000000  0.5058280000000  0.4851540000000 1.0
C      1  0.4509750000000  0.5056140000000  0.5144170000000 1.0
C      1  0.5226460000000  0.4808570000000  0.5518910000000 1.0
C      1  0.5223080000000  0.4804800000000  0.4482980000000 1.0
C      1  0.5298440000000  0.5390250000000  0.5544540000000 1.0
C      1  0.5295820000000  0.5391870000000  0.4451490000000 1.0
C      1  0.4162260000000  0.4479030000000  0.5297270000000 1.0
C      1  0.4160300000000  0.4479060000000  0.4701140000000 1.0
C      1  0.5311900000000  0.6145600000000  0.4866700000000 1.0
C      1  0.5311650000000  0.6144860000000  0.5134490000000 1.0
C      1  0.4031220000000  0.5012960000000  0.4453480000000 1.0
C      1  0.4036490000000  0.5010260000000  0.5543760000000 1.0
C      1  0.4975770000000  0.4668570000000  0.5140600000000 1.0
C      1  0.4933350000000  0.4722800000000  0.4861600000000 1.0
C      1  0.4378500000000  0.4889810000000  0.5876470000000 1.0
C      1  0.4375460000000  0.4891220000000  0.4120590000000 1.0
C      1  0.5468370000000  0.4771900000000  0.5889700000000 1.0
C      1  0.5466840000000  0.4769850000000  0.4112740000000 1.0
C      1  0.4519620000000  0.5782640000000  0.4743140000000 1.0
C      1  0.4519250000000  0.5781040000000  0.5256340000000 1.0
C      1  0.5127100000000  0.4168620000000  0.5621790000000 1.0
C      1  0.5128030000000  0.4165770000000  0.4382490000000 1.0
C      1  0.5195630000000  0.5199080000000  0.4026570000000 1.0
C      1  0.5196930000000  0.5198310000000  0.5975340000000 1.0
C      1  0.4804910000000  0.4477280000000  0.4519930000000 1.0
C      1  0.4799510000000  0.4466060000000  0.5487810000000 1.0
C      1  0.4417470000000  0.4383730000000  0.5160880000000 1.0
C      1  0.4413810000000  0.4381730000000  0.4838160000000 1.0
C      1  0.4219900000000  0.4542850000000  0.4408140000000 1.0
C      1  0.4220960000000  0.4541260000000  0.5591720000000 1.0
END
