TITL C-3578197-9521-61 -3.0080087662585e-06 125000 -411.429082260332 0 0 67 (C1) n - 1
REM
REM in /home/bkarasulu/work/CARBON/AIRSS/Generating-Clusters/EDIP-Nigel-Params/with-SteepDescent/Higher-Symm/SD-CG/HFTN-CG
REM
REM
REM
REM
REM
REM ./C.cell (12c818d87b63d06a65506943cc24bca4)
REM
REM compiler GCC version 9.2.1 20190827 (Red Hat 9.2.1-1)
REM options -cpp -mtune=generic -march=x86-64 -g -O0 -fpre-include=/usr/include/finclude/math-vector-fortran.h
REM seed -1360327244 -36107395 1581529980 80580325 -394636366 -813673058 946115620 -2037238239 502793265 2117368084 -1701508912 2074571091 -468980395 -2134268529 1850917498 1159453442 -1410918659 -214607592 -4475946 -1124755104 830244694 -331474713 -821144449 -1715333510 598774492 1484360398 -317262226 -583250605 -1836300972 2101252433 -803847933 -1718926127 -471942027
REM
CELL 1.54180   50.00000   50.00000   50.00000   90.00000   90.00000   90.00000
LATT -1
SFAC C  
C      1  0.5198040000000  0.5026400000000  0.5773410000000 1.0
C      1  0.4168230000000  0.5272930000000  0.4973820000000 1.0
C      1  0.4550830000000  0.4688470000000  0.5195800000000 1.0
C      1  0.4307450000000  0.5507950000000  0.4870840000000 1.0
C      1  0.5704840000000  0.4781280000000  0.4756020000000 1.0
C      1  0.5007070000000  0.4889830000000  0.4407750000000 1.0
C      1  0.4741140000000  0.5055780000000  0.4867230000000 1.0
C      1  0.5423530000000  0.4764120000000  0.4367670000000 1.0
C      1  0.4272350000000  0.4799150000000  0.4830420000000 1.0
C      1  0.5299390000000  0.4595860000000  0.5553080000000 1.0
C      1  0.4614910000000  0.4592170000000  0.4562200000000 1.0
C      1  0.5557330000000  0.4989560000000  0.4476480000000 1.0
C      1  0.5185030000000  0.4334800000000  0.4908630000000 1.0
C      1  0.5302310000000  0.5089300000000  0.4808940000000 1.0
C      1  0.5396870000000  0.4508110000000  0.4479960000000 1.0
C      1  0.4521290000000  0.5439690000000  0.4672290000000 1.0
C      1  0.4946440000000  0.4636840000000  0.4844620000000 1.0
C      1  0.5502230000000  0.5078740000000  0.5080020000000 1.0
C      1  0.4995190000000  0.4880000000000  0.5276090000000 1.0
C      1  0.4573570000000  0.5127870000000  0.5406970000000 1.0
C      1  0.4797270000000  0.4810830000000  0.5054540000000 1.0
C      1  0.5061470000000  0.4908650000000  0.4709390000000 1.0
C      1  0.4320370000000  0.5033710000000  0.5002730000000 1.0
C      1  0.4970200000000  0.5759500000000  0.4936180000000 1.0
C      1  0.5085520000000  0.5623200000000  0.5185000000000 1.0
C      1  0.5456130000000  0.5560190000000  0.5101120000000 1.0
C      1  0.5306000000000  0.4554890000000  0.5083510000000 1.0
C      1  0.4896240000000  0.4597520000000  0.4437090000000 1.0
C      1  0.5209080000000  0.5822810000000  0.4797190000000 1.0
C      1  0.5291000000000  0.5367260000000  0.4663550000000 1.0
C      1  0.4812730000000  0.4984930000000  0.5519440000000 1.0
C      1  0.5600740000000  0.4535840000000  0.4668880000000 1.0
C      1  0.4384640000000  0.4557100000000  0.4976420000000 1.0
C      1  0.4918310000000  0.4388090000000  0.5317500000000 1.0
C      1  0.5131520000000  0.4412680000000  0.4578670000000 1.0
C      1  0.5422760000000  0.5245300000000  0.4414840000000 1.0
C      1  0.5004550000000  0.5452810000000  0.5632950000000 1.0
C      1  0.4934180000000  0.4247520000000  0.5052850000000 1.0
C      1  0.5128020000000  0.4738470000000  0.5742770000000 1.0
C      1  0.4578730000000  0.5102410000000  0.4598630000000 1.0
C      1  0.5293240000000  0.5476810000000  0.5602720000000 1.0
C      1  0.4396980000000  0.5529120000000  0.5153920000000 1.0
C      1  0.5571750000000  0.4618690000000  0.5198680000000 1.0
C      1  0.5559310000000  0.4677250000000  0.5479220000000 1.0
C      1  0.5129120000000  0.4599220000000  0.5315580000000 1.0
C      1  0.4637620000000  0.5384890000000  0.5252150000000 1.0
C      1  0.4429110000000  0.4831480000000  0.4579660000000 1.0
C      1  0.4801610000000  0.5534440000000  0.4779840000000 1.0
C      1  0.5202630000000  0.5093000000000  0.5195100000000 1.0
C      1  0.5395050000000  0.5609430000000  0.4822240000000 1.0
C      1  0.5073070000000  0.5335190000000  0.5088380000000 1.0
C      1  0.4853400000000  0.5565250000000  0.5396030000000 1.0
C      1  0.5617140000000  0.5305950000000  0.5473920000000 1.0
C      1  0.5621180000000  0.5336490000000  0.5185220000000 1.0
C      1  0.4798920000000  0.5315270000000  0.4998980000000 1.0
C      1  0.5195910000000  0.5183240000000  0.4242490000000 1.0
C      1  0.4403080000000  0.4941410000000  0.5266140000000 1.0
C      1  0.4772950000000  0.4711270000000  0.5644280000000 1.0
C      1  0.5009070000000  0.5435540000000  0.4581270000000 1.0
C      1  0.4945170000000  0.5169840000000  0.5722060000000 1.0
C      1  0.5688850000000  0.4840150000000  0.5042000000000 1.0
C      1  0.4562970000000  0.4418810000000  0.4793080000000 1.0
C      1  0.4707400000000  0.4203950000000  0.4898090000000 1.0
C      1  0.4768020000000  0.5084300000000  0.4362960000000 1.0
C      1  0.4946400000000  0.5315850000000  0.4322900000000 1.0
C      1  0.4674490000000  0.4523450000000  0.5429450000000 1.0
C      1  0.5368070000000  0.5197130000000  0.5588130000000 1.0
END
