TITL C-3577079-311-730 -3.61405683579863e-09 125000 -1291.01890784844 0 0 200 (C1) n - 1
REM
REM in /home/bkarasulu/work/CARBON/AIRSS/Generating-Clusters/EDIP-Nigel-Params/with-SteepDescent/Higher-Symm/SD-CG/HFTN-CG
REM
REM
REM
REM
REM
REM ./C.cell (12c818d87b63d06a65506943cc24bca4)
REM
REM compiler GCC version 9.2.1 20190827 (Red Hat 9.2.1-1)
REM options -cpp -mtune=generic -march=x86-64 -g -O0 -fpre-include=/usr/include/finclude/math-vector-fortran.h
REM seed 1289292781 -1334814907 -910215738 -1327628919 1732404877 -581227153 -838575071 -326894711 -1886225501 1599159917 84341807 -913093977 -861347550 2037670676 438040083 615143907 1298135528 1839420021 1072146636 -1754136148 -1541829205 -524549467 1671220651 376620507 995678439 -1858571769 735058021 1377063469 -1427422844 -1894243755 1585916802 1615021602 890085724
REM
CELL 1.54180   50.00000   50.00000   50.00000   90.00000   90.00000   90.00000
LATT -1
SFAC C  
C      1  0.5293940000000  0.4081450000000  0.5587550000000 1.0
C      1  0.4061540000000  0.5616170000000  0.5289400000000 1.0
C      1  0.5593460000000  0.5280650000000  0.4021140000000 1.0
C      1  0.4696330000000  0.4083080000000  0.4343980000000 1.0
C      1  0.4705190000000  0.5963190000000  0.5624260000000 1.0
C      1  0.5307570000000  0.5969390000000  0.4419150000000 1.0
C      1  0.5942500000000  0.5610130000000  0.4703110000000 1.0
C      1  0.5961990000000  0.4391370000000  0.5251870000000 1.0
C      1  0.4023480000000  0.4398150000000  0.4704030000000 1.0
C      1  0.4374600000000  0.5319570000000  0.5965210000000 1.0
C      1  0.4391550000000  0.4708040000000  0.4037030000000 1.0
C      1  0.5578170000000  0.4738060000000  0.5953750000000 1.0
C      1  0.5276320000000  0.5899060000000  0.5616310000000 1.0
C      1  0.4085480000000  0.4416690000000  0.5281780000000 1.0
C      1  0.5585120000000  0.4727520000000  0.4028620000000 1.0
C      1  0.4746220000000  0.5945980000000  0.4424230000000 1.0
C      1  0.4723350000000  0.4082930000000  0.5561870000000 1.0
C      1  0.5284840000000  0.4054400000000  0.4337880000000 1.0
C      1  0.5968010000000  0.4369610000000  0.4662150000000 1.0
C      1  0.5976650000000  0.5617010000000  0.5286770000000 1.0
C      1  0.4091240000000  0.5584330000000  0.4722830000000 1.0
C      1  0.4373160000000  0.4738390000000  0.5959190000000 1.0
C      1  0.4371590000000  0.5303890000000  0.4059760000000 1.0
C      1  0.5571130000000  0.5295580000000  0.5943490000000 1.0
C      1  0.4022050000000  0.5342870000000  0.4865540000000 1.0
C      1  0.5311210000000  0.4860040000000  0.4030330000000 1.0
C      1  0.4870320000000  0.4029650000000  0.5318450000000 1.0
C      1  0.6058240000000  0.5365950000000  0.5146020000000 1.0
C      1  0.6071160000000  0.4619530000000  0.4805740000000 1.0
C      1  0.3977810000000  0.4653610000000  0.5145880000000 1.0
C      1  0.4614990000000  0.4871960000000  0.6061640000000 1.0
C      1  0.4621990000000  0.5168840000000  0.3960340000000 1.0
C      1  0.5330110000000  0.5161270000000  0.6034170000000 1.0
C      1  0.5138980000000  0.3982980000000  0.4585810000000 1.0
C      1  0.5146710000000  0.5922910000000  0.5349280000000 1.0
C      1  0.4877950000000  0.5925600000000  0.4694610000000 1.0
C      1  0.3956280000000  0.4645520000000  0.4848190000000 1.0
C      1  0.5336450000000  0.5153260000000  0.3928330000000 1.0
C      1  0.4860370000000  0.6035910000000  0.5373530000000 1.0
C      1  0.6043810000000  0.4646810000000  0.5121740000000 1.0
C      1  0.6026740000000  0.5362730000000  0.4843550000000 1.0
C      1  0.3984390000000  0.5368380000000  0.5153240000000 1.0
C      1  0.4615090000000  0.5174480000000  0.6064000000000 1.0
C      1  0.4624550000000  0.4859960000000  0.3943550000000 1.0
C      1  0.5335060000000  0.4867650000000  0.6058480000000 1.0
C      1  0.5164170000000  0.6043050000000  0.4674660000000 1.0
C      1  0.5152360000000  0.3960900000000  0.5345830000000 1.0
C      1  0.4842440000000  0.4007700000000  0.4588210000000 1.0
C      1  0.5808840000000  0.4717430000000  0.4437150000000 1.0
C      1  0.4689220000000  0.4426150000000  0.5925020000000 1.0
C      1  0.4416080000000  0.5957320000000  0.4719030000000 1.0
C      1  0.4063310000000  0.4737230000000  0.5594180000000 1.0
C      1  0.4042630000000  0.5274660000000  0.4406120000000 1.0
C      1  0.5904650000000  0.5294160000000  0.5582700000000 1.0
C      1  0.5297210000000  0.4394320000000  0.3978290000000 1.0
C      1  0.5256720000000  0.5605990000000  0.5987340000000 1.0
C      1  0.4739360000000  0.5549350000000  0.4175550000000 1.0
C      1  0.5614800000000  0.5940000000000  0.5312560000000 1.0
C      1  0.5581510000000  0.4072340000000  0.4676790000000 1.0
C      1  0.4414240000000  0.4051630000000  0.5237620000000 1.0
C      1  0.5901330000000  0.5290210000000  0.4396890000000 1.0
C      1  0.4685850000000  0.5637560000000  0.5988140000000 1.0
C      1  0.4404390000000  0.4111360000000  0.4676550000000 1.0
C      1  0.4051280000000  0.5309960000000  0.5608790000000 1.0
C      1  0.4031290000000  0.4704080000000  0.4383060000000 1.0
C      1  0.5905240000000  0.4718170000000  0.5576800000000 1.0
C      1  0.5297220000000  0.5608090000000  0.4067300000000 1.0
C      1  0.5259070000000  0.4417120000000  0.5959820000000 1.0
C      1  0.4705420000000  0.4385020000000  0.3974020000000 1.0
C      1  0.5588980000000  0.4088910000000  0.5237870000000 1.0
C      1  0.5621380000000  0.5968510000000  0.4733610000000 1.0
C      1  0.4404330000000  0.5945230000000  0.5297680000000 1.0
C      1  0.4349720000000  0.4879970000000  0.5104280000000 1.0
C      1  0.4701890000000  0.5063570000000  0.4325580000000 1.0
C      1  0.5219420000000  0.4407910000000  0.4664820000000 1.0
C      1  0.5503770000000  0.4684470000000  0.4888730000000 1.0
C      1  0.5707110000000  0.5140830000000  0.5050480000000 1.0
C      1  0.4585580000000  0.5193200000000  0.4790200000000 1.0
C      1  0.5213730000000  0.5235850000000  0.5515970000000 1.0
C      1  0.5168270000000  0.4837750000000  0.4324310000000 1.0
C      1  0.4828280000000  0.4933380000000  0.5683220000000 1.0
C      1  0.4895870000000  0.4458420000000  0.5411600000000 1.0
C      1  0.4888650000000  0.5619070000000  0.4794730000000 1.0
C      1  0.5102670000000  0.5623750000000  0.5277370000000 1.0
C      1  0.4386180000000  0.5211070000000  0.5077250000000 1.0
C      1  0.4868420000000  0.4792280000000  0.4302890000000 1.0
C      1  0.5147880000000  0.5504110000000  0.4705670000000 1.0
C      1  0.5536100000000  0.5220250000000  0.4821950000000 1.0
C      1  0.5698020000000  0.4822100000000  0.5083180000000 1.0
C      1  0.4524560000000  0.4715340000000  0.4921650000000 1.0
C      1  0.5148760000000  0.4980480000000  0.5684170000000 1.0
C      1  0.5199060000000  0.5065810000000  0.4527870000000 1.0
C      1  0.4619490000000  0.5183390000000  0.5623870000000 1.0
C      1  0.4858370000000  0.5584750000000  0.5095790000000 1.0
C      1  0.4896540000000  0.4418710000000  0.4726300000000 1.0
C      1  0.5123480000000  0.4374830000000  0.5206360000000 1.0
C      1  0.3971030000000  0.5140230000000  0.4655820000000 1.0
C      1  0.5148850000000  0.4644920000000  0.3884080000000 1.0
C      1  0.4670640000000  0.3987150000000  0.5099950000000 1.0
C      1  0.6021990000000  0.5154030000000  0.5356010000000 1.0
C      1  0.6011140000000  0.4844740000000  0.4622590000000 1.0
C      1  0.3982110000000  0.4868580000000  0.5349340000000 1.0
C      1  0.4822400000000  0.4664230000000  0.6035040000000 1.0
C      1  0.4851160000000  0.5382700000000  0.3942810000000 1.0
C      1  0.5121580000000  0.5363390000000  0.6080010000000 1.0
C      1  0.5339650000000  0.3972090000000  0.4809140000000 1.0
C      1  0.5368450000000  0.6033200000000  0.5169920000000 1.0
C      1  0.4662710000000  0.6044470000000  0.4875520000000 1.0
C      1  0.3964350000000  0.4845160000000  0.4635120000000 1.0
C      1  0.5146000000000  0.5367050000000  0.3991440000000 1.0
C      1  0.4660330000000  0.5975860000000  0.5165400000000 1.0
C      1  0.6041350000000  0.4857550000000  0.5356310000000 1.0
C      1  0.6011170000000  0.5149530000000  0.4635150000000 1.0
C      1  0.3969550000000  0.5166790000000  0.5363460000000 1.0
C      1  0.4824550000000  0.5382710000000  0.6059070000000 1.0
C      1  0.4845580000000  0.4646250000000  0.3946440000000 1.0
C      1  0.5120090000000  0.4655660000000  0.6073430000000 1.0
C      1  0.5371820000000  0.5998810000000  0.4877050000000 1.0
C      1  0.5338050000000  0.4001390000000  0.5113210000000 1.0
C      1  0.4660980000000  0.4062340000000  0.4809880000000 1.0
C      1  0.4688580000000  0.5357850000000  0.5219960000000 1.0
C      1  0.5485620000000  0.5058510000000  0.4583780000000 1.0
C      1  0.5328160000000  0.4665650000000  0.5599930000000 1.0
C      1  0.5330740000000  0.5397100000000  0.4899500000000 1.0
C      1  0.5391820000000  0.4481730000000  0.5330100000000 1.0
C      1  0.4629080000000  0.4450230000000  0.4999650000000 1.0
C      1  0.4383940000000  0.5093740000000  0.5431300000000 1.0
C      1  0.4533510000000  0.4745580000000  0.4638760000000 1.0
C      1  0.5520780000000  0.4928810000000  0.5323850000000 1.0
C      1  0.4765280000000  0.4614210000000  0.4524280000000 1.0
C      1  0.4736030000000  0.5419520000000  0.5505170000000 1.0
C      1  0.5104550000000  0.5339840000000  0.4466950000000 1.0
C      1  0.4594640000000  0.4444200000000  0.5313280000000 1.0
C      1  0.5547460000000  0.4764370000000  0.4593890000000 1.0
C      1  0.5031950000000  0.5487260000000  0.5545140000000 1.0
C      1  0.5408700000000  0.4379110000000  0.4947440000000 1.0
C      1  0.5354510000000  0.5484410000000  0.5171530000000 1.0
C      1  0.4681560000000  0.5447180000000  0.4659350000000 1.0
C      1  0.4449780000000  0.4761850000000  0.5380570000000 1.0
C      1  0.4502600000000  0.5021830000000  0.4549970000000 1.0
C      1  0.5545080000000  0.5278700000000  0.5330550000000 1.0
C      1  0.4812350000000  0.5352910000000  0.4405420000000 1.0
C      1  0.5016730000000  0.4614190000000  0.5649460000000 1.0
C      1  0.5321230000000  0.4615280000000  0.4470080000000 1.0
C      1  0.4180220000000  0.5167240000000  0.5815930000000 1.0
C      1  0.5163340000000  0.5792240000000  0.4241700000000 1.0
C      1  0.5791020000000  0.4222630000000  0.5094670000000 1.0
C      1  0.5732160000000  0.5136460000000  0.4224170000000 1.0
C      1  0.5752450000000  0.4871050000000  0.5770940000000 1.0
C      1  0.4185900000000  0.4848540000000  0.4184860000000 1.0
C      1  0.4849030000000  0.5835420000000  0.5846390000000 1.0
C      1  0.4852610000000  0.4192040000000  0.4127030000000 1.0
C      1  0.5130570000000  0.4215520000000  0.5796780000000 1.0
C      1  0.4193900000000  0.4213760000000  0.4838410000000 1.0
C      1  0.4215890000000  0.5801340000000  0.5143130000000 1.0
C      1  0.5820950000000  0.5815120000000  0.4864560000000 1.0
C      1  0.4210650000000  0.4888520000000  0.5783040000000 1.0
C      1  0.5140400000000  0.4215680000000  0.4146030000000 1.0
C      1  0.5808910000000  0.5799580000000  0.5148720000000 1.0
C      1  0.5786150000000  0.4861410000000  0.4183440000000 1.0
C      1  0.5756280000000  0.5153620000000  0.5778310000000 1.0
C      1  0.4215500000000  0.5132190000000  0.4228770000000 1.0
C      1  0.4844190000000  0.4227980000000  0.5778800000000 1.0
C      1  0.4879400000000  0.5807010000000  0.4214740000000 1.0
C      1  0.5103350000000  0.5711450000000  0.5761610000000 1.0
C      1  0.4242800000000  0.5780200000000  0.4862020000000 1.0
C      1  0.4250260000000  0.4248770000000  0.5113930000000 1.0
C      1  0.5790220000000  0.4207200000000  0.4815620000000 1.0
C      1  0.4135110000000  0.5594210000000  0.5577130000000 1.0
C      1  0.5574300000000  0.5553820000000  0.4119270000000 1.0
C      1  0.5538210000000  0.4248450000000  0.5477850000000 1.0
C      1  0.5812880000000  0.5580160000000  0.4427120000000 1.0
C      1  0.5853250000000  0.4433070000000  0.5520930000000 1.0
C      1  0.4093860000000  0.4422220000000  0.4422780000000 1.0
C      1  0.4408400000000  0.5605600000000  0.5878940000000 1.0
C      1  0.4435890000000  0.4423890000000  0.4073040000000 1.0
C      1  0.5521100000000  0.4475520000000  0.5872700000000 1.0
C      1  0.4410060000000  0.4196220000000  0.4384510000000 1.0
C      1  0.4419470000000  0.5864670000000  0.5585650000000 1.0
C      1  0.5588000000000  0.5896610000000  0.4458570000000 1.0
C      1  0.4169850000000  0.4472540000000  0.5559430000000 1.0
C      1  0.5572890000000  0.4443940000000  0.4085610000000 1.0
C      1  0.5565030000000  0.5813290000000  0.5589510000000 1.0
C      1  0.5825730000000  0.4406870000000  0.4381970000000 1.0
C      1  0.5871820000000  0.5577080000000  0.5553070000000 1.0
C      1  0.4136380000000  0.5544280000000  0.4443100000000 1.0
C      1  0.4410860000000  0.4472220000000  0.5850060000000 1.0
C      1  0.4421860000000  0.5578690000000  0.4192270000000 1.0
C      1  0.5531530000000  0.5575290000000  0.5896460000000 1.0
C      1  0.4467520000000  0.5877570000000  0.4439440000000 1.0
C      1  0.4454970000000  0.4142260000000  0.5504070000000 1.0
C      1  0.5560960000000  0.4131640000000  0.4395530000000 1.0
C      1  0.4755400000000  0.4836770000000  0.5390330000000 1.0
C      1  0.5073960000000  0.4976140000000  0.4786670000000 1.0
C      1  0.4819540000000  0.5045790000000  0.4910630000000 1.0
C      1  0.5214140000000  0.4785030000000  0.4964190000000 1.0
C      1  0.4837430000000  0.5085540000000  0.5200500000000 1.0
C      1  0.5251510000000  0.4887510000000  0.5229550000000 1.0
C      1  0.5118520000000  0.5122850000000  0.5265080000000 1.0
C      1  0.4999690000000  0.4566640000000  0.5003970000000 1.0
END
