TITL C-3578197-9521-735 -2.76945620573233e-06 125000 -848.927484493465 0 0 140 (C1) n - 1
REM
REM in /home/bkarasulu/work/CARBON/AIRSS/Generating-Clusters/EDIP-Nigel-Params/with-SteepDescent/Higher-Symm/SD-CG/HFTN-CG
REM
REM
REM
REM
REM
REM ./C.cell (12c818d87b63d06a65506943cc24bca4)
REM
REM compiler GCC version 9.2.1 20190827 (Red Hat 9.2.1-1)
REM options -cpp -mtune=generic -march=x86-64 -g -O0 -fpre-include=/usr/include/finclude/math-vector-fortran.h
REM seed 309721150 -912125032 1341993369 193874358 1780104827 2135237625 1473831422 443540070 1618615452 700770603 427648589 673467411 -1658521423 1260847212 -1328342051 -1268915790 -1227810555 121787737 -1465738713 -614568382 -462805 293001243 2114836956 -1197931421 -1313702562 -107136501 199429330 -551363369 1268384412 913532792 1295422686 -416786104 1323191652
REM
CELL 1.54180   50.00000   50.00000   50.00000   90.00000   90.00000   90.00000
LATT -1
SFAC C  
C      1  0.4208650000000  0.5274490000000  0.5469940000000 1.0
C      1  0.4328650000000  0.5462800000000  0.5247110000000 1.0
C      1  0.4195510000000  0.5470140000000  0.4984740000000 1.0
C      1  0.4086940000000  0.5352110000000  0.4456320000000 1.0
C      1  0.4275640000000  0.5138210000000  0.4379560000000 1.0
C      1  0.4176120000000  0.4845850000000  0.4430040000000 1.0
C      1  0.4363310000000  0.4692560000000  0.4617650000000 1.0
C      1  0.4218910000000  0.4551030000000  0.5024370000000 1.0
C      1  0.4335900000000  0.4522020000000  0.5296060000000 1.0
C      1  0.4213470000000  0.4713610000000  0.5519770000000 1.0
C      1  0.4347980000000  0.4993430000000  0.5561810000000 1.0
C      1  0.5248310000000  0.5817100000000  0.4970520000000 1.0
C      1  0.5251080000000  0.5686870000000  0.4470980000000 1.0
C      1  0.5331210000000  0.5311600000000  0.4223630000000 1.0
C      1  0.5268790000000  0.4877220000000  0.4146690000000 1.0
C      1  0.5249420000000  0.4465460000000  0.4376750000000 1.0
C      1  0.5209660000000  0.4235950000000  0.4771260000000 1.0
C      1  0.5210730000000  0.4237380000000  0.5240830000000 1.0
C      1  0.5231550000000  0.4485270000000  0.5629130000000 1.0
C      1  0.5234170000000  0.4912360000000  0.5828710000000 1.0
C      1  0.5281290000000  0.5376910000000  0.5742350000000 1.0
C      1  0.5316820000000  0.5715940000000  0.5419190000000 1.0
C      1  0.3888570000000  0.4820760000000  0.4540230000000 1.0
C      1  0.3841760000000  0.4656840000000  0.4760660000000 1.0
C      1  0.3927630000000  0.4579330000000  0.5013010000000 1.0
C      1  0.3811090000000  0.4652840000000  0.5250760000000 1.0
C      1  0.3917560000000  0.4746870000000  0.5487980000000 1.0
C      1  0.3828400000000  0.4998580000000  0.5563130000000 1.0
C      1  0.3916360000000  0.5223030000000  0.5426320000000 1.0
C      1  0.3833850000000  0.5229810000000  0.5161140000000 1.0
C      1  0.3973400000000  0.5303720000000  0.4934820000000 1.0
C      1  0.3885320000000  0.5280710000000  0.4658470000000 1.0
C      1  0.3745230000000  0.5057190000000  0.4568640000000 1.0
C      1  0.5783890000000  0.5686670000000  0.5184840000000 1.0
C      1  0.5825300000000  0.5532610000000  0.4614070000000 1.0
C      1  0.5797460000000  0.5415040000000  0.4351600000000 1.0
C      1  0.5763230000000  0.5118140000000  0.4351180000000 1.0
C      1  0.5696860000000  0.4634020000000  0.4389400000000 1.0
C      1  0.5724600000000  0.4357990000000  0.4721340000000 1.0
C      1  0.5632260000000  0.4288480000000  0.5142350000000 1.0
C      1  0.5731120000000  0.4488960000000  0.5511990000000 1.0
C      1  0.5663280000000  0.4855650000000  0.5740370000000 1.0
C      1  0.5702280000000  0.5243680000000  0.5712880000000 1.0
C      1  0.5799700000000  0.5582860000000  0.5465360000000 1.0
C      1  0.5358120000000  0.4648010000000  0.5837370000000 1.0
C      1  0.5382690000000  0.5152070000000  0.5900940000000 1.0
C      1  0.5466250000000  0.5595120000000  0.5639090000000 1.0
C      1  0.5439390000000  0.5867530000000  0.5199460000000 1.0
C      1  0.5353040000000  0.5839970000000  0.4698370000000 1.0
C      1  0.5458600000000  0.5564870000000  0.4287380000000 1.0
C      1  0.5471210000000  0.5085610000000  0.4110860000000 1.0
C      1  0.5386020000000  0.4611270000000  0.4167620000000 1.0
C      1  0.5389560000000  0.4271600000000  0.4546210000000 1.0
C      1  0.5319650000000  0.4106440000000  0.5006310000000 1.0
C      1  0.5397910000000  0.4287090000000  0.5475070000000 1.0
C      1  0.5434780000000  0.5326930000000  0.5185340000000 1.0
C      1  0.5605850000000  0.5502890000000  0.5028990000000 1.0
C      1  0.5553460000000  0.5521520000000  0.4737780000000 1.0
C      1  0.5412580000000  0.5237430000000  0.4692610000000 1.0
C      1  0.5590330000000  0.5043110000000  0.4580300000000 1.0
C      1  0.5507770000000  0.4757040000000  0.4592280000000 1.0
C      1  0.5585970000000  0.4593180000000  0.4820940000000 1.0
C      1  0.5486740000000  0.4558100000000  0.5103270000000 1.0
C      1  0.5604540000000  0.4688840000000  0.5335360000000 1.0
C      1  0.5500700000000  0.4928610000000  0.5473630000000 1.0
C      1  0.5598160000000  0.5196840000000  0.5399190000000 1.0
C      1  0.4302460000000  0.4396780000000  0.4596640000000 1.0
C      1  0.4291060000000  0.4297550000000  0.4873570000000 1.0
C      1  0.4295800000000  0.4244690000000  0.5388530000000 1.0
C      1  0.4280190000000  0.4583810000000  0.5771980000000 1.0
C      1  0.4316410000000  0.5021120000000  0.5855300000000 1.0
C      1  0.4270570000000  0.5449690000000  0.5698110000000 1.0
C      1  0.4288310000000  0.5736060000000  0.5355980000000 1.0
C      1  0.4281650000000  0.5660070000000  0.4785240000000 1.0
C      1  0.4246900000000  0.5591150000000  0.4507460000000 1.0
C      1  0.4261680000000  0.5166310000000  0.4089120000000 1.0
C      1  0.4224270000000  0.4711700000000  0.4176540000000 1.0
C      1  0.5090270000000  0.5265620000000  0.5504360000000 1.0
C      1  0.5197610000000  0.5472880000000  0.5289640000000 1.0
C      1  0.5084100000000  0.5570430000000  0.5034340000000 1.0
C      1  0.5047970000000  0.5470960000000  0.4534080000000 1.0
C      1  0.5195580000000  0.5227400000000  0.4473120000000 1.0
C      1  0.5086790000000  0.4941180000000  0.4401890000000 1.0
C      1  0.5203750000000  0.4698180000000  0.4569860000000 1.0
C      1  0.5081630000000  0.4509990000000  0.4839880000000 1.0
C      1  0.5185910000000  0.4527810000000  0.5141020000000 1.0
C      1  0.5086920000000  0.4670310000000  0.5425130000000 1.0
C      1  0.5202800000000  0.4945290000000  0.5526470000000 1.0
C      1  0.4564400000000  0.4173000000000  0.5447440000000 1.0
C      1  0.4561630000000  0.4557620000000  0.5796040000000 1.0
C      1  0.4583970000000  0.5037380000000  0.5936750000000 1.0
C      1  0.4553060000000  0.5494550000000  0.5722720000000 1.0
C      1  0.4552530000000  0.5831880000000  0.5345660000000 1.0
C      1  0.4505750000000  0.5847640000000  0.4814230000000 1.0
C      1  0.4496050000000  0.5638680000000  0.4344490000000 1.0
C      1  0.4532320000000  0.5198740000000  0.4025220000000 1.0
C      1  0.4508630000000  0.4698720000000  0.4150110000000 1.0
C      1  0.4536630000000  0.4278270000000  0.4458030000000 1.0
C      1  0.4550260000000  0.4147320000000  0.4941420000000 1.0
C      1  0.4704950000000  0.4238180000000  0.4705970000000 1.0
C      1  0.4696030000000  0.4245870000000  0.5191230000000 1.0
C      1  0.4662730000000  0.4331330000000  0.5660840000000 1.0
C      1  0.4721220000000  0.4797920000000  0.5849740000000 1.0
C      1  0.4684860000000  0.5292960000000  0.5872070000000 1.0
C      1  0.4699030000000  0.5656840000000  0.5523390000000 1.0
C      1  0.4622850000000  0.5868600000000  0.5075020000000 1.0
C      1  0.4662250000000  0.5748110000000  0.4572450000000 1.0
C      1  0.4634400000000  0.5420410000000  0.4190560000000 1.0
C      1  0.4660040000000  0.4934430000000  0.4057260000000 1.0
C      1  0.4652060000000  0.4467900000000  0.4261800000000 1.0
C      1  0.6023300000000  0.5403580000000  0.4797450000000 1.0
C      1  0.6129860000000  0.5127740000000  0.4715820000000 1.0
C      1  0.6014400000000  0.4968070000000  0.4482210000000 1.0
C      1  0.5959220000000  0.4670810000000  0.4528720000000 1.0
C      1  0.5993960000000  0.4426570000000  0.4820440000000 1.0
C      1  0.5931680000000  0.4357170000000  0.5113610000000 1.0
C      1  0.5997430000000  0.4492010000000  0.5375400000000 1.0
C      1  0.5949610000000  0.4815050000000  0.5585610000000 1.0
C      1  0.5983060000000  0.5129640000000  0.5608030000000 1.0
C      1  0.6002640000000  0.5367500000000  0.5418100000000 1.0
C      1  0.6041490000000  0.5524490000000  0.5078230000000 1.0
C      1  0.4770770000000  0.5473300000000  0.4655040000000 1.0
C      1  0.4602040000000  0.5204100000000  0.4501480000000 1.0
C      1  0.4767480000000  0.4944050000000  0.4416860000000 1.0
C      1  0.4663230000000  0.4689910000000  0.4569410000000 1.0
C      1  0.4775160000000  0.4513290000000  0.4833560000000 1.0
C      1  0.4643070000000  0.4544250000000  0.5201310000000 1.0
C      1  0.4784530000000  0.4683630000000  0.5431640000000 1.0
C      1  0.4656480000000  0.4964680000000  0.5511330000000 1.0
C      1  0.4787430000000  0.5234100000000  0.5448610000000 1.0
C      1  0.4648470000000  0.5416250000000  0.5229990000000 1.0
C      1  0.4812190000000  0.5483780000000  0.4967620000000 1.0
C      1  0.6174850000000  0.4968810000000  0.4947280000000 1.0
C      1  0.4352420000000  0.4790190000000  0.4892150000000 1.0
C      1  0.5139760000000  0.4961100000000  0.5005660000000 1.0
C      1  0.4605620000000  0.4897670000000  0.4957320000000 1.0
C      1  0.4875480000000  0.4923820000000  0.4971550000000 1.0
C      1  0.5927650000000  0.4952610000000  0.5064960000000 1.0
C      1  0.5386690000000  0.5108570000000  0.4974320000000 1.0
C      1  0.5658440000000  0.4983170000000  0.5012640000000 1.0
END
