TITL C-3578203-1966-723 -8.21319894734797e-06 125000 -1193.2302910815 0 0 189 (C1) n - 1
REM
REM in /home/bkarasulu/work/CARBON/AIRSS/Generating-Clusters/EDIP-Nigel-Params/with-SteepDescent/Higher-Symm/SD-CG/HFTN-CG
REM
REM
REM
REM
REM
REM ./C.cell (12c818d87b63d06a65506943cc24bca4)
REM
REM compiler GCC version 9.2.1 20190827 (Red Hat 9.2.1-1)
REM options -cpp -mtune=generic -march=x86-64 -g -O0 -fpre-include=/usr/include/finclude/math-vector-fortran.h
REM seed 366629928 -38884565 1132338369 5167170 -2088396521 -875384756 29707500 -733736974 -1243728809 1819674632 -1962464309 209056559 -1521640954 2000732231 -306019998 1736499682 -792861390 544541520 -2089152098 1468664728 2097290954 -104808704 765761525 1631551455 -2077673053 674377293 -319677778 -150657512 -1977017870 874094501 473218484 1504459380 990815479
REM
CELL 1.54180   50.00000   50.00000   50.00000   90.00000   90.00000   90.00000
LATT -1
SFAC C  
C      1  0.4264980000000  0.4412010000000  0.4575430000000 1.0
C      1  0.4262220000000  0.5658170000000  0.4701000000000 1.0
C      1  0.4273440000000  0.4931730000000  0.5706230000000 1.0
C      1  0.5462750000000  0.6118410000000  0.5057240000000 1.0
C      1  0.5458940000000  0.4396800000000  0.5929180000000 1.0
C      1  0.5457380000000  0.4497800000000  0.4016120000000 1.0
C      1  0.5521050000000  0.5586560000000  0.5236980000000 1.0
C      1  0.5488900000000  0.4519880000000  0.5373220000000 1.0
C      1  0.5490680000000  0.4911310000000  0.4394400000000 1.0
C      1  0.4402990000000  0.4177320000000  0.4989440000000 1.0
C      1  0.4397230000000  0.5411880000000  0.4290560000000 1.0
C      1  0.4405430000000  0.5404610000000  0.5708910000000 1.0
C      1  0.4305700000000  0.4187890000000  0.5564430000000 1.0
C      1  0.4302430000000  0.4913770000000  0.4005760000000 1.0
C      1  0.4310920000000  0.5898360000000  0.5420730000000 1.0
C      1  0.4819070000000  0.4672610000000  0.3925490000000 1.0
C      1  0.4823210000000  0.6091610000000  0.5248480000000 1.0
C      1  0.4819740000000  0.4236740000000  0.5819100000000 1.0
C      1  0.5717780000000  0.5611110000000  0.5456890000000 1.0
C      1  0.5684910000000  0.4314370000000  0.5287800000000 1.0
C      1  0.5686350000000  0.5092770000000  0.4266510000000 1.0
C      1  0.5655120000000  0.4398130000000  0.4473140000000 1.0
C      1  0.5644990000000  0.5755320000000  0.4757300000000 1.0
C      1  0.5668470000000  0.4841820000000  0.5796900000000 1.0
C      1  0.5222540000000  0.4413680000000  0.5407780000000 1.0
C      1  0.5223830000000  0.4936130000000  0.4288600000000 1.0
C      1  0.5248870000000  0.5677240000000  0.5282760000000 1.0
C      1  0.5250560000000  0.5208630000000  0.5290630000000 1.0
C      1  0.5268310000000  0.4777580000000  0.5016560000000 1.0
C      1  0.5258740000000  0.5099720000000  0.4789740000000 1.0
C      1  0.4712380000000  0.5606960000000  0.5363050000000 1.0
C      1  0.4723910000000  0.4371620000000  0.5336920000000 1.0
C      1  0.4717430000000  0.5016420000000  0.4283420000000 1.0
C      1  0.4840040000000  0.5494030000000  0.4124700000000 1.0
C      1  0.4857450000000  0.5502940000000  0.5846130000000 1.0
C      1  0.4840500000000  0.3989850000000  0.5009720000000 1.0
C      1  0.5334440000000  0.4588830000000  0.4764350000000 1.0
C      1  0.5353950000000  0.5397410000000  0.4845930000000 1.0
C      1  0.5368950000000  0.4968940000000  0.5453400000000 1.0
C      1  0.4557440000000  0.5630840000000  0.5834800000000 1.0
C      1  0.4544650000000  0.3953260000000  0.5127250000000 1.0
C      1  0.4542890000000  0.5410340000000  0.4029760000000 1.0
C      1  0.5798110000000  0.4042230000000  0.4926140000000 1.0
C      1  0.5792570000000  0.5547890000000  0.4240080000000 1.0
C      1  0.5823330000000  0.5391440000000  0.5872100000000 1.0
C      1  0.5097440000000  0.5701440000000  0.5836170000000 1.0
C      1  0.5072190000000  0.3879630000000  0.5193060000000 1.0
C      1  0.5074530000000  0.5393770000000  0.3940870000000 1.0
C      1  0.4654800000000  0.4711740000000  0.5510740000000 1.0
C      1  0.4645860000000  0.4693820000000  0.4492810000000 1.0
C      1  0.4643030000000  0.5576090000000  0.4982520000000 1.0
C      1  0.4396830000000  0.5905730000000  0.5129840000000 1.0
C      1  0.4394220000000  0.4432640000000  0.5721240000000 1.0
C      1  0.4389930000000  0.4656670000000  0.4141720000000 1.0
C      1  0.4436850000000  0.4390320000000  0.5189670000000 1.0
C      1  0.4428990000000  0.5130850000000  0.4373050000000 1.0
C      1  0.4429090000000  0.5469250000000  0.5422220000000 1.0
C      1  0.5568510000000  0.4046450000000  0.5342940000000 1.0
C      1  0.5569720000000  0.5183100000000  0.4008490000000 1.0
C      1  0.5597280000000  0.5790960000000  0.5660050000000 1.0
C      1  0.4925510000000  0.5473650000000  0.5010720000000 1.0
C      1  0.4936390000000  0.4741220000000  0.5416660000000 1.0
C      1  0.4930490000000  0.4764520000000  0.4560410000000 1.0
C      1  0.4883390000000  0.5422110000000  0.5551530000000 1.0
C      1  0.4890110000000  0.4286720000000  0.5075500000000 1.0
C      1  0.4886000000000  0.5283300000000  0.4343300000000 1.0
C      1  0.5497700000000  0.4049890000000  0.5626230000000 1.0
C      1  0.5498620000000  0.4936030000000  0.3868580000000 1.0
C      1  0.5508250000000  0.6028100000000  0.5510370000000 1.0
C      1  0.4088330000000  0.4430540000000  0.4808590000000 1.0
C      1  0.4081530000000  0.5450870000000  0.4598250000000 1.0
C      1  0.4087380000000  0.5124020000000  0.5584010000000 1.0
C      1  0.5184540000000  0.5227980000000  0.4338310000000 1.0
C      1  0.5179690000000  0.5444610000000  0.5481800000000 1.0
C      1  0.5186960000000  0.4305170000000  0.5130500000000 1.0
C      1  0.4736730000000  0.4710050000000  0.4947700000000 1.0
C      1  0.4722380000000  0.5175970000000  0.4763620000000 1.0
C      1  0.4723710000000  0.5094370000000  0.5259090000000 1.0
C      1  0.5387890000000  0.5604090000000  0.5774580000000 1.0
C      1  0.5338380000000  0.4033280000000  0.5139910000000 1.0
C      1  0.5339830000000  0.5364350000000  0.4104390000000 1.0
C      1  0.4123850000000  0.5359550000000  0.5750930000000 1.0
C      1  0.4122030000000  0.4169980000000  0.4931370000000 1.0
C      1  0.4116800000000  0.5468700000000  0.4311320000000 1.0
C      1  0.4450350000000  0.4857870000000  0.5307720000000 1.0
C      1  0.4431850000000  0.4789570000000  0.4727600000000 1.0
C      1  0.4424360000000  0.5333190000000  0.4950430000000 1.0
C      1  0.4019100000000  0.4932990000000  0.4712520000000 1.0
C      1  0.4013070000000  0.5282690000000  0.5081110000000 1.0
C      1  0.4030970000000  0.4791410000000  0.5195100000000 1.0
C      1  0.5870340000000  0.4597210000000  0.4435760000000 1.0
C      1  0.5874810000000  0.5703720000000  0.4936340000000 1.0
C      1  0.5877150000000  0.4707740000000  0.5636320000000 1.0
C      1  0.5522380000000  0.3954660000000  0.4909590000000 1.0
C      1  0.5518040000000  0.5605490000000  0.4166630000000 1.0
C      1  0.5551270000000  0.5434870000000  0.5960780000000 1.0
C      1  0.4042890000000  0.5571500000000  0.5147800000000 1.0
C      1  0.4054470000000  0.4591570000000  0.5411490000000 1.0
C      1  0.4044560000000  0.4842790000000  0.4430530000000 1.0
C      1  0.4019630000000  0.5070650000000  0.5289850000000 1.0
C      1  0.4036550000000  0.4714680000000  0.4908170000000 1.0
C      1  0.4030010000000  0.5221160000000  0.4792370000000 1.0
C      1  0.5873320000000  0.5844070000000  0.5200690000000 1.0
C      1  0.5851140000000  0.4411580000000  0.5603300000000 1.0
C      1  0.5854990000000  0.4767430000000  0.4191280000000 1.0
C      1  0.4774930000000  0.4697700000000  0.6012010000000 1.0
C      1  0.4766560000000  0.4269760000000  0.4217860000000 1.0
C      1  0.4761900000000  0.6040130000000  0.4755070000000 1.0
C      1  0.4517760000000  0.5112810000000  0.3898130000000 1.0
C      1  0.4528610000000  0.5894020000000  0.5646460000000 1.0
C      1  0.4519220000000  0.3992750000000  0.5449910000000 1.0
C      1  0.5794970000000  0.4812760000000  0.5145370000000 1.0
C      1  0.5797260000000  0.4980360000000  0.4769000000000 1.0
C      1  0.5801260000000  0.5222560000000  0.5102910000000 1.0
C      1  0.4903620000000  0.5768970000000  0.4321750000000 1.0
C      1  0.4916840000000  0.5212090000000  0.5998260000000 1.0
C      1  0.4898370000000  0.4011470000000  0.4667970000000 1.0
C      1  0.4690990000000  0.5865630000000  0.4521980000000 1.0
C      1  0.4705720000000  0.4986390000000  0.5979310000000 1.0
C      1  0.4693000000000  0.4149790000000  0.4483010000000 1.0
C      1  0.5025090000000  0.4215840000000  0.4133510000000 1.0
C      1  0.5021180000000  0.6138920000000  0.4745590000000 1.0
C      1  0.5031050000000  0.4655650000000  0.6106100000000 1.0
C      1  0.5162330000000  0.4116780000000  0.4587250000000 1.0
C      1  0.5160380000000  0.5763260000000  0.4471260000000 1.0
C      1  0.5181930000000  0.5091390000000  0.5944780000000 1.0
C      1  0.4793860000000  0.4450330000000  0.4843900000000 1.0
C      1  0.4783260000000  0.5398240000000  0.4597820000000 1.0
C      1  0.4786070000000  0.5144110000000  0.5531340000000 1.0
C      1  0.5500470000000  0.4927980000000  0.4681050000000 1.0
C      1  0.5501050000000  0.5327680000000  0.5112010000000 1.0
C      1  0.5493240000000  0.4776320000000  0.5237280000000 1.0
C      1  0.5961700000000  0.4731580000000  0.4694750000000 1.0
C      1  0.5968360000000  0.5412020000000  0.4926140000000 1.0
C      1  0.5966500000000  0.4867830000000  0.5391510000000 1.0
C      1  0.4433190000000  0.5085820000000  0.4679610000000 1.0
C      1  0.4426120000000  0.5224760000000  0.5229510000000 1.0
C      1  0.4442900000000  0.4676580000000  0.5072950000000 1.0
C      1  0.5739260000000  0.5351860000000  0.4456240000000 1.0
C      1  0.5764540000000  0.5310670000000  0.5591590000000 1.0
C      1  0.5754440000000  0.4333520000000  0.4974410000000 1.0
C      1  0.5115800000000  0.6133600000000  0.5211460000000 1.0
C      1  0.5112540000000  0.4260880000000  0.5861000000000 1.0
C      1  0.5112260000000  0.4624940000000  0.3927280000000 1.0
C      1  0.5915500000000  0.4595500000000  0.4956620000000 1.0
C      1  0.5922030000000  0.5250170000000  0.4677350000000 1.0
C      1  0.5930170000000  0.5164390000000  0.5380580000000 1.0
C      1  0.5422140000000  0.5198990000000  0.6041290000000 1.0
C      1  0.5409110000000  0.4001650000000  0.4656870000000 1.0
C      1  0.5402130000000  0.5793820000000  0.4336800000000 1.0
C      1  0.5457870000000  0.5974090000000  0.4807990000000 1.0
C      1  0.5470320000000  0.4685300000000  0.5948490000000 1.0
C      1  0.5464720000000  0.4336740000000  0.4256450000000 1.0
C      1  0.4225980000000  0.5724290000000  0.4980230000000 1.0
C      1  0.4231610000000  0.4656450000000  0.5632270000000 1.0
C      1  0.4225080000000  0.4620030000000  0.4378700000000 1.0
C      1  0.5664160000000  0.4251200000000  0.5779930000000 1.0
C      1  0.5663560000000  0.4700440000000  0.3966400000000 1.0
C      1  0.5672450000000  0.6064320000000  0.5256720000000 1.0
C      1  0.4776500000000  0.5895650000000  0.5478400000000 1.0
C      1  0.4769130000000  0.4131130000000  0.5534470000000 1.0
C      1  0.4767960000000  0.4970680000000  0.3976690000000 1.0
C      1  0.4171240000000  0.4328470000000  0.5338290000000 1.0
C      1  0.4162530000000  0.5037590000000  0.4239510000000 1.0
C      1  0.4166630000000  0.5635560000000  0.5411790000000 1.0
C      1  0.5161920000000  0.5631150000000  0.4972170000000 1.0
C      1  0.5178370000000  0.4757170000000  0.5583290000000 1.0
C      1  0.5177170000000  0.4614210000000  0.4495160000000 1.0
C      1  0.4648150000000  0.4517610000000  0.4099240000000 1.0
C      1  0.4654190000000  0.6008210000000  0.5029970000000 1.0
C      1  0.4651050000000  0.4466070000000  0.5866480000000 1.0
C      1  0.5219640000000  0.4899920000000  0.3979570000000 1.0
C      1  0.5231200000000  0.5951380000000  0.5418840000000 1.0
C      1  0.5219640000000  0.4165880000000  0.5597600000000 1.0
C      1  0.5515930000000  0.5533910000000  0.4600510000000 1.0
C      1  0.5543630000000  0.5090760000000  0.5689530000000 1.0
C      1  0.5536060000000  0.4356320000000  0.4744480000000 1.0
C      1  0.4583070000000  0.5004180000000  0.5716120000000 1.0
C      1  0.4577650000000  0.4370400000000  0.4635440000000 1.0
C      1  0.4571740000000  0.5624000000000  0.4633260000000 1.0
C      1  0.5019600000000  0.5107690000000  0.3871550000000 1.0
C      1  0.5031880000000  0.5910630000000  0.5641320000000 1.0
C      1  0.5018390000000  0.3967030000000  0.5474110000000 1.0
C      1  0.4980510000000  0.4759840000000  0.5130300000000 1.0
C      1  0.4968750000000  0.5005280000000  0.4719810000000 1.0
C      1  0.4979610000000  0.5201730000000  0.5115640000000 1.0
C      1  0.5185280000000  0.4310150000000  0.4361000000000 1.0
C      1  0.5179040000000  0.5890680000000  0.4740880000000 1.0
C      1  0.5195580000000  0.4796270000000  0.5907000000000 1.0
END
