TITL C-3577084-3642-783 4.94775914622844e-08 125000 -425.100007681402 0 0 71 (C1) n - 1
REM
REM in /home/bkarasulu/work/CARBON/AIRSS/Generating-Clusters/EDIP-Nigel-Params/with-SteepDescent/Higher-Symm/SD-CG/HFTN-CG
REM
REM
REM
REM
REM
REM ./C.cell (12c818d87b63d06a65506943cc24bca4)
REM
REM compiler GCC version 9.2.1 20190827 (Red Hat 9.2.1-1)
REM options -cpp -mtune=generic -march=x86-64 -g -O0 -fpre-include=/usr/include/finclude/math-vector-fortran.h
REM seed -777309783 -1406406970 986593783 -2097648935 -509315598 1706250492 857023474 -373586818 -942287832 199302504 148797671 -1376429506 1743668380 -1665100150 603314148 -1228375934 -116442014 -311673670 1178386519 226889844 119115079 -53555612 1872262637 -1945398455 -16066019 -594372674 1655480589 1108444404 221743694 1501784745 -1993665688 -78494177 -309778573
REM
CELL 1.54180   50.00000   50.00000   50.00000   90.00000   90.00000   90.00000
LATT -1
SFAC C  
C      1  0.4919220000000  0.4827340000000  0.4934330000000 1.0
C      1  0.5165860000000  0.5220590000000  0.5035050000000 1.0
C      1  0.4953190000000  0.4658510000000  0.4717050000000 1.0
C      1  0.4904040000000  0.5300280000000  0.5024180000000 1.0
C      1  0.4490910000000  0.5624070000000  0.5260360000000 1.0
C      1  0.5522110000000  0.4398880000000  0.5284660000000 1.0
C      1  0.5527530000000  0.5634530000000  0.5221910000000 1.0
C      1  0.4471300000000  0.4377860000000  0.5262330000000 1.0
C      1  0.5226280000000  0.5767850000000  0.4873360000000 1.0
C      1  0.4784760000000  0.4298310000000  0.4911210000000 1.0
C      1  0.4781790000000  0.5762130000000  0.4894440000000 1.0
C      1  0.5229590000000  0.4292150000000  0.4922050000000 1.0
C      1  0.4825480000000  0.5122560000000  0.5726180000000 1.0
C      1  0.5133430000000  0.4808270000000  0.5732130000000 1.0
C      1  0.5135190000000  0.5118090000000  0.5769100000000 1.0
C      1  0.4824590000000  0.4810600000000  0.5714620000000 1.0
C      1  0.4873940000000  0.4268950000000  0.5588230000000 1.0
C      1  0.5181270000000  0.5552040000000  0.5559370000000 1.0
C      1  0.5145610000000  0.4264820000000  0.5610440000000 1.0
C      1  0.4892880000000  0.5582110000000  0.5582950000000 1.0
C      1  0.5160320000000  0.4237360000000  0.4642470000000 1.0
C      1  0.4846890000000  0.5785150000000  0.4610350000000 1.0
C      1  0.4866120000000  0.4230190000000  0.4636890000000 1.0
C      1  0.5136320000000  0.5792370000000  0.4597220000000 1.0
C      1  0.4374460000000  0.5441780000000  0.4881110000000 1.0
C      1  0.5647230000000  0.4591390000000  0.4912000000000 1.0
C      1  0.5615910000000  0.5433140000000  0.4839570000000 1.0
C      1  0.4351750000000  0.4524080000000  0.4854790000000 1.0
C      1  0.5475510000000  0.4873540000000  0.5360880000000 1.0
C      1  0.4528730000000  0.5136860000000  0.5313130000000 1.0
C      1  0.4485360000000  0.4846180000000  0.5359110000000 1.0
C      1  0.5496740000000  0.5167010000000  0.5412360000000 1.0
C      1  0.4501130000000  0.4307360000000  0.4979610000000 1.0
C      1  0.5506930000000  0.5701360000000  0.4937090000000 1.0
C      1  0.5509240000000  0.4319840000000  0.4997780000000 1.0
C      1  0.4505150000000  0.5712810000000  0.4976950000000 1.0
C      1  0.4312360000000  0.4906050000000  0.4568000000000 1.0
C      1  0.5655490000000  0.5142760000000  0.4582400000000 1.0
C      1  0.5683530000000  0.4873370000000  0.4646770000000 1.0
C      1  0.4339630000000  0.5173780000000  0.4604720000000 1.0
C      1  0.4774560000000  0.5248980000000  0.5447950000000 1.0
C      1  0.5255770000000  0.4722690000000  0.5480190000000 1.0
C      1  0.5261080000000  0.5270540000000  0.5554040000000 1.0
C      1  0.4726190000000  0.4716860000000  0.5457540000000 1.0
C      1  0.4747430000000  0.4428060000000  0.5382590000000 1.0
C      1  0.5273040000000  0.5704340000000  0.5337300000000 1.0
C      1  0.5239800000000  0.4435180000000  0.5395720000000 1.0
C      1  0.4784310000000  0.5609730000000  0.5311080000000 1.0
C      1  0.5216940000000  0.4670970000000  0.4560410000000 1.0
C      1  0.4801430000000  0.5358220000000  0.4509740000000 1.0
C      1  0.4728120000000  0.4634880000000  0.4514350000000 1.0
C      1  0.5185360000000  0.5367210000000  0.4496790000000 1.0
C      1  0.4360710000000  0.5351370000000  0.5194250000000 1.0
C      1  0.5649910000000  0.4676640000000  0.5222220000000 1.0
C      1  0.5609830000000  0.5352310000000  0.5219210000000 1.0
C      1  0.4336030000000  0.4640220000000  0.5220280000000 1.0
C      1  0.5417410000000  0.5272210000000  0.4673730000000 1.0
C      1  0.4453490000000  0.4680640000000  0.4635360000000 1.0
C      1  0.4587860000000  0.5268720000000  0.4712840000000 1.0
C      1  0.5444730000000  0.4757720000000  0.4744320000000 1.0
C      1  0.4806660000000  0.5146720000000  0.4267480000000 1.0
C      1  0.5137370000000  0.4857340000000  0.4318150000000 1.0
C      1  0.5117060000000  0.5165510000000  0.4275570000000 1.0
C      1  0.4828470000000  0.4831180000000  0.4289550000000 1.0
C      1  0.4722720000000  0.5623570000000  0.4415880000000 1.0
C      1  0.5277930000000  0.4404490000000  0.4448120000000 1.0
C      1  0.5250020000000  0.5633070000000  0.4394040000000 1.0
C      1  0.4739680000000  0.4358470000000  0.4416260000000 1.0
C      1  0.5002980000000  0.4290150000000  0.5119650000000 1.0
C      1  0.5013720000000  0.5826890000000  0.5083570000000 1.0
C      1  0.4962360000000  0.5033470000000  0.5109550000000 1.0
END
