TITL C-3578201-9217-104 -8.89374259482474e-07 125000 -548.300345620469 0 0 92 (C1) n - 1
REM
REM in /home/bkarasulu/work/CARBON/AIRSS/Generating-Clusters/EDIP-Nigel-Params/with-SteepDescent/Higher-Symm/SD-CG/HFTN-CG
REM
REM
REM
REM
REM
REM ./C.cell (12c818d87b63d06a65506943cc24bca4)
REM
REM compiler GCC version 9.2.1 20190827 (Red Hat 9.2.1-1)
REM options -cpp -mtune=generic -march=x86-64 -g -O0 -fpre-include=/usr/include/finclude/math-vector-fortran.h
REM seed -528950084 -1727052767 -328942784 -1713697243 1057579156 1780461501 -220070095 636960780 1054908739 -1117617813 1998935830 -470012261 1231869554 -166632641 229954027 1618199687 -482985757 -2057766419 -1232605579 -200270456 -2115812616 1031840595 -1135579682 1721553469 1118009881 -1311431176 499034657 -2073432515 -791996632 -1365288410 1316790899 -830723456 -296887688
REM
CELL 1.54180   50.00000   50.00000   50.00000   90.00000   90.00000   90.00000
LATT -1
SFAC C  
C      1  0.4414540000000  0.4496080000000  0.4809920000000 1.0
C      1  0.5726720000000  0.4784740000000  0.4809230000000 1.0
C      1  0.4871150000000  0.5754490000000  0.4823690000000 1.0
C      1  0.4399010000000  0.4518150000000  0.5120080000000 1.0
C      1  0.5755000000000  0.4774760000000  0.5112070000000 1.0
C      1  0.4863740000000  0.5763910000000  0.5130310000000 1.0
C      1  0.3953950000000  0.5018950000000  0.5113450000000 1.0
C      1  0.5591100000000  0.4144770000000  0.5102170000000 1.0
C      1  0.5495170000000  0.5896580000000  0.5129830000000 1.0
C      1  0.3964130000000  0.4992970000000  0.4835610000000 1.0
C      1  0.5546610000000  0.4124640000000  0.4827390000000 1.0
C      1  0.5523000000000  0.5893930000000  0.4853120000000 1.0
C      1  0.4511610000000  0.5281820000000  0.4845080000000 1.0
C      1  0.5003840000000  0.4416750000000  0.4866120000000 1.0
C      1  0.5480430000000  0.5278890000000  0.4852720000000 1.0
C      1  0.4507740000000  0.5295600000000  0.5159070000000 1.0
C      1  0.4914740000000  0.4386880000000  0.5170890000000 1.0
C      1  0.5503580000000  0.5264020000000  0.5169320000000 1.0
C      1  0.4727840000000  0.5136070000000  0.5309910000000 1.0
C      1  0.4964460000000  0.4663500000000  0.5308830000000 1.0
C      1  0.5274190000000  0.5123630000000  0.5322530000000 1.0
C      1  0.4756950000000  0.5125620000000  0.4750560000000 1.0
C      1  0.5002650000000  0.4704690000000  0.4754100000000 1.0
C      1  0.5236440000000  0.5127150000000  0.4756630000000 1.0
C      1  0.5248030000000  0.4910090000000  0.5935530000000 1.0
C      1  0.4933950000000  0.5263980000000  0.5948860000000 1.0
C      1  0.4794740000000  0.4830860000000  0.5899540000000 1.0
C      1  0.5229080000000  0.5128550000000  0.3972970000000 1.0
C      1  0.4768780000000  0.5166480000000  0.3984210000000 1.0
C      1  0.4968190000000  0.4746120000000  0.3978510000000 1.0
C      1  0.5383880000000  0.5117290000000  0.5791690000000 1.0
C      1  0.4696630000000  0.5291340000000  0.5786750000000 1.0
C      1  0.4902000000000  0.4619260000000  0.5742730000000 1.0
C      1  0.5345310000000  0.5139880000000  0.4225950000000 1.0
C      1  0.4698190000000  0.5238920000000  0.4243850000000 1.0
C      1  0.4943550000000  0.4622550000000  0.4227250000000 1.0
C      1  0.4579580000000  0.4787130000000  0.4419310000000 1.0
C      1  0.5389190000000  0.4743100000000  0.4419400000000 1.0
C      1  0.5031160000000  0.5456480000000  0.4442400000000 1.0
C      1  0.4528150000000  0.4757730000000  0.5551630000000 1.0
C      1  0.5454160000000  0.4773120000000  0.5522370000000 1.0
C      1  0.4992720000000  0.5501520000000  0.5534080000000 1.0
C      1  0.5056900000000  0.4181610000000  0.5311930000000 1.0
C      1  0.5726990000000  0.5387090000000  0.5329160000000 1.0
C      1  0.4306650000000  0.5453730000000  0.5314530000000 1.0
C      1  0.4971270000000  0.4193840000000  0.4670280000000 1.0
C      1  0.5693050000000  0.5318730000000  0.4631700000000 1.0
C      1  0.4330750000000  0.5423970000000  0.4647030000000 1.0
C      1  0.4779230000000  0.4870430000000  0.5169930000000 1.0
C      1  0.5191920000000  0.4852090000000  0.5179120000000 1.0
C      1  0.5004510000000  0.5220580000000  0.5192760000000 1.0
C      1  0.4761410000000  0.4853990000000  0.4868790000000 1.0
C      1  0.5229990000000  0.4847640000000  0.4877730000000 1.0
C      1  0.5001300000000  0.5249720000000  0.4886540000000 1.0
C      1  0.5563870000000  0.4641960000000  0.5290680000000 1.0
C      1  0.5070880000000  0.5642980000000  0.5299630000000 1.0
C      1  0.4377370000000  0.4753850000000  0.5305110000000 1.0
C      1  0.5530320000000  0.4619060000000  0.4645140000000 1.0
C      1  0.5097830000000  0.5625150000000  0.4673790000000 1.0
C      1  0.4394880000000  0.4743990000000  0.4643940000000 1.0
C      1  0.4134270000000  0.5234540000000  0.5378140000000 1.0
C      1  0.5321970000000  0.4190880000000  0.5376500000000 1.0
C      1  0.5596350000000  0.5630750000000  0.5391250000000 1.0
C      1  0.4164880000000  0.5206170000000  0.4582570000000 1.0
C      1  0.5244640000000  0.4174600000000  0.4590940000000 1.0
C      1  0.5651220000000  0.5604160000000  0.4627600000000 1.0
C      1  0.5387760000000  0.5687180000000  0.4713230000000 1.0
C      1  0.4224520000000  0.4968160000000  0.4724550000000 1.0
C      1  0.5419640000000  0.4357330000000  0.4725880000000 1.0
C      1  0.5355240000000  0.5675530000000  0.5242280000000 1.0
C      1  0.4203880000000  0.4985720000000  0.5248330000000 1.0
C      1  0.5474370000000  0.4374820000000  0.5224780000000 1.0
C      1  0.4568610000000  0.5665510000000  0.4817640000000 1.0
C      1  0.4638460000000  0.4274260000000  0.4839280000000 1.0
C      1  0.5822940000000  0.5089770000000  0.4807420000000 1.0
C      1  0.4564060000000  0.5678420000000  0.5134930000000 1.0
C      1  0.4620190000000  0.4307910000000  0.5153450000000 1.0
C      1  0.5830090000000  0.5072120000000  0.5133120000000 1.0
C      1  0.5084430000000  0.4763960000000  0.4447580000000 1.0
C      1  0.5149530000000  0.5175240000000  0.4449730000000 1.0
C      1  0.4764060000000  0.5031480000000  0.4445260000000 1.0
C      1  0.5183920000000  0.4681040000000  0.5633730000000 1.0
C      1  0.5180320000000  0.5298980000000  0.5658420000000 1.0
C      1  0.4657940000000  0.5039860000000  0.5614540000000 1.0
C      1  0.5530430000000  0.4941210000000  0.4280150000000 1.0
C      1  0.4776250000000  0.5490310000000  0.4330900000000 1.0
C      1  0.4685220000000  0.4555340000000  0.4302040000000 1.0
C      1  0.5576130000000  0.5007860000000  0.5619660000000 1.0
C      1  0.4726050000000  0.5515910000000  0.5622080000000 1.0
C      1  0.4676990000000  0.4519690000000  0.5604630000000 1.0
C      1  0.4986150000000  0.5013300000000  0.3901740000000 1.0
C      1  0.4989400000000  0.4993630000000  0.6030050000000 1.0
END
