TITL C-3577087-600-312 -6.25507907300327e-07 125000 -529.854822007889 0 0 86 (C1) n - 1
REM
REM in /home/bkarasulu/work/CARBON/AIRSS/Generating-Clusters/EDIP-Nigel-Params/with-SteepDescent/Higher-Symm/SD-CG/HFTN-CG
REM
REM
REM
REM
REM
REM ./C.cell (12c818d87b63d06a65506943cc24bca4)
REM
REM compiler GCC version 9.2.1 20190827 (Red Hat 9.2.1-1)
REM options -cpp -mtune=generic -march=x86-64 -g -O0 -fpre-include=/usr/include/finclude/math-vector-fortran.h
REM seed -1526020508 -1007166628 -2073111241 2103123657 -753465759 1200085410 55762841 -1344959523 376736088 -1677025973 -524538643 -613438849 751705788 1914590842 756406246 1622787929 744518707 218161536 -684832292 -1934765100 -1899530739 582424341 1527694078 1857698950 -2072292997 1354141297 -686029533 -631705793 1171854858 1904275329 1640541558 2049779519 -452921280
REM
CELL 1.54180   50.00000   50.00000   50.00000   90.00000   90.00000   90.00000
LATT -1
SFAC C  
C      1  0.4366430000000  0.4525480000000  0.4787870000000 1.0
C      1  0.5620670000000  0.4621130000000  0.5208830000000 1.0
C      1  0.5567100000000  0.4714800000000  0.4911910000000 1.0
C      1  0.4407500000000  0.4560510000000  0.5098330000000 1.0
C      1  0.5632010000000  0.4912860000000  0.4484590000000 1.0
C      1  0.4343350000000  0.4752060000000  0.5578180000000 1.0
C      1  0.4414990000000  0.4841400000000  0.4367300000000 1.0
C      1  0.5524250000000  0.4988280000000  0.5536860000000 1.0
C      1  0.4644050000000  0.5030720000000  0.4608460000000 1.0
C      1  0.5549500000000  0.5267210000000  0.5446720000000 1.0
C      1  0.5281190000000  0.5273170000000  0.4187140000000 1.0
C      1  0.4479630000000  0.5020830000000  0.5581920000000 1.0
C      1  0.4846400000000  0.5724360000000  0.4555150000000 1.0
C      1  0.5210910000000  0.5759550000000  0.5439980000000 1.0
C      1  0.5147970000000  0.5720180000000  0.4496740000000 1.0
C      1  0.4907820000000  0.5760870000000  0.5466930000000 1.0
C      1  0.5217520000000  0.4646810000000  0.4595650000000 1.0
C      1  0.4701010000000  0.4512630000000  0.5465120000000 1.0
C      1  0.4757280000000  0.4570770000000  0.4508280000000 1.0
C      1  0.5180160000000  0.4644510000000  0.5483660000000 1.0
C      1  0.4807110000000  0.5480770000000  0.5494080000000 1.0
C      1  0.5245860000000  0.5417940000000  0.4440020000000 1.0
C      1  0.5310860000000  0.5467070000000  0.5417890000000 1.0
C      1  0.4779700000000  0.5445560000000  0.4600470000000 1.0
C      1  0.5185900000000  0.5006980000000  0.4232050000000 1.0
C      1  0.4759220000000  0.4970310000000  0.5674610000000 1.0
C      1  0.4887770000000  0.4991150000000  0.4285750000000 1.0
C      1  0.5035580000000  0.5080240000000  0.5705770000000 1.0
C      1  0.4582050000000  0.4377260000000  0.4653850000000 1.0
C      1  0.5395780000000  0.4491510000000  0.5342240000000 1.0
C      1  0.5392420000000  0.4500290000000  0.4792660000000 1.0
C      1  0.4578080000000  0.4345160000000  0.5257230000000 1.0
C      1  0.4685050000000  0.4756470000000  0.4276920000000 1.0
C      1  0.5266530000000  0.4876520000000  0.5670290000000 1.0
C      1  0.5357640000000  0.4827810000000  0.4399320000000 1.0
C      1  0.4512620000000  0.4546450000000  0.5685040000000 1.0
C      1  0.5886940000000  0.5201180000000  0.5098730000000 1.0
C      1  0.4220870000000  0.5121340000000  0.4885550000000 1.0
C      1  0.4188410000000  0.5107630000000  0.5175420000000 1.0
C      1  0.5908100000000  0.5139970000000  0.4811640000000 1.0
C      1  0.4207940000000  0.4685480000000  0.5316100000000 1.0
C      1  0.5786590000000  0.4731670000000  0.4691640000000 1.0
C      1  0.5734890000000  0.4827240000000  0.5386680000000 1.0
C      1  0.4292010000000  0.4766650000000  0.4627060000000 1.0
C      1  0.4744750000000  0.4784660000000  0.5335050000000 1.0
C      1  0.5044940000000  0.4814820000000  0.4785480000000 1.0
C      1  0.5028850000000  0.4811480000000  0.5279780000000 1.0
C      1  0.4755690000000  0.4782170000000  0.4735850000000 1.0
C      1  0.4572120000000  0.5440130000000  0.5312690000000 1.0
C      1  0.5502430000000  0.5403510000000  0.4602530000000 1.0
C      1  0.5515610000000  0.5531310000000  0.5090350000000 1.0
C      1  0.4596500000000  0.5413290000000  0.4828770000000 1.0
C      1  0.5042420000000  0.4226830000000  0.4669930000000 1.0
C      1  0.4748070000000  0.4109410000000  0.5227500000000 1.0
C      1  0.4792160000000  0.4230780000000  0.4805570000000 1.0
C      1  0.5091490000000  0.4250170000000  0.5292730000000 1.0
C      1  0.4087740000000  0.4929410000000  0.4729570000000 1.0
C      1  0.5942280000000  0.4979370000000  0.5263660000000 1.0
C      1  0.6015540000000  0.4878280000000  0.4772860000000 1.0
C      1  0.4028060000000  0.4888100000000  0.5246240000000 1.0
C      1  0.4718470000000  0.5863400000000  0.4781730000000 1.0
C      1  0.5295910000000  0.5917840000000  0.5222460000000 1.0
C      1  0.5297340000000  0.5813410000000  0.4743200000000 1.0
C      1  0.4753560000000  0.5901100000000  0.5256720000000 1.0
C      1  0.5598990000000  0.5259080000000  0.5146650000000 1.0
C      1  0.4515680000000  0.5129920000000  0.4873380000000 1.0
C      1  0.4430620000000  0.5179810000000  0.5335850000000 1.0
C      1  0.5627620000000  0.5146200000000  0.4687340000000 1.0
C      1  0.5451900000000  0.5040870000000  0.4910400000000 1.0
C      1  0.4600490000000  0.4795790000000  0.5053240000000 1.0
C      1  0.5511520000000  0.5614720000000  0.4806430000000 1.0
C      1  0.4589110000000  0.5617340000000  0.5054990000000 1.0
C      1  0.5011410000000  0.5245740000000  0.4554560000000 1.0
C      1  0.5054250000000  0.5289070000000  0.5487580000000 1.0
C      1  0.4979610000000  0.4419520000000  0.5533500000000 1.0
C      1  0.5032130000000  0.4448590000000  0.4483880000000 1.0
C      1  0.5068770000000  0.5104220000000  0.5262720000000 1.0
C      1  0.5141820000000  0.5098610000000  0.4804640000000 1.0
C      1  0.5069180000000  0.4678880000000  0.5032500000000 1.0
C      1  0.5027560000000  0.5237270000000  0.5025640000000 1.0
C      1  0.4740180000000  0.3994240000000  0.4966530000000 1.0
C      1  0.5075620000000  0.5512550000000  0.5046270000000 1.0
C      1  0.4877600000000  0.5944440000000  0.5000830000000 1.0
C      1  0.5155280000000  0.4395400000000  0.4994270000000 1.0
C      1  0.4915680000000  0.3798180000000  0.4925670000000 1.0
C      1  0.5136790000000  0.5800120000000  0.5002740000000 1.0
END
