TITL C-3578197-9521-549 -2.15536949379847e-06 125000 -568.804661449216 0 0 94 (C1) n - 1
REM
REM in /home/bkarasulu/work/CARBON/AIRSS/Generating-Clusters/EDIP-Nigel-Params/with-SteepDescent/Higher-Symm/SD-CG/HFTN-CG
REM
REM
REM
REM
REM
REM ./C.cell (12c818d87b63d06a65506943cc24bca4)
REM
REM compiler GCC version 9.2.1 20190827 (Red Hat 9.2.1-1)
REM options -cpp -mtune=generic -march=x86-64 -g -O0 -fpre-include=/usr/include/finclude/math-vector-fortran.h
REM seed -1201152162 -848089326 -1583013509 1560186275 1761998273 -1533156594 253995320 1888730685 -1873022248 1986107870 713094575 786184782 1240227805 487954521 -826294329 -280103189 -227738458 -1889925832 -59053907 -1468469964 -503761062 -217489419 845712451 1332146346 -1213606994 1781303221 -283144905 2111477759 -580730594 188217841 1447903389 -2101900932 1830470326
REM
CELL 1.54180   50.00000   50.00000   50.00000   90.00000   90.00000   90.00000
LATT -1
SFAC C  
C      1  0.4362640000000  0.5522430000000  0.4737670000000 1.0
C      1  0.5063320000000  0.5525580000000  0.4307510000000 1.0
C      1  0.5677520000000  0.5530270000000  0.4839020000000 1.0
C      1  0.5363150000000  0.5535700000000  0.5588600000000 1.0
C      1  0.4554170000000  0.5543260000000  0.5521300000000 1.0
C      1  0.5643370000000  0.4475920000000  0.4733740000000 1.0
C      1  0.4953410000000  0.4469440000000  0.4312090000000 1.0
C      1  0.4324160000000  0.4476410000000  0.4830660000000 1.0
C      1  0.4647400000000  0.4463960000000  0.5578620000000 1.0
C      1  0.5450770000000  0.4469880000000  0.5517370000000 1.0
C      1  0.5886380000000  0.4956620000000  0.5077280000000 1.0
C      1  0.5200570000000  0.4974340000000  0.5854590000000 1.0
C      1  0.4241120000000  0.4950620000000  0.5454210000000 1.0
C      1  0.4328500000000  0.4958080000000  0.4407020000000 1.0
C      1  0.5358690000000  0.4955410000000  0.4184580000000 1.0
C      1  0.4104330000000  0.5040310000000  0.5091690000000 1.0
C      1  0.4804270000000  0.5028490000000  0.5834720000000 1.0
C      1  0.5765520000000  0.5035020000000  0.5450690000000 1.0
C      1  0.5666360000000  0.5012570000000  0.4436460000000 1.0
C      1  0.4658110000000  0.5028960000000  0.4188140000000 1.0
C      1  0.4935250000000  0.5714510000000  0.4758290000000 1.0
C      1  0.5211090000000  0.5714400000000  0.4859220000000 1.0
C      1  0.5201330000000  0.5722680000000  0.5153010000000 1.0
C      1  0.4917980000000  0.5728600000000  0.5233210000000 1.0
C      1  0.4752240000000  0.5722100000000  0.4988940000000 1.0
C      1  0.5078440000000  0.4205800000000  0.4733730000000 1.0
C      1  0.4786970000000  0.4240670000000  0.4843390000000 1.0
C      1  0.4805650000000  0.4274460000000  0.5136080000000 1.0
C      1  0.5088800000000  0.4278590000000  0.5217100000000 1.0
C      1  0.5274910000000  0.4224650000000  0.4989740000000 1.0
C      1  0.4974780000000  0.4762380000000  0.5837330000000 1.0
C      1  0.4130290000000  0.4754050000000  0.5241040000000 1.0
C      1  0.4526500000000  0.4756120000000  0.4281330000000 1.0
C      1  0.5534570000000  0.4747010000000  0.4324670000000 1.0
C      1  0.5834890000000  0.4755270000000  0.5306530000000 1.0
C      1  0.5028720000000  0.5240880000000  0.5847740000000 1.0
C      1  0.5825900000000  0.5234610000000  0.5226350000000 1.0
C      1  0.5493940000000  0.5225840000000  0.4287890000000 1.0
C      1  0.4469750000000  0.5232360000000  0.4323490000000 1.0
C      1  0.4205100000000  0.5235270000000  0.5306640000000 1.0
C      1  0.4572940000000  0.4360200000000  0.5304940000000 1.0
C      1  0.4559220000000  0.4349220000000  0.4677960000000 1.0
C      1  0.5173670000000  0.4339980000000  0.4471750000000 1.0
C      1  0.5550140000000  0.4363150000000  0.4997030000000 1.0
C      1  0.5168440000000  0.4364620000000  0.5487610000000 1.0
C      1  0.5437480000000  0.5657020000000  0.5321920000000 1.0
C      1  0.5441120000000  0.5637940000000  0.4684680000000 1.0
C      1  0.4844200000000  0.5644440000000  0.4483200000000 1.0
C      1  0.4463460000000  0.5646910000000  0.4995150000000 1.0
C      1  0.4835680000000  0.5652040000000  0.5507700000000 1.0
C      1  0.4555180000000  0.5146700000000  0.4881350000000 1.0
C      1  0.4985980000000  0.5147040000000  0.4530590000000 1.0
C      1  0.5443690000000  0.5150620000000  0.4835830000000 1.0
C      1  0.5302410000000  0.5151990000000  0.5370240000000 1.0
C      1  0.4733390000000  0.5149080000000  0.5410120000000 1.0
C      1  0.5460930000000  0.4858260000000  0.4873070000000 1.0
C      1  0.5023660000000  0.4854830000000  0.4527350000000 1.0
C      1  0.4561220000000  0.4854540000000  0.4847350000000 1.0
C      1  0.4687360000000  0.4859080000000  0.5380040000000 1.0
C      1  0.5277490000000  0.4860210000000  0.5390780000000 1.0
C      1  0.4650010000000  0.5274440000000  0.5147470000000 1.0
C      1  0.4757240000000  0.5268550000000  0.4698760000000 1.0
C      1  0.5232970000000  0.5246960000000  0.4647990000000 1.0
C      1  0.5371360000000  0.5281750000000  0.5098150000000 1.0
C      1  0.5023700000000  0.5268210000000  0.5387990000000 1.0
C      1  0.5419850000000  0.4759430000000  0.5153690000000 1.0
C      1  0.5254870000000  0.4728210000000  0.4694860000000 1.0
C      1  0.4788580000000  0.4727510000000  0.4671420000000 1.0
C      1  0.4554520000000  0.4763790000000  0.5123350000000 1.0
C      1  0.4978850000000  0.4748880000000  0.5363660000000 1.0
C      1  0.5484100000000  0.5265410000000  0.5582100000000 1.0
C      1  0.4580280000000  0.5275350000000  0.5640420000000 1.0
C      1  0.4279470000000  0.5250690000000  0.4820870000000 1.0
C      1  0.4965240000000  0.5252970000000  0.4249030000000 1.0
C      1  0.5708390000000  0.5255770000000  0.4733840000000 1.0
C      1  0.4524110000000  0.4735890000000  0.5603820000000 1.0
C      1  0.5412380000000  0.4739900000000  0.5633300000000 1.0
C      1  0.5732550000000  0.4758150000000  0.4787980000000 1.0
C      1  0.5043480000000  0.4744490000000  0.4248810000000 1.0
C      1  0.4303800000000  0.4755720000000  0.4729390000000 1.0
C      1  0.5599340000000  0.4552350000000  0.5250610000000 1.0
C      1  0.4946760000000  0.4551050000000  0.5607510000000 1.0
C      1  0.4354610000000  0.4547810000000  0.5140320000000 1.0
C      1  0.4681220000000  0.4547620000000  0.4455200000000 1.0
C      1  0.5417550000000  0.4541950000000  0.4524570000000 1.0
C      1  0.4426590000000  0.5454440000000  0.5249110000000 1.0
C      1  0.5060840000000  0.5455160000000  0.5622460000000 1.0
C      1  0.5620400000000  0.5455670000000  0.5137610000000 1.0
C      1  0.5333700000000  0.5439820000000  0.4453200000000 1.0
C      1  0.4582190000000  0.5444420000000  0.4525630000000 1.0
C      1  0.5075780000000  0.4570140000000  0.4881190000000 1.0
C      1  0.4999750000000  0.5357510000000  0.5009300000000 1.0
C      1  0.5012020000000  0.5055480000000  0.4983220000000 1.0
C      1  0.4988610000000  0.4787320000000  0.5061270000000 1.0
END
