TITL C-3577091-527-427 -1.78768653182485e-06 125000 -731.770902613679 0 0 117 (C1) n - 1
REM
REM in /home/bkarasulu/work/CARBON/AIRSS/Generating-Clusters/EDIP-Nigel-Params/with-SteepDescent/Higher-Symm/SD-CG/HFTN-CG
REM
REM
REM
REM
REM
REM ./C.cell (12c818d87b63d06a65506943cc24bca4)
REM
REM compiler GCC version 9.2.1 20190827 (Red Hat 9.2.1-1)
REM options -cpp -mtune=generic -march=x86-64 -g -O0 -fpre-include=/usr/include/finclude/math-vector-fortran.h
REM seed -443841978 916464884 -1486242647 1960761777 1738514829 1540128385 -1730195600 467161068 1690058120 -766326650 145055906 -1949097782 -1762339218 -962042448 983510318 -507227836 1466463340 -619319346 -1276609652 -1262810747 783734457 50255933 -643497011 1307753132 696970803 1347725099 2113782303 -1316463450 -489966911 484854496 -261455423 908040642 -1138783121
REM
CELL 1.54180   50.00000   50.00000   50.00000   90.00000   90.00000   90.00000
LATT -1
SFAC C  
C      1  0.5232050000000  0.4715760000000  0.4355860000000 1.0
C      1  0.4787360000000  0.4404690000000  0.5233990000000 1.0
C      1  0.4656520000000  0.5270750000000  0.4688630000000 1.0
C      1  0.5188300000000  0.5277850000000  0.5573900000000 1.0
C      1  0.4719210000000  0.4676370000000  0.5376030000000 1.0
C      1  0.4753510000000  0.5267080000000  0.4380750000000 1.0
C      1  0.4747280000000  0.5539500000000  0.4833200000000 1.0
C      1  0.5347050000000  0.4650260000000  0.4678660000000 1.0
C      1  0.5335120000000  0.5330560000000  0.5278470000000 1.0
C      1  0.4448540000000  0.4802300000000  0.5259100000000 1.0
C      1  0.5653800000000  0.5246710000000  0.5278290000000 1.0
C      1  0.5647170000000  0.4757500000000  0.4720840000000 1.0
C      1  0.4755000000000  0.4727420000000  0.4344450000000 1.0
C      1  0.5358170000000  0.4651330000000  0.5229010000000 1.0
C      1  0.5645760000000  0.5242200000000  0.4737560000000 1.0
C      1  0.4717910000000  0.5298890000000  0.5562710000000 1.0
C      1  0.5195910000000  0.4760570000000  0.5466560000000 1.0
C      1  0.5227500000000  0.5278590000000  0.4424780000000 1.0
C      1  0.5341210000000  0.5329930000000  0.4730450000000 1.0
C      1  0.4766450000000  0.4424150000000  0.4763950000000 1.0
C      1  0.4719360000000  0.5496760000000  0.5291060000000 1.0
C      1  0.5666890000000  0.4747670000000  0.5258650000000 1.0
C      1  0.4432090000000  0.5290430000000  0.5228440000000 1.0
C      1  0.4680830000000  0.4718290000000  0.4654260000000 1.0
C      1  0.4123000000000  0.5518140000000  0.4885880000000 1.0
C      1  0.5442920000000  0.4857610000000  0.4208210000000 1.0
C      1  0.4851800000000  0.4185570000000  0.5443210000000 1.0
C      1  0.4256070000000  0.4611890000000  0.5143710000000 1.0
C      1  0.5789490000000  0.5489940000000  0.5155290000000 1.0
C      1  0.5804360000000  0.4517180000000  0.4835180000000 1.0
C      1  0.5395180000000  0.5160020000000  0.5748780000000 1.0
C      1  0.4487990000000  0.4941150000000  0.5899150000000 1.0
C      1  0.4511830000000  0.5142150000000  0.4225520000000 1.0
C      1  0.4886430000000  0.5703290000000  0.4632140000000 1.0
C      1  0.5129230000000  0.4163180000000  0.4512780000000 1.0
C      1  0.5079900000000  0.5838600000000  0.5453760000000 1.0
C      1  0.5801190000000  0.5478450000000  0.4854190000000 1.0
C      1  0.4512090000000  0.4841000000000  0.4205890000000 1.0
C      1  0.5119980000000  0.4133950000000  0.5513120000000 1.0
C      1  0.5814630000000  0.4508230000000  0.5141030000000 1.0
C      1  0.4175400000000  0.5458310000000  0.5156810000000 1.0
C      1  0.4227150000000  0.4605830000000  0.4840000000000 1.0
C      1  0.4540790000000  0.5215280000000  0.5851910000000 1.0
C      1  0.5413630000000  0.4874880000000  0.5763760000000 1.0
C      1  0.5429320000000  0.5161790000000  0.4240260000000 1.0
C      1  0.5178030000000  0.5768470000000  0.4622790000000 1.0
C      1  0.4854910000000  0.4213980000000  0.4566510000000 1.0
C      1  0.4804200000000  0.5788630000000  0.5410070000000 1.0
C      1  0.4712020000000  0.5711140000000  0.4393190000000 1.0
C      1  0.5630980000000  0.4313040000000  0.4693330000000 1.0
C      1  0.4361320000000  0.4753680000000  0.5730410000000 1.0
C      1  0.4680600000000  0.4313280000000  0.5660620000000 1.0
C      1  0.5266080000000  0.5733430000000  0.5637420000000 1.0
C      1  0.5310170000000  0.4263550000000  0.4319860000000 1.0
C      1  0.5592860000000  0.5689010000000  0.5263680000000 1.0
C      1  0.4303460000000  0.4361320000000  0.5303200000000 1.0
C      1  0.4299340000000  0.5666960000000  0.4725580000000 1.0
C      1  0.4309680000000  0.5266670000000  0.4415540000000 1.0
C      1  0.5684740000000  0.4698540000000  0.4255180000000 1.0
C      1  0.5637740000000  0.5316590000000  0.5705300000000 1.0
C      1  0.5312980000000  0.5746720000000  0.4357300000000 1.0
C      1  0.4277450000000  0.4343680000000  0.4706660000000 1.0
C      1  0.5626740000000  0.4694750000000  0.5690590000000 1.0
C      1  0.5267910000000  0.4326320000000  0.5654030000000 1.0
C      1  0.4664140000000  0.5730140000000  0.5663120000000 1.0
C      1  0.4680070000000  0.4258610000000  0.4334730000000 1.0
C      1  0.4268870000000  0.5692240000000  0.5322840000000 1.0
C      1  0.5627310000000  0.4307160000000  0.5279530000000 1.0
C      1  0.5647490000000  0.5692780000000  0.4710060000000 1.0
C      1  0.5676810000000  0.5322570000000  0.4270500000000 1.0
C      1  0.4305460000000  0.4699680000000  0.4370850000000 1.0
C      1  0.4313440000000  0.5354130000000  0.5720960000000 1.0
C      1  0.4449740000000  0.5818520000000  0.5150570000000 1.0
C      1  0.5796240000000  0.5162140000000  0.4486830000000 1.0
C      1  0.5105600000000  0.4569390000000  0.5688140000000 1.0
C      1  0.4524110000000  0.4273930000000  0.4855300000000 1.0
C      1  0.5367810000000  0.5627530000000  0.4808560000000 1.0
C      1  0.5379500000000  0.4289460000000  0.5121490000000 1.0
C      1  0.5840670000000  0.4850880000000  0.5568570000000 1.0
C      1  0.4301680000000  0.5183780000000  0.5480090000000 1.0
C      1  0.4372510000000  0.4800280000000  0.4649630000000 1.0
C      1  0.5156800000000  0.5515070000000  0.4254890000000 1.0
C      1  0.4835260000000  0.4472540000000  0.4206360000000 1.0
C      1  0.4832050000000  0.5545980000000  0.5818560000000 1.0
C      1  0.5342020000000  0.5652700000000  0.5112610000000 1.0
C      1  0.4343370000000  0.5111800000000  0.4671450000000 1.0
C      1  0.4816360000000  0.4556030000000  0.5724760000000 1.0
C      1  0.5376800000000  0.4306050000000  0.4833010000000 1.0
C      1  0.4526480000000  0.5739060000000  0.4892070000000 1.0
C      1  0.4533710000000  0.4265830000000  0.5145940000000 1.0
C      1  0.4297310000000  0.4894440000000  0.5487870000000 1.0
C      1  0.5843380000000  0.5145270000000  0.5587220000000 1.0
C      1  0.5796000000000  0.4851920000000  0.4477300000000 1.0
C      1  0.4850640000000  0.5518840000000  0.4230150000000 1.0
C      1  0.5148840000000  0.4475130000000  0.4198350000000 1.0
C      1  0.5122370000000  0.5510840000000  0.5758330000000 1.0
C      1  0.4990560000000  0.5117710000000  0.4439550000000 1.0
C      1  0.5168240000000  0.4690350000000  0.4965770000000 1.0
C      1  0.4502150000000  0.5030770000000  0.5074410000000 1.0
C      1  0.4948980000000  0.4891470000000  0.5345330000000 1.0
C      1  0.4942780000000  0.5117800000000  0.5534350000000 1.0
C      1  0.5147740000000  0.5252400000000  0.5022820000000 1.0
C      1  0.4962580000000  0.4457810000000  0.4987830000000 1.0
C      1  0.4916170000000  0.5454550000000  0.5061250000000 1.0
C      1  0.4730000000000  0.4994650000000  0.4870650000000 1.0
C      1  0.5626090000000  0.4997700000000  0.4880280000000 1.0
C      1  0.5711210000000  0.5001530000000  0.5132710000000 1.0
C      1  0.4995880000000  0.4874660000000  0.4325030000000 1.0
C      1  0.5532010000000  0.5624020000000  0.5548940000000 1.0
C      1  0.5571850000000  0.4383840000000  0.4408530000000 1.0
C      1  0.4394570000000  0.5556700000000  0.4469120000000 1.0
C      1  0.4414400000000  0.4429240000000  0.5581860000000 1.0
C      1  0.4389120000000  0.5620760000000  0.5595210000000 1.0
C      1  0.4358810000000  0.4400130000000  0.4418230000000 1.0
C      1  0.5599450000000  0.5648590000000  0.4410570000000 1.0
C      1  0.5540630000000  0.4419810000000  0.5560970000000 1.0
C      1  0.5005700000000  0.4967110000000  0.5035230000000 1.0
END
