TITL C-3578209-2550-686 -5.86047258441687e-06 125000 -414.278397916448 0 0 69 (C1) n - 1
REM
REM in /home/bkarasulu/work/CARBON/AIRSS/Generating-Clusters/EDIP-Nigel-Params/with-SteepDescent/Higher-Symm/SD-CG/HFTN-CG
REM
REM
REM
REM
REM
REM ./C.cell (12c818d87b63d06a65506943cc24bca4)
REM
REM compiler GCC version 9.2.1 20190827 (Red Hat 9.2.1-1)
REM options -cpp -mtune=generic -march=x86-64 -g -O0 -fpre-include=/usr/include/finclude/math-vector-fortran.h
REM seed -251248313 1039038917 647086398 -710587207 -1946303831 -1685897274 -1404986533 1006747235 -371692432 -81335562 227699171 -621163218 2126693070 -668650324 232848602 -602035514 1749370213 -608185 926413519 -1140750084 -861538009 338255090 -1123084210 744138242 -483255380 -859997522 -733788603 -304723686 1871297640 -673447597 300573643 -774427421 -357097713
REM
CELL 1.54180   50.00000   50.00000   50.00000   90.00000   90.00000   90.00000
LATT -1
SFAC C  
C      1  0.4626660000000  0.5475720000000  0.4231110000000 1.0
C      1  0.5307250000000  0.4494500000000  0.4820480000000 1.0
C      1  0.4441800000000  0.4767030000000  0.5308150000000 1.0
C      1  0.4699460000000  0.4622010000000  0.5677100000000 1.0
C      1  0.5199190000000  0.5385870000000  0.5517040000000 1.0
C      1  0.5369270000000  0.4872590000000  0.4486610000000 1.0
C      1  0.5427870000000  0.5762320000000  0.5327130000000 1.0
C      1  0.4632390000000  0.4315280000000  0.5327000000000 1.0
C      1  0.4718700000000  0.5654710000000  0.4667980000000 1.0
C      1  0.4369150000000  0.5300200000000  0.4572190000000 1.0
C      1  0.5723140000000  0.4604010000000  0.4648400000000 1.0
C      1  0.5660900000000  0.5331000000000  0.5328540000000 1.0
C      1  0.5050250000000  0.5349060000000  0.4546640000000 1.0
C      1  0.4612900000000  0.4484820000000  0.4874190000000 1.0
C      1  0.5603210000000  0.4798500000000  0.5382620000000 1.0
C      1  0.5202210000000  0.4562900000000  0.5520200000000 1.0
C      1  0.4715210000000  0.5242370000000  0.5533230000000 1.0
C      1  0.4877860000000  0.4631090000000  0.4540480000000 1.0
C      1  0.4614610000000  0.5482230000000  0.5129530000000 1.0
C      1  0.5433920000000  0.4365460000000  0.5156720000000 1.0
C      1  0.5407160000000  0.5509430000000  0.4840710000000 1.0
C      1  0.5394220000000  0.5061500000000  0.4718270000000 1.0
C      1  0.4431220000000  0.4814340000000  0.4566560000000 1.0
C      1  0.4273430000000  0.5267830000000  0.5374900000000 1.0
C      1  0.4885920000000  0.4820610000000  0.5742210000000 1.0
C      1  0.4939860000000  0.5650470000000  0.4853040000000 1.0
C      1  0.5807570000000  0.4788370000000  0.4836080000000 1.0
C      1  0.4708580000000  0.5201440000000  0.4234710000000 1.0
C      1  0.5125250000000  0.4916330000000  0.4314200000000 1.0
C      1  0.5204980000000  0.5081370000000  0.5562330000000 1.0
C      1  0.4825750000000  0.4179340000000  0.5175920000000 1.0
C      1  0.5307030000000  0.5854770000000  0.5103590000000 1.0
C      1  0.5067620000000  0.4314460000000  0.4782700000000 1.0
C      1  0.5760950000000  0.5123960000000  0.5125990000000 1.0
C      1  0.4222190000000  0.4841280000000  0.5129830000000 1.0
C      1  0.4310980000000  0.5192060000000  0.4870940000000 1.0
C      1  0.5165100000000  0.4737910000000  0.5744540000000 1.0
C      1  0.5227080000000  0.5747940000000  0.4853470000000 1.0
C      1  0.4298460000000  0.4886640000000  0.4828580000000 1.0
C      1  0.4996200000000  0.5185790000000  0.4311280000000 1.0
C      1  0.4953710000000  0.4695040000000  0.4272220000000 1.0
C      1  0.4902760000000  0.5037210000000  0.5555350000000 1.0
C      1  0.5116370000000  0.4314050000000  0.5166360000000 1.0
C      1  0.4887140000000  0.5592380000000  0.5131700000000 1.0
C      1  0.4791520000000  0.4243090000000  0.4884050000000 1.0
C      1  0.4148270000000  0.5138240000000  0.5161730000000 1.0
C      1  0.5837280000000  0.4847910000000  0.5213750000000 1.0
C      1  0.5673330000000  0.5043860000000  0.4849770000000 1.0
C      1  0.4604400000000  0.5224470000000  0.4959280000000 1.0
C      1  0.5158950000000  0.4964940000000  0.4914250000000 1.0
C      1  0.5042940000000  0.4605470000000  0.5243940000000 1.0
C      1  0.4777300000000  0.4718070000000  0.5024050000000 1.0
C      1  0.5369190000000  0.5319050000000  0.5081880000000 1.0
C      1  0.5264920000000  0.4762790000000  0.5101830000000 1.0
C      1  0.5379140000000  0.4996420000000  0.5304920000000 1.0
C      1  0.4703430000000  0.5010740000000  0.5164780000000 1.0
C      1  0.4568200000000  0.5086510000000  0.4483400000000 1.0
C      1  0.4782560000000  0.5130120000000  0.4696010000000 1.0
C      1  0.4910250000000  0.4850510000000  0.4767040000000 1.0
C      1  0.5094780000000  0.5384250000000  0.5228730000000 1.0
C      1  0.5453040000000  0.4597170000000  0.4576060000000 1.0
C      1  0.4543900000000  0.4543740000000  0.5459800000000 1.0
C      1  0.4525120000000  0.5546530000000  0.4488710000000 1.0
C      1  0.5466590000000  0.5517070000000  0.5461910000000 1.0
C      1  0.4592990000000  0.4564150000000  0.4585890000000 1.0
C      1  0.5478800000000  0.4522610000000  0.5407390000000 1.0
C      1  0.5327320000000  0.5333270000000  0.4626020000000 1.0
C      1  0.4522190000000  0.5393130000000  0.5398430000000 1.0
C      1  0.4998770000000  0.5115670000000  0.5132940000000 1.0
END
