TITL C-3577087-600-316 -3.73458756152327e-06 125000 -743.512381422073 0 0 119 (C1) n - 1
REM
REM in /home/bkarasulu/work/CARBON/AIRSS/Generating-Clusters/EDIP-Nigel-Params/with-SteepDescent/Higher-Symm/SD-CG/HFTN-CG
REM
REM
REM
REM
REM
REM ./C.cell (12c818d87b63d06a65506943cc24bca4)
REM
REM compiler GCC version 9.2.1 20190827 (Red Hat 9.2.1-1)
REM options -cpp -mtune=generic -march=x86-64 -g -O0 -fpre-include=/usr/include/finclude/math-vector-fortran.h
REM seed 384384533 -189830745 -186657906 -1847966430 -2028046594 -391790309 -272770455 1073424674 1403836704 -1165875 841054141 1897075414 -43468880 -530453504 259968121 694053229 48688880 92018104 28291301 -166093884 321173794 23707845 -1081994769 -821724476 -145862589 -1794039211 386392524 1094078794 1715266775 -2030010 -1134309205 1276096584 -1395122054
REM
CELL 1.54180   50.00000   50.00000   50.00000   90.00000   90.00000   90.00000
LATT -1
SFAC C  
C      1  0.5192120000000  0.4721690000000  0.5349020000000 1.0
C      1  0.4856150000000  0.5255850000000  0.4635490000000 1.0
C      1  0.4376020000000  0.4881840000000  0.5036500000000 1.0
C      1  0.5644360000000  0.5147960000000  0.4970580000000 1.0
C      1  0.4825770000000  0.4717320000000  0.4882610000000 1.0
C      1  0.5186030000000  0.5311650000000  0.5068520000000 1.0
C      1  0.4457460000000  0.4672700000000  0.5548040000000 1.0
C      1  0.5570710000000  0.5347950000000  0.4459390000000 1.0
C      1  0.4403970000000  0.4922420000000  0.4277880000000 1.0
C      1  0.5585970000000  0.5070710000000  0.5727610000000 1.0
C      1  0.5423210000000  0.5679920000000  0.5359990000000 1.0
C      1  0.4551930000000  0.4309710000000  0.4649040000000 1.0
C      1  0.4500270000000  0.5767360000000  0.4656220000000 1.0
C      1  0.5449060000000  0.4240470000000  0.5383090000000 1.0
C      1  0.5416170000000  0.4693110000000  0.4966920000000 1.0
C      1  0.4569120000000  0.5382370000000  0.4993600000000 1.0
C      1  0.4990160000000  0.4867600000000  0.4136700000000 1.0
C      1  0.4992180000000  0.5096930000000  0.5864010000000 1.0
C      1  0.5033500000000  0.5951940000000  0.5313510000000 1.0
C      1  0.4904040000000  0.3982200000000  0.4656000000000 1.0
C      1  0.5568990000000  0.5473510000000  0.5496430000000 1.0
C      1  0.4417540000000  0.4527210000000  0.4519830000000 1.0
C      1  0.5097940000000  0.4452470000000  0.5219850000000 1.0
C      1  0.4961900000000  0.5539980000000  0.4693880000000 1.0
C      1  0.4224200000000  0.5513570000000  0.5457390000000 1.0
C      1  0.5745190000000  0.4500140000000  0.4563990000000 1.0
C      1  0.6116560000000  0.5108900000000  0.4989660000000 1.0
C      1  0.3898960000000  0.4908140000000  0.5041150000000 1.0
C      1  0.5298610000000  0.5876630000000  0.4913200000000 1.0
C      1  0.4690500000000  0.4114600000000  0.5085070000000 1.0
C      1  0.4720340000000  0.4260260000000  0.5349080000000 1.0
C      1  0.5337780000000  0.5762600000000  0.4633020000000 1.0
C      1  0.5146450000000  0.4249210000000  0.4983630000000 1.0
C      1  0.4780990000000  0.5803670000000  0.4915280000000 1.0
C      1  0.4498480000000  0.5667450000000  0.5380520000000 1.0
C      1  0.5457190000000  0.4373710000000  0.4615400000000 1.0
C      1  0.5510400000000  0.5761300000000  0.5089910000000 1.0
C      1  0.4476380000000  0.4243540000000  0.4925520000000 1.0
C      1  0.5820820000000  0.4701220000000  0.4784130000000 1.0
C      1  0.4175300000000  0.5310260000000  0.5233250000000 1.0
C      1  0.5871020000000  0.4987270000000  0.5118640000000 1.0
C      1  0.4135100000000  0.5027100000000  0.4896200000000 1.0
C      1  0.4265090000000  0.4895920000000  0.5518680000000 1.0
C      1  0.5769600000000  0.5130380000000  0.4481990000000 1.0
C      1  0.4423690000000  0.5543230000000  0.4482920000000 1.0
C      1  0.5571220000000  0.4459360000000  0.5534550000000 1.0
C      1  0.4628550000000  0.5211700000000  0.5415800000000 1.0
C      1  0.5410540000000  0.4858920000000  0.4537960000000 1.0
C      1  0.5901830000000  0.5414680000000  0.5091860000000 1.0
C      1  0.4116950000000  0.4604620000000  0.4937790000000 1.0
C      1  0.5411560000000  0.4195370000000  0.4871090000000 1.0
C      1  0.4528740000000  0.5850160000000  0.5120460000000 1.0
C      1  0.5664800000000  0.4558330000000  0.5070640000000 1.0
C      1  0.4288420000000  0.5462730000000  0.4938700000000 1.0
C      1  0.4367980000000  0.5069190000000  0.5298770000000 1.0
C      1  0.5656530000000  0.4965080000000  0.4705330000000 1.0
C      1  0.4296850000000  0.5370660000000  0.5719480000000 1.0
C      1  0.5662740000000  0.4659620000000  0.4317650000000 1.0
C      1  0.4915530000000  0.4761190000000  0.5743330000000 1.0
C      1  0.5097570000000  0.5212350000000  0.4248890000000 1.0
C      1  0.4935150000000  0.4058790000000  0.4925230000000 1.0
C      1  0.5029400000000  0.5928230000000  0.5034320000000 1.0
C      1  0.4838270000000  0.4648260000000  0.4254240000000 1.0
C      1  0.5143230000000  0.5328230000000  0.5743270000000 1.0
C      1  0.5818740000000  0.5087990000000  0.5546520000000 1.0
C      1  0.4185070000000  0.4914520000000  0.4472270000000 1.0
C      1  0.4473760000000  0.4445140000000  0.5356710000000 1.0
C      1  0.5584740000000  0.5585430000000  0.4641010000000 1.0
C      1  0.5075320000000  0.5054100000000  0.4529960000000 1.0
C      1  0.4926250000000  0.4812800000000  0.5446980000000 1.0
C      1  0.4612880000000  0.4911980000000  0.4862880000000 1.0
C      1  0.5403570000000  0.5129810000000  0.5138190000000 1.0
C      1  0.4798640000000  0.4209780000000  0.4529780000000 1.0
C      1  0.5167060000000  0.5763430000000  0.5469350000000 1.0
C      1  0.5015920000000  0.5576340000000  0.5637130000000 1.0
C      1  0.4972280000000  0.4417710000000  0.4395190000000 1.0
C      1  0.4516500000000  0.5160000000000  0.4188360000000 1.0
C      1  0.5484140000000  0.4834880000000  0.5836920000000 1.0
C      1  0.4726490000000  0.5617060000000  0.5657900000000 1.0
C      1  0.5267820000000  0.4360210000000  0.4358110000000 1.0
C      1  0.5573690000000  0.4270310000000  0.5108290000000 1.0
C      1  0.4344200000000  0.5760080000000  0.4908610000000 1.0
C      1  0.5021830000000  0.4733270000000  0.4642420000000 1.0
C      1  0.4878340000000  0.5081430000000  0.5364400000000 1.0
C      1  0.5918330000000  0.4829100000000  0.5460780000000 1.0
C      1  0.4070010000000  0.5168810000000  0.4543270000000 1.0
C      1  0.4824350000000  0.4579560000000  0.5155310000000 1.0
C      1  0.5206050000000  0.5453130000000  0.4823540000000 1.0
C      1  0.4339050000000  0.4450230000000  0.5086330000000 1.0
C      1  0.5685990000000  0.5576510000000  0.4930980000000 1.0
C      1  0.5729960000000  0.4952580000000  0.4244860000000 1.0
C      1  0.4260990000000  0.5058080000000  0.5769990000000 1.0
C      1  0.5392720000000  0.5299010000000  0.4220350000000 1.0
C      1  0.4620140000000  0.4708420000000  0.5793820000000 1.0
C      1  0.4713820000000  0.5173330000000  0.5914170000000 1.0
C      1  0.5276010000000  0.4824870000000  0.4122020000000 1.0
C      1  0.4598180000000  0.5345640000000  0.5697070000000 1.0
C      1  0.5402980000000  0.4573610000000  0.4201250000000 1.0
C      1  0.5257360000000  0.4874530000000  0.5114210000000 1.0
C      1  0.4739600000000  0.5167600000000  0.4890000000000 1.0
C      1  0.4653290000000  0.5447600000000  0.5254690000000 1.0
C      1  0.5314520000000  0.4633850000000  0.4707470000000 1.0
C      1  0.5481050000000  0.5043020000000  0.4102740000000 1.0
C      1  0.4509420000000  0.4954390000000  0.5926070000000 1.0
C      1  0.6087240000000  0.4832290000000  0.4876990000000 1.0
C      1  0.3913660000000  0.5172530000000  0.5166920000000 1.0
C      1  0.4912780000000  0.5461700000000  0.4250650000000 1.0
C      1  0.5107870000000  0.4503750000000  0.5725210000000 1.0
C      1  0.5083010000000  0.4301240000000  0.5486610000000 1.0
C      1  0.5025560000000  0.5659640000000  0.4432860000000 1.0
C      1  0.4629590000000  0.5374510000000  0.4337580000000 1.0
C      1  0.5392380000000  0.4593400000000  0.5724940000000 1.0
C      1  0.5716510000000  0.4646320000000  0.5356420000000 1.0
C      1  0.4242490000000  0.5377850000000  0.4649550000000 1.0
C      1  0.5805240000000  0.5342160000000  0.5378960000000 1.0
C      1  0.4189950000000  0.4664550000000  0.4642230000000 1.0
C      1  0.5428550000000  0.5306650000000  0.5689300000000 1.0
C      1  0.4557040000000  0.4683930000000  0.4319830000000 1.0
C      1  0.4964290000000  0.5116530000000  0.5088960000000 1.0
END
