TITL C-3577080-309-136 1.45440162144827e-06 125000 -458.828607211972 0 0 77 (C1) n - 1
REM
REM in /home/bkarasulu/work/CARBON/AIRSS/Generating-Clusters/EDIP-Nigel-Params/with-SteepDescent/Higher-Symm/SD-CG/HFTN-CG
REM
REM
REM
REM
REM
REM ./C.cell (12c818d87b63d06a65506943cc24bca4)
REM
REM compiler GCC version 9.2.1 20190827 (Red Hat 9.2.1-1)
REM options -cpp -mtune=generic -march=x86-64 -g -O0 -fpre-include=/usr/include/finclude/math-vector-fortran.h
REM seed -981923560 2137845624 274987930 -668270893 36365435 1620533428 -761072795 -402263834 -73489431 431333947 -535835248 553732938 -205750417 -1541686087 573272809 -848818868 2091394426 -1335899357 -333521945 -710010078 -196635424 2026728461 2060950667 1739450875 -40830154 1682536338 -676046973 728037681 -1559877491 1408440696 -106805551 1434344827 1457714444
REM
CELL 1.54180   50.00000   50.00000   50.00000   90.00000   90.00000   90.00000
LATT -1
SFAC C  
C      1  0.5147470000000  0.4820050000000  0.4865490000000 1.0
C      1  0.4690540000000  0.4808120000000  0.4930840000000 1.0
C      1  0.5252610000000  0.5288180000000  0.5006060000000 1.0
C      1  0.4723000000000  0.5257540000000  0.5139280000000 1.0
C      1  0.4994310000000  0.4865780000000  0.5367040000000 1.0
C      1  0.5001460000000  0.4725700000000  0.4611310000000 1.0
C      1  0.5025570000000  0.5280680000000  0.5229990000000 1.0
C      1  0.5231020000000  0.5094320000000  0.4758050000000 1.0
C      1  0.5829530000000  0.5150830000000  0.5097150000000 1.0
C      1  0.4126500000000  0.5160490000000  0.4970750000000 1.0
C      1  0.5855530000000  0.4876220000000  0.4818770000000 1.0
C      1  0.4162630000000  0.4860580000000  0.4988280000000 1.0
C      1  0.5153440000000  0.5157450000000  0.5905600000000 1.0
C      1  0.4953940000000  0.5145700000000  0.4236180000000 1.0
C      1  0.4874920000000  0.4878470000000  0.5869160000000 1.0
C      1  0.5007270000000  0.4865010000000  0.4146480000000 1.0
C      1  0.4483080000000  0.5081380000000  0.5277650000000 1.0
C      1  0.5632560000000  0.4826670000000  0.4403710000000 1.0
C      1  0.4310830000000  0.4978500000000  0.4582420000000 1.0
C      1  0.5480920000000  0.5000870000000  0.5329040000000 1.0
C      1  0.5332500000000  0.5070740000000  0.4448720000000 1.0
C      1  0.4563290000000  0.5026590000000  0.5566360000000 1.0
C      1  0.4748080000000  0.4914910000000  0.4616360000000 1.0
C      1  0.5235050000000  0.4997090000000  0.5499670000000 1.0
C      1  0.4912780000000  0.5163150000000  0.4539840000000 1.0
C      1  0.5147340000000  0.5265540000000  0.5600920000000 1.0
C      1  0.4775910000000  0.4824400000000  0.5577320000000 1.0
C      1  0.5192720000000  0.4796500000000  0.4370320000000 1.0
C      1  0.4328140000000  0.5214890000000  0.4763030000000 1.0
C      1  0.5538770000000  0.5232990000000  0.5172090000000 1.0
C      1  0.5617380000000  0.4762830000000  0.4676950000000 1.0
C      1  0.4441960000000  0.4826160000000  0.5120320000000 1.0
C      1  0.4994950000000  0.5616080000000  0.4650680000000 1.0
C      1  0.5021380000000  0.5627080000000  0.5382000000000 1.0
C      1  0.4965410000000  0.4429100000000  0.5429850000000 1.0
C      1  0.5041410000000  0.4321080000000  0.4578080000000 1.0
C      1  0.4587650000000  0.5604500000000  0.5041190000000 1.0
C      1  0.5407840000000  0.5642880000000  0.5033000000000 1.0
C      1  0.5321370000000  0.4498160000000  0.4982790000000 1.0
C      1  0.4667530000000  0.4427750000000  0.5013160000000 1.0
C      1  0.4795090000000  0.4683520000000  0.4130700000000 1.0
C      1  0.5174630000000  0.4820200000000  0.5902960000000 1.0
C      1  0.4851710000000  0.5199130000000  0.5923940000000 1.0
C      1  0.5145810000000  0.5330850000000  0.4154150000000 1.0
C      1  0.4176320000000  0.4752640000000  0.4713550000000 1.0
C      1  0.5862820000000  0.4821180000000  0.5124020000000 1.0
C      1  0.5871200000000  0.5206660000000  0.4802010000000 1.0
C      1  0.4119970000000  0.5321470000000  0.5202020000000 1.0
C      1  0.4524490000000  0.5593820000000  0.5325710000000 1.0
C      1  0.5477400000000  0.5573110000000  0.4760190000000 1.0
C      1  0.4580810000000  0.4424390000000  0.4741960000000 1.0
C      1  0.5429750000000  0.4522080000000  0.5244640000000 1.0
C      1  0.5261440000000  0.5594140000000  0.4565610000000 1.0
C      1  0.4766330000000  0.5526070000000  0.5486160000000 1.0
C      1  0.4765470000000  0.4365750000000  0.4523450000000 1.0
C      1  0.5235100000000  0.4508200000000  0.5473650000000 1.0
C      1  0.4274810000000  0.5470630000000  0.5365630000000 1.0
C      1  0.5695760000000  0.5404270000000  0.4707740000000 1.0
C      1  0.4322290000000  0.4513480000000  0.4689550000000 1.0
C      1  0.5693690000000  0.4624580000000  0.5242600000000 1.0
C      1  0.5297540000000  0.5488010000000  0.4311310000000 1.0
C      1  0.4755660000000  0.5388390000000  0.5735110000000 1.0
C      1  0.4709310000000  0.4468540000000  0.4269930000000 1.0
C      1  0.5281810000000  0.4620850000000  0.5729710000000 1.0
C      1  0.4572100000000  0.5403590000000  0.4815270000000 1.0
C      1  0.5498260000000  0.5519670000000  0.5288270000000 1.0
C      1  0.4526710000000  0.4543960000000  0.5242470000000 1.0
C      1  0.5453280000000  0.4529000000000  0.4729880000000 1.0
C      1  0.4796640000000  0.5420750000000  0.4621800000000 1.0
C      1  0.5276120000000  0.5530360000000  0.5494550000000 1.0
C      1  0.5289620000000  0.4445370000000  0.4502340000000 1.0
C      1  0.4708570000000  0.4544520000000  0.5483130000000 1.0
C      1  0.5610300000000  0.5094200000000  0.4343790000000 1.0
C      1  0.4284040000000  0.5051830000000  0.5514370000000 1.0
C      1  0.4528020000000  0.4889610000000  0.4423550000000 1.0
C      1  0.5535170000000  0.4956120000000  0.5604430000000 1.0
C      1  0.4940770000000  0.4889220000000  0.5070910000000 1.0
END
