TITL C-3578203-1966-309 -1.05953719787499e-06 125000 -714.548754129413 0 0 117 (C1) n - 1
REM
REM in /home/bkarasulu/work/CARBON/AIRSS/Generating-Clusters/EDIP-Nigel-Params/with-SteepDescent/Higher-Symm/SD-CG/HFTN-CG
REM
REM
REM
REM
REM
REM ./C.cell (12c818d87b63d06a65506943cc24bca4)
REM
REM compiler GCC version 9.2.1 20190827 (Red Hat 9.2.1-1)
REM options -cpp -mtune=generic -march=x86-64 -g -O0 -fpre-include=/usr/include/finclude/math-vector-fortran.h
REM seed 615129349 420971009 1434235920 -760699004 -1180060560 619505248 1014419415 711858133 -1157763774 576659808 -1693223625 385963500 1718621074 -462880668 -1201143635 -1721681516 -1184839874 64074855 461109947 -1483659974 -1356137918 -1536785201 1886984589 2127103442 1627654235 1928749522 1372139797 363166922 1759159437 149245177 -2007008229 616874734 -703357445
REM
CELL 1.54180   50.00000   50.00000   50.00000   90.00000   90.00000   90.00000
LATT -1
SFAC C  
C      1  0.5482860000000  0.4679040000000  0.4318060000000 1.0
C      1  0.5456320000000  0.4338220000000  0.5220330000000 1.0
C      1  0.5456690000000  0.5297400000000  0.5703380000000 1.0
C      1  0.5467960000000  0.5693620000000  0.4744600000000 1.0
C      1  0.5511250000000  0.5262030000000  0.4356090000000 1.0
C      1  0.5444440000000  0.5688090000000  0.5310430000000 1.0
C      1  0.5460720000000  0.4739100000000  0.5671230000000 1.0
C      1  0.5509230000000  0.4309220000000  0.4698240000000 1.0
C      1  0.4134000000000  0.4638220000000  0.5159410000000 1.0
C      1  0.4251760000000  0.5112400000000  0.5325160000000 1.0
C      1  0.4254280000000  0.5336690000000  0.4852780000000 1.0
C      1  0.4219370000000  0.4846700000000  0.4655360000000 1.0
C      1  0.4221510000000  0.5337950000000  0.5143080000000 1.0
C      1  0.4131180000000  0.4847650000000  0.5365210000000 1.0
C      1  0.4248900000000  0.4672360000000  0.4888710000000 1.0
C      1  0.4260420000000  0.5134070000000  0.4648630000000 1.0
C      1  0.5009840000000  0.4310350000000  0.4697290000000 1.0
C      1  0.4999550000000  0.4765170000000  0.5447560000000 1.0
C      1  0.5002160000000  0.5622700000000  0.5343450000000 1.0
C      1  0.5048000000000  0.5219770000000  0.4385380000000 1.0
C      1  0.5031680000000  0.5601590000000  0.4768400000000 1.0
C      1  0.5014880000000  0.5304050000000  0.5652620000000 1.0
C      1  0.5000830000000  0.4532820000000  0.5195820000000 1.0
C      1  0.4983270000000  0.4669930000000  0.4341180000000 1.0
C      1  0.5369690000000  0.4291690000000  0.5488440000000 1.0
C      1  0.5295610000000  0.5542930000000  0.5766920000000 1.0
C      1  0.5234760000000  0.5654520000000  0.4542130000000 1.0
C      1  0.4964170000000  0.4380680000000  0.4260270000000 1.0
C      1  0.5295180000000  0.5741770000000  0.5566790000000 1.0
C      1  0.5383690000000  0.4464880000000  0.5691510000000 1.0
C      1  0.5060540000000  0.4190090000000  0.4437380000000 1.0
C      1  0.5258340000000  0.5437530000000  0.4347700000000 1.0
C      1  0.4671870000000  0.4142940000000  0.5346190000000 1.0
C      1  0.4657790000000  0.5272550000000  0.5910260000000 1.0
C      1  0.4703070000000  0.5892060000000  0.4697180000000 1.0
C      1  0.4626960000000  0.4609940000000  0.4081970000000 1.0
C      1  0.4659360000000  0.5899790000000  0.5342830000000 1.0
C      1  0.4673630000000  0.4671660000000  0.5858620000000 1.0
C      1  0.4639580000000  0.4070700000000  0.4758200000000 1.0
C      1  0.4717050000000  0.5290320000000  0.4097510000000 1.0
C      1  0.4754350000000  0.5234840000000  0.4534980000000 1.0
C      1  0.4731450000000  0.4498960000000  0.4735390000000 1.0
C      1  0.4825530000000  0.4984970000000  0.5337170000000 1.0
C      1  0.4714520000000  0.5463560000000  0.5282000000000 1.0
C      1  0.4715940000000  0.4712210000000  0.4511930000000 1.0
C      1  0.4746340000000  0.5451290000000  0.4752560000000 1.0
C      1  0.4737580000000  0.5232840000000  0.5483550000000 1.0
C      1  0.4822710000000  0.4643140000000  0.4983600000000 1.0
C      1  0.4441780000000  0.4219700000000  0.4916760000000 1.0
C      1  0.4455280000000  0.4815080000000  0.5739010000000 1.0
C      1  0.4457050000000  0.5796440000000  0.5154340000000 1.0
C      1  0.4498610000000  0.5113550000000  0.4198260000000 1.0
C      1  0.4482450000000  0.5787880000000  0.4857790000000 1.0
C      1  0.4444170000000  0.5104150000000  0.5784530000000 1.0
C      1  0.4460220000000  0.4272910000000  0.5201120000000 1.0
C      1  0.4447980000000  0.4815280000000  0.4186590000000 1.0
C      1  0.5475510000000  0.5954030000000  0.4866900000000 1.0
C      1  0.5495800000000  0.4843660000000  0.4081390000000 1.0
C      1  0.5503510000000  0.4099160000000  0.5083430000000 1.0
C      1  0.5512960000000  0.5128870000000  0.5929070000000 1.0
C      1  0.5505070000000  0.4054040000000  0.4814960000000 1.0
C      1  0.5554260000000  0.5110550000000  0.4118190000000 1.0
C      1  0.5424440000000  0.5904470000000  0.5125790000000 1.0
C      1  0.5447510000000  0.4863110000000  0.5929430000000 1.0
C      1  0.4916190000000  0.4176900000000  0.5189350000000 1.0
C      1  0.4922480000000  0.5118780000000  0.5879160000000 1.0
C      1  0.4951250000000  0.5877180000000  0.4882400000000 1.0
C      1  0.4936090000000  0.4830440000000  0.4090190000000 1.0
C      1  0.4930680000000  0.5888050000000  0.5199020000000 1.0
C      1  0.4911350000000  0.4827100000000  0.5810940000000 1.0
C      1  0.4916410000000  0.4091960000000  0.4898290000000 1.0
C      1  0.4970940000000  0.5121090000000  0.4106780000000 1.0
C      1  0.4726540000000  0.5547250000000  0.4241920000000 1.0
C      1  0.4616050000000  0.4169370000000  0.4480080000000 1.0
C      1  0.4686010000000  0.4400970000000  0.5800830000000 1.0
C      1  0.4655190000000  0.5749690000000  0.5596980000000 1.0
C      1  0.4675740000000  0.4348410000000  0.4248100000000 1.0
C      1  0.4721770000000  0.5746240000000  0.4441310000000 1.0
C      1  0.4660420000000  0.5538960000000  0.5782270000000 1.0
C      1  0.4689460000000  0.4209260000000  0.5615140000000 1.0
C      1  0.5253620000000  0.5048110000000  0.4560960000000 1.0
C      1  0.5266860000000  0.4479960000000  0.4762500000000 1.0
C      1  0.5274880000000  0.4880670000000  0.5476250000000 1.0
C      1  0.5251690000000  0.5454020000000  0.5228810000000 1.0
C      1  0.5250570000000  0.4731620000000  0.4508040000000 1.0
C      1  0.5245280000000  0.5426400000000  0.4924860000000 1.0
C      1  0.5269560000000  0.5184130000000  0.5483680000000 1.0
C      1  0.5270510000000  0.4521580000000  0.5067190000000 1.0
C      1  0.5832040000000  0.4878570000000  0.5346260000000 1.0
C      1  0.5835890000000  0.5380310000000  0.5196970000000 1.0
C      1  0.5882260000000  0.5155810000000  0.4690690000000 1.0
C      1  0.5835020000000  0.4685970000000  0.4842010000000 1.0
C      1  0.5787240000000  0.5164210000000  0.5376840000000 1.0
C      1  0.5775170000000  0.4697480000000  0.5124960000000 1.0
C      1  0.5772940000000  0.4892920000000  0.4656110000000 1.0
C      1  0.5786940000000  0.5343190000000  0.4915120000000 1.0
C      1  0.4383020000000  0.5248650000000  0.4417570000000 1.0
C      1  0.4351910000000  0.4436340000000  0.4766090000000 1.0
C      1  0.4239090000000  0.4688870000000  0.5589540000000 1.0
C      1  0.4339930000000  0.5567290000000  0.5271250000000 1.0
C      1  0.4338640000000  0.4713780000000  0.4428350000000 1.0
C      1  0.4374310000000  0.5562870000000  0.4728600000000 1.0
C      1  0.4356620000000  0.5239210000000  0.5557230000000 1.0
C      1  0.4243180000000  0.4419380000000  0.5325100000000 1.0
C      1  0.5734370000000  0.5568520000000  0.4714150000000 1.0
C      1  0.5735160000000  0.4805090000000  0.4387750000000 1.0
C      1  0.5718230000000  0.4438470000000  0.5217250000000 1.0
C      1  0.5738760000000  0.5262740000000  0.5640980000000 1.0
C      1  0.5752150000000  0.4443240000000  0.4733840000000 1.0
C      1  0.5769970000000  0.5368130000000  0.4476510000000 1.0
C      1  0.5721450000000  0.5603200000000  0.5319640000000 1.0
C      1  0.5734050000000  0.4755020000000  0.5576110000000 1.0
C      1  0.4748860000000  0.5324850000000  0.5023080000000 1.0
C      1  0.4749160000000  0.4964610000000  0.4656700000000 1.0
C      1  0.4896590000000  0.4896970000000  0.4884760000000 1.0
C      1  0.4896540000000  0.5092260000000  0.5084610000000 1.0
C      1  0.5255140000000  0.5152540000000  0.4829600000000 1.0
END
