TITL C-3578204-4308-297 -4.89664106547465e-06 125000 -450.944085462134 0 0 72 (C2) n - 1
REM
REM in /home/bkarasulu/work/CARBON/AIRSS/Generating-Clusters/EDIP-Nigel-Params/with-SteepDescent/Higher-Symm/SD-CG/HFTN-CG
REM
REM
REM
REM
REM
REM ./C.cell (12c818d87b63d06a65506943cc24bca4)
REM
REM compiler GCC version 9.2.1 20190827 (Red Hat 9.2.1-1)
REM options -cpp -mtune=generic -march=x86-64 -g -O0 -fpre-include=/usr/include/finclude/math-vector-fortran.h
REM seed 2136902376 -1185799587 1050377435 1044725333 2095527659 794729142 816065979 -1452568489 -1615385208 -184868876 -112076198 -113108396 -1339853110 -1797545310 -33221724 -831269178 -386740128 -2083800935 -41363254 -855468548 -439592349 -424445068 -915948290 -499493553 731276690 1066639090 677930995 1981969739 -202759716 1736700280 1760299114 -58060876 1587058962
REM
CELL 1.54180   50.00000   50.00000   50.00000   90.00000   90.00000   90.00000
LATT -1
SFAC C  
C      1  0.5461950000000  0.5272260000000  0.4513860000000 1.0
C      1  0.4363060000000  0.5272410000000  0.4842700000000 1.0
C      1  0.5178480000000  0.5263460000000  0.5646070000000 1.0
C      1  0.5462060000000  0.4727800000000  0.5486080000000 1.0
C      1  0.4363120000000  0.4727510000000  0.5157380000000 1.0
C      1  0.5178440000000  0.4736560000000  0.4353910000000 1.0
C      1  0.5825620000000  0.5218130000000  0.4996010000000 1.0
C      1  0.4567000000000  0.5234010000000  0.4263050000000 1.0
C      1  0.4583910000000  0.5204180000000  0.5714390000000 1.0
C      1  0.5825650000000  0.4781990000000  0.5003880000000 1.0
C      1  0.4567130000000  0.4765930000000  0.5737010000000 1.0
C      1  0.4583840000000  0.4795760000000  0.4285660000000 1.0
C      1  0.4967580000000  0.4500810000000  0.5559490000000 1.0
C      1  0.5506500000000  0.4493480000000  0.4751270000000 1.0
C      1  0.4540980000000  0.4512870000000  0.4697550000000 1.0
C      1  0.4967430000000  0.5499180000000  0.4440520000000 1.0
C      1  0.5506460000000  0.5506590000000  0.5248660000000 1.0
C      1  0.4540950000000  0.5487070000000  0.5302510000000 1.0
C      1  0.5279980000000  0.4322450000000  0.4857200000000 1.0
C      1  0.4742040000000  0.4342120000000  0.4843920000000 1.0
C      1  0.5001110000000  0.4362190000000  0.5297550000000 1.0
C      1  0.5279900000000  0.5677590000000  0.5142760000000 1.0
C      1  0.4741960000000  0.5657840000000  0.5156120000000 1.0
C      1  0.5000980000000  0.5637810000000  0.4702450000000 1.0
C      1  0.4738690000000  0.4363800000000  0.5144090000000 1.0
C      1  0.5264530000000  0.4355770000000  0.5159110000000 1.0
C      1  0.5015290000000  0.4366980000000  0.4704330000000 1.0
C      1  0.4738580000000  0.5636170000000  0.4855940000000 1.0
C      1  0.5264420000000  0.5644270000000  0.4840860000000 1.0
C      1  0.5015240000000  0.5633030000000  0.5295670000000 1.0
C      1  0.4981170000000  0.5480720000000  0.5571500000000 1.0
C      1  0.5502890000000  0.5493560000000  0.4731780000000 1.0
C      1  0.4509060000000  0.5508090000000  0.4690920000000 1.0
C      1  0.4981160000000  0.4519270000000  0.4428500000000 1.0
C      1  0.5502990000000  0.4506510000000  0.5268150000000 1.0
C      1  0.4509170000000  0.4491840000000  0.5309150000000 1.0
C      1  0.4733190000000  0.4740030000000  0.5030900000000 1.0
C      1  0.5146420000000  0.4765700000000  0.5263340000000 1.0
C      1  0.5138430000000  0.4728080000000  0.4783980000000 1.0
C      1  0.4733150000000  0.5259930000000  0.4969140000000 1.0
C      1  0.5146350000000  0.5234320000000  0.4736640000000 1.0
C      1  0.5138420000000  0.5271940000000  0.5216000000000 1.0
C      1  0.4365210000000  0.4729760000000  0.4837770000000 1.0
C      1  0.5176960000000  0.4722730000000  0.5646130000000 1.0
C      1  0.5436400000000  0.4729640000000  0.4538190000000 1.0
C      1  0.4365200000000  0.5270150000000  0.5162310000000 1.0
C      1  0.5176840000000  0.5277290000000  0.4353840000000 1.0
C      1  0.5436430000000  0.5270420000000  0.5461760000000 1.0
C      1  0.4374920000000  0.5000920000000  0.4697020000000 1.0
C      1  0.5043440000000  0.4996030000000  0.5698800000000 1.0
C      1  0.5567980000000  0.4998610000000  0.4607770000000 1.0
C      1  0.4374960000000  0.4998990000000  0.5303060000000 1.0
C      1  0.5043350000000  0.5003980000000  0.4301200000000 1.0
C      1  0.5568030000000  0.5001470000000  0.5392150000000 1.0
C      1  0.4726770000000  0.4667240000000  0.4515410000000 1.0
C      1  0.4685200000000  0.4596160000000  0.5530160000000 1.0
C      1  0.5560230000000  0.4653460000000  0.5006490000000 1.0
C      1  0.4726790000000  0.5332720000000  0.5484630000000 1.0
C      1  0.4685070000000  0.5403790000000  0.4469880000000 1.0
C      1  0.5560180000000  0.5346620000000  0.4993430000000 1.0
C      1  0.5814600000000  0.4996790000000  0.4778700000000 1.0
C      1  0.4391010000000  0.5005060000000  0.4396540000000 1.0
C      1  0.4772040000000  0.4992810000000  0.5829690000000 1.0
C      1  0.5814630000000  0.5003320000000  0.5221190000000 1.0
C      1  0.4391090000000  0.4994850000000  0.5603540000000 1.0
C      1  0.4771930000000  0.5007160000000  0.4170340000000 1.0
C      1  0.4857900000000  0.5169970000000  0.5237600000000 1.0
C      1  0.5305540000000  0.5158050000000  0.4987210000000 1.0
C      1  0.4874240000000  0.5121380000000  0.4753250000000 1.0
C      1  0.4857900000000  0.4830010000000  0.4762410000000 1.0
C      1  0.5305570000000  0.4841990000000  0.5012750000000 1.0
C      1  0.4874290000000  0.4878600000000  0.5246760000000 1.0
END
