TITL C-3577087-600-334 -1.88315505493754e-06 125000 -732.488606992314 0 0 119 (C1) n - 1
REM
REM in /home/bkarasulu/work/CARBON/AIRSS/Generating-Clusters/EDIP-Nigel-Params/with-SteepDescent/Higher-Symm/SD-CG/HFTN-CG
REM
REM
REM
REM
REM
REM ./C.cell (12c818d87b63d06a65506943cc24bca4)
REM
REM compiler GCC version 9.2.1 20190827 (Red Hat 9.2.1-1)
REM options -cpp -mtune=generic -march=x86-64 -g -O0 -fpre-include=/usr/include/finclude/math-vector-fortran.h
REM seed 105466390 -51136126 -888873578 1750517999 -1004768815 1711110467 834245060 1602565836 -1005854736 -809998538 1898537529 744280321 -1461637932 -1807754838 -2086988405 411403471 -1022230893 1879953270 456305444 558217419 -1642861745 -636762671 -1303567570 94618257 1881597422 1743779230 1661027613 1549935834 -1041538553 1676972318 -1094261683 2134268634 894197735
REM
CELL 1.54180   50.00000   50.00000   50.00000   90.00000   90.00000   90.00000
LATT -1
SFAC C  
C      1  0.5141840000000  0.4529580000000  0.4029640000000 1.0
C      1  0.5252900000000  0.4956390000000  0.3966770000000 1.0
C      1  0.5199480000000  0.5401790000000  0.4098910000000 1.0
C      1  0.4677520000000  0.5265180000000  0.4023030000000 1.0
C      1  0.4646500000000  0.4723830000000  0.4012750000000 1.0
C      1  0.4769900000000  0.5698960000000  0.4502120000000 1.0
C      1  0.4252420000000  0.4995760000000  0.4516430000000 1.0
C      1  0.4751190000000  0.4296560000000  0.4528300000000 1.0
C      1  0.5586890000000  0.4558010000000  0.4547390000000 1.0
C      1  0.5608800000000  0.5428660000000  0.4547970000000 1.0
C      1  0.5154290000000  0.4839420000000  0.5111220000000 1.0
C      1  0.5202350000000  0.5109820000000  0.5029290000000 1.0
C      1  0.4974890000000  0.5276410000000  0.5122510000000 1.0
C      1  0.4740480000000  0.5056270000000  0.5122490000000 1.0
C      1  0.4863180000000  0.4797420000000  0.5058930000000 1.0
C      1  0.4477620000000  0.5119550000000  0.5566750000000 1.0
C      1  0.4721600000000  0.4659650000000  0.5561470000000 1.0
C      1  0.5269620000000  0.4613440000000  0.5527840000000 1.0
C      1  0.5450370000000  0.5087250000000  0.5524090000000 1.0
C      1  0.4927970000000  0.5584150000000  0.5586740000000 1.0
C      1  0.4847690000000  0.5455680000000  0.4650510000000 1.0
C      1  0.4525570000000  0.4998450000000  0.4627120000000 1.0
C      1  0.4837500000000  0.4559880000000  0.4630320000000 1.0
C      1  0.5360830000000  0.4717360000000  0.4645510000000 1.0
C      1  0.5376770000000  0.5265100000000  0.4636800000000 1.0
C      1  0.4258360000000  0.4635590000000  0.5684190000000 1.0
C      1  0.5016270000000  0.4263730000000  0.5696150000000 1.0
C      1  0.5794710000000  0.4775340000000  0.5659450000000 1.0
C      1  0.5405350000000  0.5593310000000  0.5660380000000 1.0
C      1  0.4460520000000  0.5540820000000  0.5804160000000 1.0
C      1  0.4251410000000  0.4722490000000  0.5063120000000 1.0
C      1  0.5046020000000  0.4280130000000  0.5184990000000 1.0
C      1  0.5750880000000  0.4801020000000  0.5073690000000 1.0
C      1  0.5388120000000  0.5634450000000  0.5142770000000 1.0
C      1  0.4470520000000  0.5587480000000  0.5077040000000 1.0
C      1  0.4455510000000  0.5404940000000  0.4847090000000 1.0
C      1  0.4418670000000  0.4599850000000  0.4859580000000 1.0
C      1  0.5183470000000  0.4371710000000  0.4927220000000 1.0
C      1  0.5664210000000  0.4968660000000  0.4851530000000 1.0
C      1  0.5211770000000  0.5655330000000  0.4898870000000 1.0
C      1  0.5889480000000  0.5095580000000  0.5279330000000 1.0
C      1  0.5148380000000  0.5862660000000  0.5339690000000 1.0
C      1  0.4339830000000  0.5455320000000  0.5321440000000 1.0
C      1  0.4388970000000  0.4426920000000  0.5266400000000 1.0
C      1  0.5310840000000  0.4196780000000  0.5366260000000 1.0
C      1  0.4403000000000  0.4762470000000  0.5891620000000 1.0
C      1  0.5001850000000  0.4401560000000  0.5963450000000 1.0
C      1  0.5589600000000  0.4797340000000  0.5859620000000 1.0
C      1  0.5391480000000  0.5475810000000  0.5935140000000 1.0
C      1  0.4662470000000  0.5432670000000  0.5973500000000 1.0
C      1  0.4990900000000  0.4476110000000  0.5490140000000 1.0
C      1  0.5222040000000  0.4890180000000  0.5423750000000 1.0
C      1  0.5353790000000  0.5386120000000  0.5438920000000 1.0
C      1  0.5046090000000  0.5337450000000  0.5432090000000 1.0
C      1  0.4714380000000  0.4962870000000  0.5444150000000 1.0
C      1  0.4215250000000  0.5177330000000  0.5299980000000 1.0
C      1  0.4536640000000  0.4207700000000  0.5182390000000 1.0
C      1  0.5482430000000  0.4450470000000  0.5371530000000 1.0
C      1  0.5814300000000  0.5351600000000  0.5207950000000 1.0
C      1  0.4858890000000  0.5845200000000  0.5312370000000 1.0
C      1  0.5097300000000  0.5332000000000  0.4522980000000 1.0
C      1  0.4680070000000  0.5207960000000  0.4463450000000 1.0
C      1  0.4675960000000  0.4768350000000  0.4493050000000 1.0
C      1  0.5121440000000  0.4594180000000  0.4512210000000 1.0
C      1  0.5383680000000  0.4996110000000  0.4502140000000 1.0
C      1  0.5238020000000  0.4103870000000  0.5624580000000 1.0
C      1  0.5722370000000  0.4978640000000  0.5477120000000 1.0
C      1  0.5175690000000  0.5770870000000  0.5611960000000 1.0
C      1  0.4518450000000  0.5423860000000  0.5554940000000 1.0
C      1  0.4457820000000  0.4528870000000  0.5519840000000 1.0
C      1  0.5110330000000  0.4685350000000  0.5962010000000 1.0
C      1  0.5456730000000  0.5055220000000  0.5825460000000 1.0
C      1  0.5128870000000  0.5361300000000  0.5979710000000 1.0
C      1  0.4678850000000  0.5133430000000  0.5988740000000 1.0
C      1  0.4702380000000  0.4705770000000  0.5872100000000 1.0
C      1  0.4426190000000  0.5048940000000  0.5856370000000 1.0
C      1  0.4738090000000  0.4461490000000  0.6033430000000 1.0
C      1  0.5355230000000  0.4622570000000  0.5814090000000 1.0
C      1  0.5582470000000  0.5269910000000  0.5966780000000 1.0
C      1  0.4919700000000  0.5529000000000  0.5885600000000 1.0
C      1  0.4747540000000  0.5703860000000  0.5090520000000 1.0
C      1  0.4256540000000  0.5011230000000  0.5068150000000 1.0
C      1  0.4766750000000  0.4309950000000  0.5066260000000 1.0
C      1  0.5568260000000  0.4576030000000  0.5108530000000 1.0
C      1  0.5582890000000  0.5419310000000  0.5070700000000 1.0
C      1  0.5296000000000  0.5793640000000  0.4633590000000 1.0
C      1  0.4313610000000  0.5490700000000  0.4591680000000 1.0
C      1  0.4291120000000  0.4479530000000  0.4614330000000 1.0
C      1  0.5249120000000  0.4203730000000  0.4684780000000 1.0
C      1  0.5845180000000  0.4978920000000  0.4598610000000 1.0
C      1  0.4621830000000  0.4999070000000  0.3936160000000 1.0
C      1  0.4918500000000  0.4697820000000  0.4130860000000 1.0
C      1  0.5358920000000  0.4696170000000  0.3957100000000 1.0
C      1  0.5408340000000  0.5187740000000  0.4045800000000 1.0
C      1  0.4940360000000  0.5369320000000  0.3976030000000 1.0
C      1  0.4993150000000  0.4178180000000  0.4409970000000 1.0
C      1  0.5780330000000  0.4740680000000  0.4427410000000 1.0
C      1  0.5529470000000  0.5695780000000  0.4471130000000 1.0
C      1  0.4499270000000  0.5648540000000  0.4386260000000 1.0
C      1  0.4225620000000  0.4750590000000  0.4360780000000 1.0
C      1  0.5107520000000  0.5804560000000  0.4403600000000 1.0
C      1  0.4202330000000  0.5264200000000  0.4429830000000 1.0
C      1  0.4471540000000  0.4309300000000  0.4448090000000 1.0
C      1  0.5487160000000  0.4286000000000  0.4519990000000 1.0
C      1  0.5777700000000  0.5229160000000  0.4406840000000 1.0
C      1  0.4493030000000  0.5111650000000  0.4925420000000 1.0
C      1  0.4726530000000  0.4567630000000  0.4919190000000 1.0
C      1  0.5322480000000  0.4633280000000  0.4952410000000 1.0
C      1  0.5458810000000  0.5194450000000  0.4917070000000 1.0
C      1  0.4938690000000  0.5530440000000  0.4940480000000 1.0
C      1  0.5573790000000  0.5026430000000  0.4267790000000 1.0
C      1  0.5269190000000  0.5668830000000  0.4196650000000 1.0
C      1  0.4475310000000  0.5400770000000  0.4193480000000 1.0
C      1  0.4501750000000  0.4649390000000  0.4278860000000 1.0
C      1  0.5187370000000  0.4386590000000  0.4300020000000 1.0
C      1  0.4980670000000  0.5056550000000  0.5561320000000 1.0
C      1  0.4963120000000  0.5093910000000  0.4403840000000 1.0
C      1  0.4994480000000  0.4982630000000  0.4114220000000 1.0
C      1  0.4965250000000  0.5030960000000  0.5878330000000 1.0
END
