TITL C-3578202-4305-624 3.17930576585335e-06 125000 -700.265609071868 0 0 114 (C1) n - 1
REM
REM in /home/bkarasulu/work/CARBON/AIRSS/Generating-Clusters/EDIP-Nigel-Params/with-SteepDescent/Higher-Symm/SD-CG/HFTN-CG
REM
REM
REM
REM
REM
REM ./C.cell (12c818d87b63d06a65506943cc24bca4)
REM
REM compiler GCC version 9.2.1 20190827 (Red Hat 9.2.1-1)
REM options -cpp -mtune=generic -march=x86-64 -g -O0 -fpre-include=/usr/include/finclude/math-vector-fortran.h
REM seed 1451217143 -875874288 -161071950 -1529559007 -1739153860 -1177714478 -640018954 1943588136 -78681033 -1888111210 -848635007 -1624361787 -683105432 -1577899133 -1264388860 1493511305 -1737643437 -335127604 -1836273161 1720871104 -1573355419 1962334053 1849874453 -1780754311 684743331 1580893583 -2058818838 1495044919 1004252307 -148632977 -213735775 -2113370648 579247295
REM
CELL 1.54180   50.00000   50.00000   50.00000   90.00000   90.00000   90.00000
LATT -1
SFAC C  
C      1  0.5488390000000  0.5017770000000  0.5389470000000 1.0
C      1  0.5151320000000  0.4692570000000  0.5224600000000 1.0
C      1  0.4877730000000  0.4592210000000  0.5316040000000 1.0
C      1  0.4645300000000  0.4800750000000  0.5340860000000 1.0
C      1  0.4620080000000  0.5183690000000  0.5271480000000 1.0
C      1  0.4868460000000  0.5348840000000  0.5292400000000 1.0
C      1  0.5331910000000  0.5268830000000  0.5336070000000 1.0
C      1  0.4762140000000  0.4727460000000  0.4834220000000 1.0
C      1  0.4646020000000  0.5001700000000  0.4868910000000 1.0
C      1  0.4779370000000  0.5274780000000  0.4840020000000 1.0
C      1  0.5082200000000  0.5366780000000  0.4816040000000 1.0
C      1  0.5370390000000  0.5219470000000  0.4784200000000 1.0
C      1  0.5356270000000  0.4931560000000  0.4854210000000 1.0
C      1  0.5042020000000  0.4653390000000  0.4738300000000 1.0
C      1  0.4367780000000  0.4772900000000  0.5194940000000 1.0
C      1  0.4418310000000  0.5372950000000  0.5163960000000 1.0
C      1  0.4910810000000  0.5651890000000  0.5167670000000 1.0
C      1  0.5506630000000  0.5474290000000  0.5190750000000 1.0
C      1  0.5719120000000  0.4954220000000  0.5189280000000 1.0
C      1  0.5305800000000  0.4451000000000  0.5131010000000 1.0
C      1  0.4760460000000  0.4357750000000  0.5157750000000 1.0
C      1  0.4562340000000  0.5491870000000  0.4918100000000 1.0
C      1  0.5110800000000  0.5645910000000  0.4938400000000 1.0
C      1  0.5623230000000  0.5351000000000  0.4941800000000 1.0
C      1  0.5613030000000  0.4791500000000  0.4947240000000 1.0
C      1  0.5149840000000  0.4360050000000  0.4882270000000 1.0
C      1  0.4601240000000  0.4473440000000  0.4925700000000 1.0
C      1  0.4345910000000  0.4969240000000  0.4955600000000 1.0
C      1  0.4483380000000  0.4380520000000  0.5601500000000 1.0
C      1  0.4242220000000  0.5011670000000  0.5612290000000 1.0
C      1  0.4556320000000  0.5593100000000  0.5613320000000 1.0
C      1  0.5196470000000  0.5742490000000  0.5594850000000 1.0
C      1  0.5779190000000  0.5327300000000  0.5632500000000 1.0
C      1  0.5756500000000  0.4658150000000  0.5547430000000 1.0
C      1  0.5128750000000  0.4236880000000  0.5577850000000 1.0
C      1  0.5504160000000  0.5307230000000  0.4439500000000 1.0
C      1  0.5568320000000  0.4821330000000  0.4366990000000 1.0
C      1  0.5215150000000  0.4428840000000  0.4342170000000 1.0
C      1  0.4682590000000  0.4462880000000  0.4294810000000 1.0
C      1  0.4407940000000  0.4882990000000  0.4362310000000 1.0
C      1  0.4522610000000  0.5394330000000  0.4273770000000 1.0
C      1  0.5045520000000  0.5616250000000  0.4311800000000 1.0
C      1  0.4239160000000  0.4729310000000  0.4509210000000 1.0
C      1  0.4328320000000  0.5388730000000  0.4467100000000 1.0
C      1  0.4922930000000  0.5790820000000  0.4483030000000 1.0
C      1  0.5560180000000  0.5573100000000  0.4526700000000 1.0
C      1  0.5795580000000  0.4907550000000  0.4492340000000 1.0
C      1  0.5403040000000  0.4269900000000  0.4459970000000 1.0
C      1  0.4706930000000  0.4250340000000  0.4464530000000 1.0
C      1  0.4215030000000  0.4516700000000  0.5554130000000 1.0
C      1  0.4162270000000  0.5297540000000  0.5564080000000 1.0
C      1  0.4719260000000  0.5835530000000  0.5549270000000 1.0
C      1  0.5497480000000  0.5754290000000  0.5569130000000 1.0
C      1  0.5975690000000  0.5102980000000  0.5554260000000 1.0
C      1  0.5579570000000  0.4448340000000  0.5520290000000 1.0
C      1  0.4877120000000  0.4085490000000  0.5509140000000 1.0
C      1  0.4591820000000  0.4245930000000  0.4724370000000 1.0
C      1  0.4161190000000  0.4821120000000  0.4764180000000 1.0
C      1  0.4343640000000  0.5531190000000  0.4712410000000 1.0
C      1  0.5020750000000  0.5858460000000  0.4742360000000 1.0
C      1  0.5711670000000  0.5577560000000  0.4768200000000 1.0
C      1  0.5842640000000  0.4820660000000  0.4754370000000 1.0
C      1  0.5359300000000  0.4204370000000  0.4731160000000 1.0
C      1  0.5258290000000  0.5176610000000  0.4364620000000 1.0
C      1  0.5305120000000  0.4890490000000  0.4281890000000 1.0
C      1  0.5095990000000  0.4679510000000  0.4404710000000 1.0
C      1  0.4832720000000  0.4697310000000  0.4234900000000 1.0
C      1  0.4671910000000  0.4937280000000  0.4308940000000 1.0
C      1  0.4727420000000  0.5209590000000  0.4199040000000 1.0
C      1  0.5050540000000  0.5344160000000  0.4225420000000 1.0
C      1  0.4915260000000  0.4464950000000  0.5594710000000 1.0
C      1  0.4552730000000  0.4697340000000  0.5618250000000 1.0
C      1  0.4522980000000  0.5152500000000  0.5567380000000 1.0
C      1  0.4850270000000  0.5467510000000  0.5586130000000 1.0
C      1  0.5277530000000  0.5434890000000  0.5597510000000 1.0
C      1  0.5608860000000  0.5048200000000  0.5662620000000 1.0
C      1  0.5309350000000  0.4790680000000  0.5449680000000 1.0
C      1  0.5231300000000  0.5295300000000  0.5867140000000 1.0
C      1  0.5355130000000  0.5029240000000  0.5851220000000 1.0
C      1  0.5170740000000  0.4865240000000  0.5690320000000 1.0
C      1  0.4994830000000  0.4666160000000  0.5808270000000 1.0
C      1  0.4734660000000  0.4792140000000  0.5851170000000 1.0
C      1  0.4742780000000  0.5074050000000  0.5762130000000 1.0
C      1  0.4928380000000  0.5294040000000  0.5830410000000 1.0
C      1  0.5161930000000  0.4652580000000  0.3879670000000 1.0
C      1  0.4893890000000  0.4705330000000  0.3940230000000 1.0
C      1  0.4788390000000  0.4929230000000  0.3808330000000 1.0
C      1  0.4785050000000  0.5195190000000  0.3898330000000 1.0
C      1  0.5062720000000  0.5306690000000  0.3920970000000 1.0
C      1  0.5254120000000  0.5114820000000  0.3849370000000 1.0
C      1  0.5302630000000  0.4872470000000  0.3981210000000 1.0
C      1  0.4334510000000  0.4519990000000  0.5042960000000 1.0
C      1  0.4204630000000  0.5222150000000  0.5031040000000 1.0
C      1  0.4672240000000  0.5748880000000  0.5016930000000 1.0
C      1  0.5376090000000  0.5712230000000  0.5055130000000 1.0
C      1  0.5845250000000  0.5175800000000  0.5028930000000 1.0
C      1  0.5570150000000  0.4507100000000  0.5007610000000 1.0
C      1  0.4942930000000  0.4183500000000  0.4996360000000 1.0
C      1  0.4323670000000  0.5512520000000  0.5431790000000 1.0
C      1  0.4979590000000  0.5843950000000  0.5405760000000 1.0
C      1  0.5676110000000  0.5553220000000  0.5443880000000 1.0
C      1  0.5907240000000  0.4852640000000  0.5404480000000 1.0
C      1  0.5365720000000  0.4298910000000  0.5397040000000 1.0
C      1  0.4625920000000  0.4201710000000  0.5394910000000 1.0
C      1  0.4168080000000  0.4784790000000  0.5427670000000 1.0
C      1  0.4121800000000  0.5372470000000  0.4798650000000 1.0
C      1  0.4752350000000  0.5927940000000  0.4807370000000 1.0
C      1  0.5550410000000  0.5800380000000  0.4842480000000 1.0
C      1  0.5979660000000  0.5062030000000  0.4802680000000 1.0
C      1  0.5609830000000  0.4327780000000  0.4785780000000 1.0
C      1  0.4790810000000  0.4053460000000  0.4791430000000 1.0
C      1  0.4134380000000  0.4549480000000  0.4840360000000 1.0
C      1  0.5090740000000  0.5172680000000  0.5209260000000 1.0
C      1  0.5108360000000  0.4911410000000  0.5019930000000 1.0
END
