TITL C-3577081-279-42 -8.86005329772142e-07 125000 -941.451923197087 0 0 150 (Ci) n - 1
REM
REM in /home/bkarasulu/work/CARBON/AIRSS/Generating-Clusters/EDIP-Nigel-Params/with-SteepDescent/Higher-Symm/SD-CG/HFTN-CG
REM
REM
REM
REM
REM
REM ./C.cell (12c818d87b63d06a65506943cc24bca4)
REM
REM compiler GCC version 9.2.1 20190827 (Red Hat 9.2.1-1)
REM options -cpp -mtune=generic -march=x86-64 -g -O0 -fpre-include=/usr/include/finclude/math-vector-fortran.h
REM seed -75920553 517965174 144812109 147619750 -1378350440 -938682869 716732717 -1627569619 1272446990 -73639972 -249167414 1708292726 -1560292316 1995524266 -517167335 1812955807 856938751 -735652748 948826944 45034799 -897670845 1769648838 -1870339718 -228425839 53048443 584459318 1345846808 -940051870 -2136032632 1933260371 1318859470 -1951556546 -919654045
REM
CELL 1.54180   50.00000   50.00000   50.00000   90.00000   90.00000   90.00000
LATT -1
SFAC C  
C      1  0.5097460000000  0.3751440000000  0.4768510000000 1.0
C      1  0.5105130000000  0.6233360000000  0.5040880000000 1.0
C      1  0.4973840000000  0.3734570000000  0.5227230000000 1.0
C      1  0.4902540000000  0.6248560000000  0.5231490000000 1.0
C      1  0.4894870000000  0.3766640000000  0.4959120000000 1.0
C      1  0.5026160000000  0.6265430000000  0.4772770000000 1.0
C      1  0.5359690000000  0.5064550000000  0.5891510000000 1.0
C      1  0.4422030000000  0.4949470000000  0.5787480000000 1.0
C      1  0.4071360000000  0.5078410000000  0.4894230000000 1.0
C      1  0.4640310000000  0.4935450000000  0.4108490000000 1.0
C      1  0.5577970000000  0.5050530000000  0.4212520000000 1.0
C      1  0.5928640000000  0.4921590000000  0.5105770000000 1.0
C      1  0.5349120000000  0.5582970000000  0.5658940000000 1.0
C      1  0.4633390000000  0.4456310000000  0.5642110000000 1.0
C      1  0.4235140000000  0.5579340000000  0.5018460000000 1.0
C      1  0.4650880000000  0.4417030000000  0.4341060000000 1.0
C      1  0.5366610000000  0.5543690000000  0.4357890000000 1.0
C      1  0.5764860000000  0.4420660000000  0.4981540000000 1.0
C      1  0.5246850000000  0.5496240000000  0.5028750000000 1.0
C      1  0.4979310000000  0.4465480000000  0.5197400000000 1.0
C      1  0.4783010000000  0.5600270000000  0.5168370000000 1.0
C      1  0.4753150000000  0.4503760000000  0.4971250000000 1.0
C      1  0.5020690000000  0.5534520000000  0.4802600000000 1.0
C      1  0.5216990000000  0.4399730000000  0.4831630000000 1.0
C      1  0.5515960000000  0.5747560000000  0.5485650000000 1.0
C      1  0.4885820000000  0.4303090000000  0.5613780000000 1.0
C      1  0.4309890000000  0.5738890000000  0.5254140000000 1.0
C      1  0.4484040000000  0.4252440000000  0.4514350000000 1.0
C      1  0.5114180000000  0.5696910000000  0.4386220000000 1.0
C      1  0.5690110000000  0.4261110000000  0.4745860000000 1.0
C      1  0.5362150000000  0.5279100000000  0.4222470000000 1.0
C      1  0.5855010000000  0.4693300000000  0.4914630000000 1.0
C      1  0.5450340000000  0.5306850000000  0.5713250000000 1.0
C      1  0.4637850000000  0.4720900000000  0.5777530000000 1.0
C      1  0.4144990000000  0.5306700000000  0.5085370000000 1.0
C      1  0.4549660000000  0.4693150000000  0.4286750000000 1.0
C      1  0.5316410000000  0.4074550000000  0.4456440000000 1.0
C      1  0.5547300000000  0.5917050000000  0.5008110000000 1.0
C      1  0.5315420000000  0.4051520000000  0.5479400000000 1.0
C      1  0.4683590000000  0.5925450000000  0.5543560000000 1.0
C      1  0.4452700000000  0.4082950000000  0.4991890000000 1.0
C      1  0.4684580000000  0.5948480000000  0.4520600000000 1.0
C      1  0.4685390000000  0.6079860000000  0.5289220000000 1.0
C      1  0.4698870000000  0.3964910000000  0.4887060000000 1.0
C      1  0.4924490000000  0.6013070000000  0.4698340000000 1.0
C      1  0.5314610000000  0.3920140000000  0.4710780000000 1.0
C      1  0.5301130000000  0.6035090000000  0.5112940000000 1.0
C      1  0.5075510000000  0.3986930000000  0.5301660000000 1.0
C      1  0.4483680000000  0.4493760000000  0.5135710000000 1.0
C      1  0.4696960000000  0.5568560000000  0.4693040000000 1.0
C      1  0.5040640000000  0.4388180000000  0.4589470000000 1.0
C      1  0.5516320000000  0.5506240000000  0.4864290000000 1.0
C      1  0.5303040000000  0.4431440000000  0.5306960000000 1.0
C      1  0.4959360000000  0.5611820000000  0.5410530000000 1.0
C      1  0.5187940000000  0.4863300000000  0.5463540000000 1.0
C      1  0.4692350000000  0.5178530000000  0.5414400000000 1.0
C      1  0.4492330000000  0.4898580000000  0.4943080000000 1.0
C      1  0.4812060000000  0.5136700000000  0.4536460000000 1.0
C      1  0.5307650000000  0.4821470000000  0.4585600000000 1.0
C      1  0.5507670000000  0.5101420000000  0.5056920000000 1.0
C      1  0.5767000000000  0.4958300000000  0.5640250000000 1.0
C      1  0.4853070000000  0.5076730000000  0.5983940000000 1.0
C      1  0.4044080000000  0.4955250000000  0.5372740000000 1.0
C      1  0.4233000000000  0.5041700000000  0.4359750000000 1.0
C      1  0.5146930000000  0.4923270000000  0.4016060000000 1.0
C      1  0.5955920000000  0.5044750000000  0.4627260000000 1.0
C      1  0.4874440000000  0.4201910000000  0.5338130000000 1.0
C      1  0.4642410000000  0.5855780000000  0.5104130000000 1.0
C      1  0.4790580000000  0.4307460000000  0.4742280000000 1.0
C      1  0.5125560000000  0.5798090000000  0.4661870000000 1.0
C      1  0.5357590000000  0.4144220000000  0.4895870000000 1.0
C      1  0.5209420000000  0.5692540000000  0.5257720000000 1.0
C      1  0.4312880000000  0.4780600000000  0.4442030000000 1.0
C      1  0.5103000000000  0.5185900000000  0.4118290000000 1.0
C      1  0.5836500000000  0.4781760000000  0.4632260000000 1.0
C      1  0.5687120000000  0.5219400000000  0.5557970000000 1.0
C      1  0.4897000000000  0.4814100000000  0.5881710000000 1.0
C      1  0.4163500000000  0.5218240000000  0.5367740000000 1.0
C      1  0.5559280000000  0.5858700000000  0.4712620000000 1.0
C      1  0.5554980000000  0.4104380000000  0.5326620000000 1.0
C      1  0.4952200000000  0.5904440000000  0.5663330000000 1.0
C      1  0.4440720000000  0.4141300000000  0.5287380000000 1.0
C      1  0.4445020000000  0.5895620000000  0.4673380000000 1.0
C      1  0.5047800000000  0.4095560000000  0.4336670000000 1.0
C      1  0.5310320000000  0.4541680000000  0.5801700000000 1.0
C      1  0.4435990000000  0.5488720000000  0.5686080000000 1.0
C      1  0.4177510000000  0.4508530000000  0.4835130000000 1.0
C      1  0.4689680000000  0.5458320000000  0.4198300000000 1.0
C      1  0.5564010000000  0.4511280000000  0.4313920000000 1.0
C      1  0.5822490000000  0.5491470000000  0.5164870000000 1.0
C      1  0.4595730000000  0.5449830000000  0.5919630000000 1.0
C      1  0.4098010000000  0.4570170000000  0.5111060000000 1.0
C      1  0.4407660000000  0.5418590000000  0.4202430000000 1.0
C      1  0.5404270000000  0.4550170000000  0.4080370000000 1.0
C      1  0.5901990000000  0.5429830000000  0.4888940000000 1.0
C      1  0.5592340000000  0.4581410000000  0.5797570000000 1.0
C      1  0.4795270000000  0.5663940000000  0.4394220000000 1.0
C      1  0.5506540000000  0.4301650000000  0.4510150000000 1.0
C      1  0.5644470000000  0.5722810000000  0.5220940000000 1.0
C      1  0.5204730000000  0.4336060000000  0.5605780000000 1.0
C      1  0.4493460000000  0.5698350000000  0.5489850000000 1.0
C      1  0.4355530000000  0.4277190000000  0.4779060000000 1.0
C      1  0.5424870000000  0.4838650000000  0.4027830000000 1.0
C      1  0.6002330000000  0.5145140000000  0.4897420000000 1.0
C      1  0.5613280000000  0.4866820000000  0.5869080000000 1.0
C      1  0.4575130000000  0.5161350000000  0.5972170000000 1.0
C      1  0.3997670000000  0.4854860000000  0.5102580000000 1.0
C      1  0.4386720000000  0.5133180000000  0.4130920000000 1.0
C      1  0.4252040000000  0.4783430000000  0.5481590000000 1.0
C      1  0.4261440000000  0.5223860000000  0.4592630000000 1.0
C      1  0.4968060000000  0.4729400000000  0.4151690000000 1.0
C      1  0.5747960000000  0.5216570000000  0.4518410000000 1.0
C      1  0.5738560000000  0.4776140000000  0.5407370000000 1.0
C      1  0.5031940000000  0.5270600000000  0.5848310000000 1.0
C      1  0.4963330000000  0.5529440000000  0.5966540000000 1.0
C      1  0.4167750000000  0.4500520000000  0.5482290000000 1.0
C      1  0.4213120000000  0.5500500000000  0.4509780000000 1.0
C      1  0.5036670000000  0.4470560000000  0.4033460000000 1.0
C      1  0.5832250000000  0.5499480000000  0.4517710000000 1.0
C      1  0.5786880000000  0.4499500000000  0.5490220000000 1.0
C      1  0.5607850000000  0.5677270000000  0.4477890000000 1.0
C      1  0.5726170000000  0.4322940000000  0.5264590000000 1.0
C      1  0.5118530000000  0.5710140000000  0.5806500000000 1.0
C      1  0.4392150000000  0.4322730000000  0.5522110000000 1.0
C      1  0.4273830000000  0.5677060000000  0.4735410000000 1.0
C      1  0.4881470000000  0.4289860000000  0.4193500000000 1.0
C      1  0.5039190000000  0.4693740000000  0.4466470000000 1.0
C      1  0.5537130000000  0.5214390000000  0.4751130000000 1.0
C      1  0.5427510000000  0.4715810000000  0.5332850000000 1.0
C      1  0.4960810000000  0.5306260000000  0.5533530000000 1.0
C      1  0.4462870000000  0.4785610000000  0.5248870000000 1.0
C      1  0.4572490000000  0.5284190000000  0.4667150000000 1.0
C      1  0.4818220000000  0.5188430000000  0.4233920000000 1.0
C      1  0.5585710000000  0.4779900000000  0.4439770000000 1.0
C      1  0.5740040000000  0.5214260000000  0.5256400000000 1.0
C      1  0.5181780000000  0.4811570000000  0.5766080000000 1.0
C      1  0.4414290000000  0.5220100000000  0.5560230000000 1.0
C      1  0.4259960000000  0.4785740000000  0.4743600000000 1.0
C      1  0.5324440000000  0.4678330000000  0.4844720000000 1.0
C      1  0.5255920000000  0.5225060000000  0.5139200000000 1.0
C      1  0.4953840000000  0.4736460000000  0.5339810000000 1.0
C      1  0.4675560000000  0.5321670000000  0.5155280000000 1.0
C      1  0.4744080000000  0.4774940000000  0.4860800000000 1.0
C      1  0.5046160000000  0.5263540000000  0.4660190000000 1.0
C      1  0.5290860000000  0.5116430000000  0.4629570000000 1.0
C      1  0.5455920000000  0.4812180000000  0.5065160000000 1.0
C      1  0.5177000000000  0.5154080000000  0.5401760000000 1.0
C      1  0.4709140000000  0.4883570000000  0.5370430000000 1.0
C      1  0.4544080000000  0.5187820000000  0.4934840000000 1.0
C      1  0.4823000000000  0.4845920000000  0.4598240000000 1.0
END
