TITL C-3578200-9634-328 -1.49176811902391e-07 125000 -1138.11689770921 0 0 184 (C1) n - 1
REM
REM in /home/bkarasulu/work/CARBON/AIRSS/Generating-Clusters/EDIP-Nigel-Params/with-SteepDescent/Higher-Symm/SD-CG/HFTN-CG
REM
REM
REM
REM
REM
REM ./C.cell (12c818d87b63d06a65506943cc24bca4)
REM
REM compiler GCC version 9.2.1 20190827 (Red Hat 9.2.1-1)
REM options -cpp -mtune=generic -march=x86-64 -g -O0 -fpre-include=/usr/include/finclude/math-vector-fortran.h
REM seed 8606045 -1052058281 1333920025 1638274715 1712856884 1585832851 -854801620 1470688814 2061349335 1611321546 1372457382 1089677515 566915616 -1649977803 -799270335 925440726 499747379 1525847091 -2085183871 -731021764 -108110212 1269889539 -1322114948 -677392014 88446240 -334004231 1646226871 1457154534 -235444577 1281319118 337637919 -179851182 -979689871
REM
CELL 1.54180   50.00000   50.00000   50.00000   90.00000   90.00000   90.00000
LATT -1
SFAC C  
C      1  0.4171510000000  0.5621780000000  0.4948970000000 1.0
C      1  0.5755930000000  0.5605290000000  0.5096920000000 1.0
C      1  0.4228690000000  0.4333160000000  0.4894140000000 1.0
C      1  0.5789520000000  0.4349520000000  0.5088740000000 1.0
C      1  0.4390150000000  0.4043640000000  0.5571700000000 1.0
C      1  0.5636940000000  0.4058260000000  0.4561260000000 1.0
C      1  0.4302460000000  0.5911740000000  0.5429210000000 1.0
C      1  0.5704570000000  0.5908610000000  0.4574950000000 1.0
C      1  0.4574160000000  0.3842190000000  0.5164940000000 1.0
C      1  0.5364420000000  0.3782580000000  0.4835880000000 1.0
C      1  0.4564770000000  0.6146670000000  0.5119530000000 1.0
C      1  0.5397940000000  0.6158670000000  0.4839600000000 1.0
C      1  0.5196190000000  0.6036640000000  0.4429350000000 1.0
C      1  0.4815210000000  0.6055370000000  0.5536080000000 1.0
C      1  0.5116560000000  0.3953020000000  0.4446690000000 1.0
C      1  0.4892340000000  0.3958230000000  0.5540130000000 1.0
C      1  0.4094680000000  0.4861190000000  0.5401720000000 1.0
C      1  0.5891700000000  0.4867550000000  0.4521240000000 1.0
C      1  0.4153690000000  0.5129920000000  0.5462990000000 1.0
C      1  0.5790810000000  0.5127980000000  0.4576590000000 1.0
C      1  0.4914180000000  0.5174800000000  0.3915350000000 1.0
C      1  0.5027810000000  0.5195430000000  0.6194410000000 1.0
C      1  0.4902010000000  0.4897340000000  0.3835520000000 1.0
C      1  0.5046410000000  0.4904500000000  0.6206280000000 1.0
C      1  0.5131430000000  0.4735960000000  0.3909450000000 1.0
C      1  0.4848530000000  0.4747050000000  0.6052560000000 1.0
C      1  0.5170790000000  0.5307780000000  0.3915420000000 1.0
C      1  0.4812540000000  0.5329150000000  0.6041960000000 1.0
C      1  0.4084990000000  0.5136980000000  0.4495090000000 1.0
C      1  0.5869280000000  0.5120810000000  0.5495820000000 1.0
C      1  0.4111490000000  0.4835990000000  0.4491190000000 1.0
C      1  0.5911040000000  0.4835240000000  0.5546840000000 1.0
C      1  0.4226000000000  0.4254820000000  0.5652190000000 1.0
C      1  0.5765850000000  0.4228610000000  0.4364240000000 1.0
C      1  0.4161780000000  0.5747990000000  0.5618730000000 1.0
C      1  0.5833800000000  0.5731430000000  0.4391660000000 1.0
C      1  0.5442540000000  0.5566180000000  0.4493240000000 1.0
C      1  0.4534620000000  0.5550790000000  0.5505770000000 1.0
C      1  0.5408540000000  0.4424650000000  0.4520150000000 1.0
C      1  0.4599150000000  0.4415520000000  0.5490510000000 1.0
C      1  0.5774250000000  0.4271190000000  0.5596550000000 1.0
C      1  0.4273070000000  0.4245120000000  0.4398270000000 1.0
C      1  0.5651560000000  0.5750750000000  0.5544420000000 1.0
C      1  0.4384050000000  0.5777720000000  0.4491460000000 1.0
C      1  0.5103270000000  0.5825460000000  0.4209020000000 1.0
C      1  0.4873070000000  0.5844770000000  0.5767850000000 1.0
C      1  0.5055090000000  0.4175120000000  0.4232460000000 1.0
C      1  0.4978320000000  0.4182250000000  0.5734670000000 1.0
C      1  0.5926970000000  0.5121390000000  0.5208820000000 1.0
C      1  0.4051960000000  0.5128930000000  0.4818020000000 1.0
C      1  0.5940970000000  0.4829290000000  0.5164460000000 1.0
C      1  0.4085070000000  0.4821140000000  0.4804400000000 1.0
C      1  0.5341500000000  0.5575640000000  0.5825450000000 1.0
C      1  0.4628980000000  0.5575960000000  0.4129190000000 1.0
C      1  0.5404450000000  0.4446200000000  0.5860110000000 1.0
C      1  0.4612280000000  0.4445130000000  0.4120140000000 1.0
C      1  0.5720980000000  0.4439080000000  0.5838010000000 1.0
C      1  0.4305470000000  0.4438080000000  0.4174010000000 1.0
C      1  0.5707620000000  0.5571080000000  0.5765700000000 1.0
C      1  0.4348330000000  0.5602880000000  0.4253230000000 1.0
C      1  0.4503490000000  0.3880950000000  0.4888680000000 1.0
C      1  0.5482480000000  0.3939370000000  0.5040240000000 1.0
C      1  0.4608840000000  0.6181920000000  0.4857080000000 1.0
C      1  0.5460430000000  0.6078660000000  0.5095820000000 1.0
C      1  0.5149010000000  0.5593230000000  0.4397590000000 1.0
C      1  0.4831370000000  0.5596960000000  0.5601200000000 1.0
C      1  0.5116240000000  0.4416450000000  0.4408370000000 1.0
C      1  0.4896490000000  0.4417450000000  0.5560770000000 1.0
C      1  0.5096430000000  0.5303700000000  0.4291750000000 1.0
C      1  0.4873520000000  0.5309410000000  0.5747140000000 1.0
C      1  0.5087740000000  0.4714700000000  0.4287280000000 1.0
C      1  0.4900990000000  0.4724030000000  0.5678950000000 1.0
C      1  0.5961360000000  0.5314880000000  0.4717540000000 1.0
C      1  0.3991890000000  0.5330660000000  0.5324900000000 1.0
C      1  0.5922540000000  0.4630880000000  0.4675170000000 1.0
C      1  0.4055080000000  0.4614880000000  0.5279310000000 1.0
C      1  0.5391240000000  0.5549000000000  0.4798990000000 1.0
C      1  0.4577870000000  0.5510570000000  0.5207350000000 1.0
C      1  0.5387390000000  0.4420960000000  0.4835190000000 1.0
C      1  0.4591280000000  0.4391910000000  0.5182450000000 1.0
C      1  0.5524460000000  0.4672200000000  0.4942900000000 1.0
C      1  0.4477350000000  0.4660260000000  0.5084040000000 1.0
C      1  0.5489650000000  0.5265400000000  0.4857840000000 1.0
C      1  0.4411550000000  0.5262000000000  0.5128330000000 1.0
C      1  0.4660960000000  0.5139620000000  0.5633150000000 1.0
C      1  0.5324380000000  0.5137420000000  0.4380920000000 1.0
C      1  0.4737550000000  0.4907670000000  0.5484480000000 1.0
C      1  0.5297300000000  0.4859200000000  0.4451840000000 1.0
C      1  0.5451710000000  0.6047070000000  0.4589300000000 1.0
C      1  0.4548720000000  0.6057580000000  0.5384910000000 1.0
C      1  0.5390700000000  0.3895780000000  0.4575590000000 1.0
C      1  0.4615240000000  0.3978020000000  0.5419760000000 1.0
C      1  0.5030990000000  0.5704700000000  0.5377820000000 1.0
C      1  0.4959230000000  0.5708740000000  0.4625210000000 1.0
C      1  0.5045870000000  0.4308630000000  0.5312640000000 1.0
C      1  0.4935420000000  0.4327150000000  0.4631730000000 1.0
C      1  0.4331510000000  0.5642070000000  0.5829040000000 1.0
C      1  0.5660510000000  0.5636180000000  0.4175730000000 1.0
C      1  0.4386860000000  0.4424530000000  0.5817370000000 1.0
C      1  0.5583220000000  0.4359200000000  0.4173730000000 1.0
C      1  0.5429300000000  0.5166220000000  0.3951980000000 1.0
C      1  0.4539340000000  0.5199870000000  0.6054980000000 1.0
C      1  0.5388890000000  0.4850280000000  0.3992580000000 1.0
C      1  0.4591770000000  0.4860540000000  0.5966820000000 1.0
C      1  0.4743010000000  0.4189930000000  0.4198060000000 1.0
C      1  0.5287040000000  0.4192090000000  0.5761690000000 1.0
C      1  0.4799250000000  0.5832390000000  0.4178700000000 1.0
C      1  0.5164580000000  0.5818990000000  0.5834370000000 1.0
C      1  0.5363620000000  0.3933770000000  0.5318070000000 1.0
C      1  0.4660630000000  0.3916590000000  0.4645460000000 1.0
C      1  0.5297950000000  0.6096020000000  0.5333300000000 1.0
C      1  0.4750450000000  0.6131250000000  0.4625100000000 1.0
C      1  0.4414750000000  0.4706070000000  0.5770610000000 1.0
C      1  0.5588490000000  0.4659310000000  0.4136180000000 1.0
C      1  0.4331170000000  0.5349800000000  0.5883910000000 1.0
C      1  0.5647500000000  0.5336460000000  0.4121730000000 1.0
C      1  0.4091370000000  0.4394410000000  0.5448000000000 1.0
C      1  0.5929000000000  0.4405110000000  0.4510430000000 1.0
C      1  0.3996970000000  0.5562470000000  0.5484890000000 1.0
C      1  0.5967240000000  0.5537200000000  0.4545810000000 1.0
C      1  0.5400270000000  0.4817980000000  0.5172810000000 1.0
C      1  0.4626120000000  0.4774610000000  0.4847150000000 1.0
C      1  0.5493760000000  0.5125550000000  0.5158070000000 1.0
C      1  0.4534170000000  0.5129330000000  0.4892980000000 1.0
C      1  0.5593380000000  0.4192370000000  0.4914650000000 1.0
C      1  0.4389320000000  0.4180000000000  0.5095860000000 1.0
C      1  0.5578950000000  0.5765940000000  0.4912050000000 1.0
C      1  0.4418110000000  0.5747590000000  0.5098780000000 1.0
C      1  0.4635470000000  0.5316540000000  0.4422140000000 1.0
C      1  0.5364440000000  0.5301580000000  0.5686220000000 1.0
C      1  0.4602550000000  0.4730580000000  0.4335480000000 1.0
C      1  0.5391520000000  0.4711770000000  0.5679770000000 1.0
C      1  0.5561730000000  0.5169840000000  0.5883300000000 1.0
C      1  0.4428660000000  0.5152190000000  0.4076690000000 1.0
C      1  0.5568760000000  0.4858480000000  0.5879030000000 1.0
C      1  0.4456120000000  0.4857900000000  0.4068770000000 1.0
C      1  0.4976040000000  0.4721850000000  0.4880100000000 1.0
C      1  0.5092090000000  0.4800620000000  0.5150040000000 1.0
C      1  0.4993170000000  0.5253770000000  0.4780990000000 1.0
C      1  0.5093750000000  0.5281230000000  0.5284670000000 1.0
C      1  0.5846660000000  0.5333760000000  0.5001570000000 1.0
C      1  0.4132660000000  0.5338790000000  0.5051710000000 1.0
C      1  0.5816710000000  0.4628050000000  0.4965190000000 1.0
C      1  0.4188550000000  0.4609830000000  0.5010330000000 1.0
C      1  0.5864110000000  0.5330030000000  0.5702150000000 1.0
C      1  0.4268350000000  0.5300060000000  0.4290520000000 1.0
C      1  0.5834020000000  0.4730170000000  0.5811960000000 1.0
C      1  0.4156720000000  0.4692250000000  0.4232900000000 1.0
C      1  0.4659150000000  0.5897260000000  0.4447580000000 1.0
C      1  0.5389020000000  0.5901180000000  0.5541420000000 1.0
C      1  0.4550930000000  0.4087810000000  0.4418700000000 1.0
C      1  0.5482670000000  0.4106840000000  0.5541170000000 1.0
C      1  0.5231660000000  0.5101710000000  0.4865120000000 1.0
C      1  0.4808590000000  0.5148990000000  0.4975420000000 1.0
C      1  0.5193440000000  0.4857520000000  0.4721540000000 1.0
C      1  0.4929270000000  0.5029830000000  0.5229170000000 1.0
C      1  0.5556290000000  0.4700650000000  0.4435070000000 1.0
C      1  0.4497690000000  0.4724570000000  0.5473280000000 1.0
C      1  0.5572210000000  0.5273020000000  0.4408790000000 1.0
C      1  0.4403120000000  0.5267820000000  0.5605230000000 1.0
C      1  0.4945530000000  0.5522460000000  0.5165530000000 1.0
C      1  0.5070750000000  0.5545070000000  0.4855400000000 1.0
C      1  0.4874330000000  0.4331830000000  0.5088580000000 1.0
C      1  0.5038980000000  0.4437920000000  0.4871960000000 1.0
C      1  0.4660450000000  0.5309320000000  0.3982900000000 1.0
C      1  0.5404280000000  0.5159540000000  0.6148390000000 1.0
C      1  0.4640640000000  0.4790810000000  0.3851820000000 1.0
C      1  0.5337970000000  0.4877200000000  0.6189370000000 1.0
C      1  0.5124520000000  0.5152150000000  0.5708630000000 1.0
C      1  0.4886830000000  0.5168150000000  0.4465490000000 1.0
C      1  0.5146000000000  0.4866230000000  0.5655780000000 1.0
C      1  0.4854760000000  0.4869090000000  0.4383520000000 1.0
C      1  0.5075260000000  0.4003090000000  0.5304460000000 1.0
C      1  0.4931440000000  0.4029030000000  0.4671180000000 1.0
C      1  0.5019740000000  0.5993100000000  0.5314530000000 1.0
C      1  0.5016940000000  0.6010540000000  0.4668490000000 1.0
C      1  0.4486390000000  0.5330380000000  0.4672250000000 1.0
C      1  0.5387390000000  0.5327170000000  0.5366780000000 1.0
C      1  0.4495200000000  0.4650340000000  0.4606130000000 1.0
C      1  0.5520630000000  0.4675200000000  0.5410540000000 1.0
C      1  0.5528140000000  0.5611330000000  0.5305360000000 1.0
C      1  0.4392650000000  0.5605960000000  0.4736020000000 1.0
C      1  0.5647550000000  0.4404210000000  0.5353480000000 1.0
C      1  0.4399920000000  0.4367040000000  0.4647000000000 1.0
END
