TITL C-3578203-1966-319 -3.79551844044584e-07 125000 -370.655511983781 0 0 63 (C1) n - 1
REM
REM in /home/bkarasulu/work/CARBON/AIRSS/Generating-Clusters/EDIP-Nigel-Params/with-SteepDescent/Higher-Symm/SD-CG/HFTN-CG
REM
REM
REM
REM
REM
REM ./C.cell (12c818d87b63d06a65506943cc24bca4)
REM
REM compiler GCC version 9.2.1 20190827 (Red Hat 9.2.1-1)
REM options -cpp -mtune=generic -march=x86-64 -g -O0 -fpre-include=/usr/include/finclude/math-vector-fortran.h
REM seed -343254613 209636532 1522099595 -851301995 2031640417 338896007 1593404627 766553148 1480735035 -1226100434 -1104673273 -1650602430 -963310431 -245030658 262738350 2120921752 -1963374022 -1110381075 1031675315 -1034390116 -1986992146 2041202770 -2094623514 -91777444 -844630921 1686968788 654581577 553644936 1996736773 198493355 1234821577 680689226 985505905
REM
CELL 1.54180   50.00000   50.00000   50.00000   90.00000   90.00000   90.00000
LATT -1
SFAC C  
C      1  0.4614930000000  0.4443740000000  0.5332450000000 1.0
C      1  0.4652480000000  0.4380150000000  0.5042640000000 1.0
C      1  0.4554070000000  0.4561240000000  0.4827670000000 1.0
C      1  0.4749040000000  0.4560980000000  0.4603040000000 1.0
C      1  0.4972530000000  0.4376710000000  0.4667440000000 1.0
C      1  0.5253220000000  0.4434560000000  0.4582210000000 1.0
C      1  0.5428000000000  0.4345410000000  0.4787600000000 1.0
C      1  0.5465810000000  0.4429390000000  0.5056760000000 1.0
C      1  0.5281010000000  0.4282140000000  0.5250940000000 1.0
C      1  0.5126650000000  0.4429460000000  0.5469210000000 1.0
C      1  0.4850040000000  0.4358710000000  0.5469580000000 1.0
C      1  0.5265390000000  0.5206730000000  0.4526330000000 1.0
C      1  0.5462710000000  0.5365670000000  0.4706020000000 1.0
C      1  0.5467080000000  0.5355270000000  0.4997270000000 1.0
C      1  0.5349160000000  0.5358820000000  0.5360480000000 1.0
C      1  0.5146970000000  0.5253650000000  0.5539170000000 1.0
C      1  0.4854260000000  0.5301140000000  0.5512790000000 1.0
C      1  0.4595140000000  0.5216640000000  0.5340230000000 1.0
C      1  0.4431010000000  0.5317350000000  0.5116070000000 1.0
C      1  0.4530150000000  0.5331640000000  0.4839190000000 1.0
C      1  0.4770830000000  0.5329500000000  0.4537850000000 1.0
C      1  0.5023450000000  0.5303460000000  0.4390690000000 1.0
C      1  0.4835380000000  0.4863390000000  0.5446370000000 1.0
C      1  0.4557950000000  0.4742000000000  0.5376080000000 1.0
C      1  0.4371690000000  0.4881550000000  0.5154190000000 1.0
C      1  0.4350250000000  0.4757640000000  0.4887490000000 1.0
C      1  0.4775770000000  0.4747200000000  0.4384580000000 1.0
C      1  0.5045460000000  0.4863040000000  0.4355060000000 1.0
C      1  0.5292450000000  0.4731060000000  0.4516800000000 1.0
C      1  0.5395120000000  0.4864880000000  0.4778110000000 1.0
C      1  0.5484810000000  0.4734190000000  0.5075630000000 1.0
C      1  0.5400620000000  0.4841820000000  0.5343920000000 1.0
C      1  0.5161890000000  0.4731620000000  0.5490810000000 1.0
C      1  0.4723880000000  0.5161610000000  0.5757570000000 1.0
C      1  0.4463860000000  0.5112970000000  0.5603350000000 1.0
C      1  0.4163780000000  0.5218030000000  0.5139840000000 1.0
C      1  0.4358110000000  0.5205490000000  0.4639950000000 1.0
C      1  0.4540060000000  0.5200580000000  0.4416090000000 1.0
C      1  0.4999970000000  0.5183750000000  0.4131110000000 1.0
C      1  0.5506000000000  0.5089980000000  0.4363170000000 1.0
C      1  0.5700530000000  0.5190950000000  0.4585840000000 1.0
C      1  0.5703810000000  0.5236720000000  0.5121010000000 1.0
C      1  0.5609990000000  0.5231530000000  0.5397600000000 1.0
C      1  0.5233240000000  0.5142390000000  0.5785050000000 1.0
C      1  0.5601540000000  0.4966910000000  0.5496620000000 1.0
C      1  0.5134950000000  0.4875540000000  0.5774990000000 1.0
C      1  0.4838160000000  0.4886210000000  0.5750680000000 1.0
C      1  0.4404910000000  0.4826260000000  0.5615890000000 1.0
C      1  0.4111850000000  0.4971810000000  0.5255410000000 1.0
C      1  0.4275280000000  0.4941410000000  0.4691180000000 1.0
C      1  0.4573060000000  0.4932840000000  0.4335720000000 1.0
C      1  0.5106740000000  0.4933610000000  0.4077380000000 1.0
C      1  0.5513180000000  0.4800480000000  0.4332930000000 1.0
C      1  0.5688480000000  0.4935770000000  0.4746700000000 1.0
C      1  0.5778250000000  0.4971530000000  0.5022160000000 1.0
C      1  0.4984230000000  0.4881830000000  0.5032590000000 1.0
C      1  0.5062670000000  0.4621160000000  0.5063200000000 1.0
C      1  0.4945650000000  0.5414090000000  0.4977050000000 1.0
C      1  0.4961250000000  0.5144430000000  0.4977900000000 1.0
C      1  0.5091120000000  0.4131780000000  0.5094260000000 1.0
C      1  0.4947780000000  0.4363190000000  0.4970150000000 1.0
C      1  0.4989190000000  0.5675050000000  0.5014030000000 1.0
C      1  0.5002390000000  0.5929730000000  0.5034820000000 1.0
END
