TITL C-3578194-7807-584 -3.49399328940463e-06 125000 -800.306179998343 0 0 128 (C1) n - 1
REM
REM in /home/bkarasulu/work/CARBON/AIRSS/Generating-Clusters/EDIP-Nigel-Params/with-SteepDescent/Higher-Symm/SD-CG/HFTN-CG
REM
REM
REM
REM
REM
REM ./C.cell (12c818d87b63d06a65506943cc24bca4)
REM
REM compiler GCC version 9.2.1 20190827 (Red Hat 9.2.1-1)
REM options -cpp -mtune=generic -march=x86-64 -g -O0 -fpre-include=/usr/include/finclude/math-vector-fortran.h
REM seed 440205593 -298844487 -1684262788 -334090326 1234745294 1254244577 1122729850 1714771965 -900566342 918808478 -315732772 1997776076 705557438 1674662624 -1484175202 -1467302058 1002130160 -2044056678 -879386868 -863625106 -1250535690 -459183868 1583648 122252959 -150807564 -291980679 -644368914 957606036 -308581356 396141807 1041737411 2091520769 1295067277
REM
CELL 1.54180   50.00000   50.00000   50.00000   90.00000   90.00000   90.00000
LATT -1
SFAC C  
C      1  0.5152050000000  0.5654250000000  0.4389220000000 1.0
C      1  0.5579880000000  0.5434720000000  0.4287410000000 1.0
C      1  0.5684420000000  0.4984440000000  0.4389320000000 1.0
C      1  0.5511620000000  0.4515090000000  0.4369150000000 1.0
C      1  0.5103360000000  0.4309460000000  0.4318360000000 1.0
C      1  0.4705560000000  0.4524000000000  0.4494000000000 1.0
C      1  0.4339780000000  0.4799920000000  0.4326870000000 1.0
C      1  0.4399170000000  0.5251010000000  0.4464960000000 1.0
C      1  0.4687580000000  0.5636900000000  0.4390480000000 1.0
C      1  0.4609860000000  0.4891900000000  0.4205770000000 1.0
C      1  0.4641530000000  0.5163820000000  0.4324190000000 1.0
C      1  0.4799000000000  0.5391200000000  0.4216130000000 1.0
C      1  0.5091740000000  0.5384320000000  0.4299060000000 1.0
C      1  0.5342180000000  0.5260230000000  0.4173900000000 1.0
C      1  0.5422570000000  0.4984620000000  0.4273920000000 1.0
C      1  0.5325890000000  0.4716760000000  0.4273450000000 1.0
C      1  0.5069850000000  0.4592190000000  0.4182990000000 1.0
C      1  0.4827700000000  0.4714250000000  0.4312540000000 1.0
C      1  0.4956520000000  0.4143130000000  0.5661140000000 1.0
C      1  0.4490660000000  0.4361760000000  0.5609420000000 1.0
C      1  0.4237720000000  0.4807970000000  0.5525150000000 1.0
C      1  0.4298500000000  0.5551400000000  0.5533960000000 1.0
C      1  0.4736980000000  0.5801890000000  0.5574320000000 1.0
C      1  0.5275610000000  0.5766590000000  0.5620940000000 1.0
C      1  0.5702360000000  0.5443070000000  0.5570470000000 1.0
C      1  0.5838460000000  0.4721330000000  0.5508280000000 1.0
C      1  0.5541210000000  0.4336050000000  0.5591010000000 1.0
C      1  0.5130310000000  0.4633460000000  0.6138450000000 1.0
C      1  0.4866550000000  0.4690020000000  0.6212000000000 1.0
C      1  0.4646590000000  0.4826170000000  0.6107310000000 1.0
C      1  0.4602650000000  0.5086330000000  0.6192730000000 1.0
C      1  0.4717450000000  0.5318630000000  0.6092320000000 1.0
C      1  0.4975970000000  0.5359600000000  0.6190170000000 1.0
C      1  0.5235220000000  0.5288340000000  0.6116470000000 1.0
C      1  0.5346400000000  0.5070060000000  0.6244790000000 1.0
C      1  0.5313840000000  0.4804490000000  0.6256110000000 1.0
C      1  0.5593390000000  0.4561500000000  0.5210130000000 1.0
C      1  0.5188180000000  0.4293460000000  0.5334140000000 1.0
C      1  0.4744700000000  0.4223470000000  0.5185550000000 1.0
C      1  0.4359990000000  0.4519540000000  0.5151780000000 1.0
C      1  0.4314760000000  0.5184150000000  0.5242940000000 1.0
C      1  0.4591930000000  0.5667460000000  0.5240560000000 1.0
C      1  0.5096750000000  0.5745900000000  0.5053490000000 1.0
C      1  0.5461480000000  0.5566900000000  0.5219100000000 1.0
C      1  0.5693760000000  0.5084100000000  0.5248360000000 1.0
C      1  0.5453320000000  0.5545170000000  0.5731980000000 1.0
C      1  0.5655810000000  0.5154630000000  0.5543870000000 1.0
C      1  0.5612420000000  0.4617120000000  0.5644380000000 1.0
C      1  0.5241590000000  0.4307220000000  0.5720850000000 1.0
C      1  0.4765180000000  0.4362770000000  0.5723790000000 1.0
C      1  0.4407610000000  0.4638000000000  0.5697100000000 1.0
C      1  0.4350900000000  0.5076290000000  0.5523400000000 1.0
C      1  0.4544910000000  0.5586140000000  0.5671010000000 1.0
C      1  0.4997620000000  0.5675320000000  0.5649740000000 1.0
C      1  0.4377710000000  0.5524470000000  0.4807470000000 1.0
C      1  0.4862000000000  0.5965360000000  0.4721760000000 1.0
C      1  0.5427920000000  0.5524580000000  0.4716830000000 1.0
C      1  0.5679170000000  0.5304650000000  0.4779400000000 1.0
C      1  0.5756510000000  0.4760600000000  0.4758450000000 1.0
C      1  0.5413700000000  0.4313750000000  0.4852730000000 1.0
C      1  0.4920450000000  0.4214840000000  0.4760580000000 1.0
C      1  0.4329490000000  0.4586690000000  0.4714610000000 1.0
C      1  0.4146520000000  0.4974940000000  0.4801550000000 1.0
C      1  0.5388460000000  0.4780550000000  0.5735130000000 1.0
C      1  0.5162080000000  0.4600940000000  0.5838900000000 1.0
C      1  0.4881530000000  0.4635410000000  0.5724040000000 1.0
C      1  0.4640630000000  0.4805320000000  0.5809540000000 1.0
C      1  0.4604780000000  0.5077950000000  0.5672940000000 1.0
C      1  0.4705490000000  0.5339560000000  0.5789440000000 1.0
C      1  0.4994060000000  0.5392610000000  0.5706670000000 1.0
C      1  0.5270630000000  0.5310040000000  0.5818950000000 1.0
C      1  0.5410930000000  0.5068470000000  0.5687780000000 1.0
C      1  0.5389880000000  0.5717950000000  0.4931410000000 1.0
C      1  0.5816530000000  0.5309400000000  0.5081130000000 1.0
C      1  0.5825370000000  0.4642900000000  0.5019420000000 1.0
C      1  0.5398590000000  0.4177960000000  0.5121010000000 1.0
C      1  0.4725780000000  0.4090470000000  0.4927210000000 1.0
C      1  0.4253360000000  0.4397820000000  0.4906890000000 1.0
C      1  0.4144680000000  0.4981800000000  0.5087530000000 1.0
C      1  0.4333880000000  0.5641590000000  0.5071810000000 1.0
C      1  0.4913040000000  0.5967960000000  0.4996840000000 1.0
C      1  0.4910290000000  0.5770260000000  0.4525440000000 1.0
C      1  0.5446810000000  0.5652830000000  0.4449330000000 1.0
C      1  0.5755700000000  0.5260410000000  0.4473870000000 1.0
C      1  0.5767380000000  0.4621010000000  0.4491580000000 1.0
C      1  0.5359200000000  0.4289960000000  0.4477590000000 1.0
C      1  0.4856730000000  0.4255950000000  0.4480160000000 1.0
C      1  0.4334990000000  0.4526950000000  0.4432980000000 1.0
C      1  0.4245590000000  0.5007540000000  0.4533090000000 1.0
C      1  0.4428230000000  0.5628330000000  0.4537780000000 1.0
C      1  0.5335450000000  0.5014910000000  0.3751260000000 1.0
C      1  0.5245300000000  0.4762190000000  0.3758310000000 1.0
C      1  0.5042010000000  0.4618470000000  0.3881690000000 1.0
C      1  0.4789710000000  0.4708840000000  0.3806340000000 1.0
C      1  0.4619200000000  0.4903340000000  0.3907880000000 1.0
C      1  0.4650930000000  0.5164240000000  0.3816920000000 1.0
C      1  0.4797280000000  0.5381100000000  0.3912440000000 1.0
C      1  0.5057810000000  0.5388530000000  0.3811490000000 1.0
C      1  0.5297350000000  0.5259950000000  0.3875650000000 1.0
C      1  0.5883960000000  0.4842510000000  0.5250360000000 1.0
C      1  0.5624270000000  0.4262630000000  0.5303380000000 1.0
C      1  0.4954460000000  0.4094500000000  0.5360780000000 1.0
C      1  0.4473900000000  0.4294470000000  0.5319150000000 1.0
C      1  0.4162850000000  0.4727940000000  0.5251640000000 1.0
C      1  0.4204690000000  0.5465750000000  0.5277830000000 1.0
C      1  0.4718760000000  0.5934450000000  0.5210410000000 1.0
C      1  0.5332370000000  0.5816070000000  0.5347190000000 1.0
C      1  0.5753380000000  0.5531430000000  0.5274480000000 1.0
C      1  0.4862380000000  0.4497020000000  0.5101910000000 1.0
C      1  0.4630230000000  0.4680010000000  0.5077210000000 1.0
C      1  0.4590760000000  0.5196480000000  0.5107280000000 1.0
C      1  0.4750860000000  0.5420970000000  0.5217810000000 1.0
C      1  0.5018320000000  0.5442310000000  0.5102250000000 1.0
C      1  0.5266540000000  0.5315930000000  0.5236480000000 1.0
C      1  0.5399590000000  0.5051290000000  0.5131140000000 1.0
C      1  0.5322580000000  0.4697810000000  0.5131790000000 1.0
C      1  0.5094440000000  0.4573840000000  0.5277540000000 1.0
C      1  0.4697400000000  0.5344440000000  0.4717870000000 1.0
C      1  0.4981000000000  0.5278130000000  0.4855630000000 1.0
C      1  0.5229820000000  0.5283540000000  0.4706420000000 1.0
C      1  0.5432010000000  0.5093450000000  0.4828060000000 1.0
C      1  0.5453630000000  0.4819380000000  0.4682390000000 1.0
C      1  0.5279040000000  0.4582760000000  0.4849670000000 1.0
C      1  0.4980410000000  0.4494830000000  0.4831190000000 1.0
C      1  0.4596810000000  0.4709620000000  0.4777720000000 1.0
C      1  0.4634140000000  0.5023970000000  0.4739690000000 1.0
C      1  0.4944340000000  0.4994200000000  0.4938910000000 1.0
C      1  0.4748130000000  0.4946660000000  0.5153380000000 1.0
END
