TITL C-3578195-8548-617 1.35491858357405e-07 125000 -413.03545739757 0 0 68 (C1) n - 1
REM
REM in /home/bkarasulu/work/CARBON/AIRSS/Generating-Clusters/EDIP-Nigel-Params/with-SteepDescent/Higher-Symm/SD-CG/HFTN-CG
REM
REM
REM
REM
REM
REM ./C.cell (12c818d87b63d06a65506943cc24bca4)
REM
REM compiler GCC version 9.2.1 20190827 (Red Hat 9.2.1-1)
REM options -cpp -mtune=generic -march=x86-64 -g -O0 -fpre-include=/usr/include/finclude/math-vector-fortran.h
REM seed -121699928 1793406165 -471710874 -1461574949 1898028477 -720626606 -1586999762 -1312737528 -1259636484 600157835 -885966188 310756287 630865574 -1183485021 712849472 1229153779 886953962 -467238132 1488819444 1444011348 -516471338 -359595869 -186770195 -2121478827 -930669102 -593846252 1717864799 -772032487 -1565249 1581294241 1375482872 -912026848 564260545
REM
CELL 1.54180   50.00000   50.00000   50.00000   90.00000   90.00000   90.00000
LATT -1
SFAC C  
C      1  0.4820610000000  0.4397980000000  0.5473570000000 1.0
C      1  0.4515350000000  0.4442360000000  0.4996290000000 1.0
C      1  0.4825020000000  0.4416210000000  0.4531670000000 1.0
C      1  0.5386580000000  0.4421750000000  0.4717490000000 1.0
C      1  0.5452810000000  0.4372740000000  0.5300210000000 1.0
C      1  0.5239050000000  0.5408700000000  0.5394640000000 1.0
C      1  0.4692740000000  0.5419550000000  0.5351680000000 1.0
C      1  0.4545940000000  0.5433740000000  0.4811850000000 1.0
C      1  0.5022890000000  0.5434560000000  0.4520950000000 1.0
C      1  0.5460700000000  0.5428060000000  0.4886110000000 1.0
C      1  0.5752010000000  0.5329640000000  0.4879410000000 1.0
C      1  0.5341880000000  0.5299830000000  0.5660340000000 1.0
C      1  0.4450660000000  0.5337010000000  0.5527520000000 1.0
C      1  0.4308120000000  0.5335070000000  0.4640730000000 1.0
C      1  0.5119190000000  0.5334980000000  0.4243830000000 1.0
C      1  0.5547500000000  0.4881030000000  0.4748640000000 1.0
C      1  0.5411300000000  0.4854310000000  0.5403230000000 1.0
C      1  0.4664980000000  0.4841260000000  0.5568270000000 1.0
C      1  0.4408410000000  0.4893890000000  0.4892850000000 1.0
C      1  0.4890500000000  0.4881380000000  0.4388930000000 1.0
C      1  0.5249740000000  0.4603280000000  0.5355360000000 1.0
C      1  0.4596440000000  0.4585570000000  0.5458250000000 1.0
C      1  0.4590510000000  0.4666930000000  0.4816540000000 1.0
C      1  0.5003500000000  0.4663300000000  0.4556240000000 1.0
C      1  0.5487200000000  0.4638390000000  0.4903680000000 1.0
C      1  0.4400300000000  0.5044440000000  0.4394420000000 1.0
C      1  0.5376300000000  0.5040790000000  0.4269990000000 1.0
C      1  0.5819740000000  0.5046630000000  0.5144180000000 1.0
C      1  0.5104760000000  0.5018690000000  0.5798250000000 1.0
C      1  0.4236180000000  0.5047930000000  0.5372640000000 1.0
C      1  0.5061900000000  0.5028020000000  0.4200960000000 1.0
C      1  0.5779800000000  0.5031230000000  0.4830500000000 1.0
C      1  0.5388620000000  0.4996540000000  0.5658460000000 1.0
C      1  0.4450260000000  0.5033960000000  0.5609270000000 1.0
C      1  0.4259800000000  0.5030330000000  0.4681350000000 1.0
C      1  0.5172640000000  0.4324440000000  0.4906390000000 1.0
C      1  0.5299300000000  0.4169170000000  0.5135350000000 1.0
C      1  0.4875320000000  0.4201480000000  0.5261930000000 1.0
C      1  0.4719010000000  0.4226790000000  0.5010050000000 1.0
C      1  0.4902010000000  0.4234460000000  0.4771270000000 1.0
C      1  0.4539470000000  0.5355800000000  0.5096670000000 1.0
C      1  0.4746410000000  0.5361820000000  0.4596880000000 1.0
C      1  0.5293490000000  0.5365820000000  0.4648490000000 1.0
C      1  0.5425010000000  0.5349850000000  0.5173670000000 1.0
C      1  0.4954460000000  0.5336430000000  0.5453000000000 1.0
C      1  0.4560410000000  0.4574360000000  0.4528900000000 1.0
C      1  0.5290010000000  0.4589410000000  0.4492320000000 1.0
C      1  0.5648240000000  0.4552130000000  0.5142130000000 1.0
C      1  0.5048600000000  0.4550290000000  0.5585020000000 1.0
C      1  0.4401420000000  0.4567460000000  0.5241350000000 1.0
C      1  0.4970450000000  0.5281410000000  0.5736360000000 1.0
C      1  0.4275890000000  0.5323650000000  0.5233890000000 1.0
C      1  0.4547840000000  0.5317140000000  0.4382180000000 1.0
C      1  0.5431170000000  0.5321260000000  0.4389210000000 1.0
C      1  0.5700140000000  0.5302150000000  0.5253430000000 1.0
C      1  0.5677760000000  0.4810050000000  0.5288280000000 1.0
C      1  0.4924720000000  0.4797730000000  0.5697150000000 1.0
C      1  0.4290320000000  0.4833010000000  0.5157630000000 1.0
C      1  0.4604110000000  0.4817480000000  0.4357440000000 1.0
C      1  0.5460150000000  0.4829620000000  0.4474710000000 1.0
C      1  0.5062200000000  0.6028430000000  0.5096760000000 1.0
C      1  0.4929440000000  0.4755040000000  0.4852960000000 1.0
C      1  0.5025090000000  0.5780590000000  0.5043710000000 1.0
C      1  0.4962240000000  0.5034790000000  0.4895640000000 1.0
C      1  0.4956620000000  0.5537070000000  0.4948330000000 1.0
C      1  0.5015450000000  0.5273190000000  0.5017010000000 1.0
C      1  0.5123610000000  0.4599230000000  0.5041340000000 1.0
C      1  0.5101530000000  0.4032050000000  0.5278490000000 1.0
END
