TITL C-3578199-7832-520 6.41575821427308e-07 125000 -710.918575742779 0 0 115 (C1) n - 1
REM
REM in /home/bkarasulu/work/CARBON/AIRSS/Generating-Clusters/EDIP-Nigel-Params/with-SteepDescent/Higher-Symm/SD-CG/HFTN-CG
REM
REM
REM
REM
REM
REM ./C.cell (12c818d87b63d06a65506943cc24bca4)
REM
REM compiler GCC version 9.2.1 20190827 (Red Hat 9.2.1-1)
REM options -cpp -mtune=generic -march=x86-64 -g -O0 -fpre-include=/usr/include/finclude/math-vector-fortran.h
REM seed -585710542 838438352 1445980705 701671848 76967429 -517746958 1957031947 1018785731 913629005 -1837988049 1093982230 396262502 -335504353 1605948882 -1983031129 -1334256628 -468504031 -923003055 -1499795256 1762703087 -1800721617 -2104234255 -1841579376 1513634514 550106446 434021773 821966526 -432626146 1857595220 -1588065625 -2056006776 -845719623 -1964016147
REM
CELL 1.54180   50.00000   50.00000   50.00000   90.00000   90.00000   90.00000
LATT -1
SFAC C  
C      1  0.5898190000000  0.4628640000000  0.4914250000000 1.0
C      1  0.5862460000000  0.5406650000000  0.5077860000000 1.0
C      1  0.4159180000000  0.5563870000000  0.5254730000000 1.0
C      1  0.4079930000000  0.4474670000000  0.4710280000000 1.0
C      1  0.4800390000000  0.5043620000000  0.4065680000000 1.0
C      1  0.4792290000000  0.4883450000000  0.5917540000000 1.0
C      1  0.4399380000000  0.4656270000000  0.5567930000000 1.0
C      1  0.4454020000000  0.5344340000000  0.4396340000000 1.0
C      1  0.5287090000000  0.4459660000000  0.5366440000000 1.0
C      1  0.5296420000000  0.5714900000000  0.4635680000000 1.0
C      1  0.5177300000000  0.4946440000000  0.5536100000000 1.0
C      1  0.5175690000000  0.4960100000000  0.4355940000000 1.0
C      1  0.4861290000000  0.5496110000000  0.4834420000000 1.0
C      1  0.4823380000000  0.4462660000000  0.5189610000000 1.0
C      1  0.4850130000000  0.5772770000000  0.4764380000000 1.0
C      1  0.4903390000000  0.4203760000000  0.5281260000000 1.0
C      1  0.5378360000000  0.4811930000000  0.4526660000000 1.0
C      1  0.5552510000000  0.5293230000000  0.5431340000000 1.0
C      1  0.4064610000000  0.4316790000000  0.4944450000000 1.0
C      1  0.4165660000000  0.5721800000000  0.5022120000000 1.0
C      1  0.5008970000000  0.4237480000000  0.4266150000000 1.0
C      1  0.5011290000000  0.5677370000000  0.5746430000000 1.0
C      1  0.5148780000000  0.5834350000000  0.5543320000000 1.0
C      1  0.5178860000000  0.4170380000000  0.4499620000000 1.0
C      1  0.5853020000000  0.5584600000000  0.5545810000000 1.0
C      1  0.5816260000000  0.4570240000000  0.4416220000000 1.0
C      1  0.4591170000000  0.5060600000000  0.5794960000000 1.0
C      1  0.4558560000000  0.4903400000000  0.4174130000000 1.0
C      1  0.4561980000000  0.5041940000000  0.4800380000000 1.0
C      1  0.4522050000000  0.4931670000000  0.5168950000000 1.0
C      1  0.5446620000000  0.4293200000000  0.4555920000000 1.0
C      1  0.5406020000000  0.5711380000000  0.5471900000000 1.0
C      1  0.5047820000000  0.5001660000000  0.5991620000000 1.0
C      1  0.5002100000000  0.4868120000000  0.3932360000000 1.0
C      1  0.5610830000000  0.4991770000000  0.4507690000000 1.0
C      1  0.5689120000000  0.5028740000000  0.5447240000000 1.0
C      1  0.5521200000000  0.5562400000000  0.4732560000000 1.0
C      1  0.5571960000000  0.4527560000000  0.5321710000000 1.0
C      1  0.5567910000000  0.4460800000000  0.4349250000000 1.0
C      1  0.5614760000000  0.5658250000000  0.5659210000000 1.0
C      1  0.5387330000000  0.5289460000000  0.5135380000000 1.0
C      1  0.5282210000000  0.4830850000000  0.4832000000000 1.0
C      1  0.4773750000000  0.4905900000000  0.5314620000000 1.0
C      1  0.4843860000000  0.5053160000000  0.4672560000000 1.0
C      1  0.4813540000000  0.4636930000000  0.5422010000000 1.0
C      1  0.4906650000000  0.5336710000000  0.4591250000000 1.0
C      1  0.5930230000000  0.5153980000000  0.4909290000000 1.0
C      1  0.5933160000000  0.4888480000000  0.5060850000000 1.0
C      1  0.4981640000000  0.5282510000000  0.5972890000000 1.0
C      1  0.4908690000000  0.4591620000000  0.3981350000000 1.0
C      1  0.5464450000000  0.4359830000000  0.4841900000000 1.0
C      1  0.5454100000000  0.5741110000000  0.5186490000000 1.0
C      1  0.5663420000000  0.4879720000000  0.5193220000000 1.0
C      1  0.5661880000000  0.5145540000000  0.4769350000000 1.0
C      1  0.4204160000000  0.4963300000000  0.4557830000000 1.0
C      1  0.4193250000000  0.5064020000000  0.5419490000000 1.0
C      1  0.4141410000000  0.4749200000000  0.4753290000000 1.0
C      1  0.4178950000000  0.5282390000000  0.5217460000000 1.0
C      1  0.5533520000000  0.5237660000000  0.4361030000000 1.0
C      1  0.5630180000000  0.4867150000000  0.5682260000000 1.0
C      1  0.5069430000000  0.4523550000000  0.5802690000000 1.0
C      1  0.5181330000000  0.5330900000000  0.4211570000000 1.0
C      1  0.5676020000000  0.4605720000000  0.5584090000000 1.0
C      1  0.5667430000000  0.5439710000000  0.4522870000000 1.0
C      1  0.5196900000000  0.5369990000000  0.4505560000000 1.0
C      1  0.5098450000000  0.4640840000000  0.5533220000000 1.0
C      1  0.5183350000000  0.4217120000000  0.5228600000000 1.0
C      1  0.5118170000000  0.5851980000000  0.4817940000000 1.0
C      1  0.4231520000000  0.4342010000000  0.5172180000000 1.0
C      1  0.4326150000000  0.5678550000000  0.4794820000000 1.0
C      1  0.4517080000000  0.5548270000000  0.5109390000000 1.0
C      1  0.4433640000000  0.4428050000000  0.4854350000000 1.0
C      1  0.5954310000000  0.4619380000000  0.4640660000000 1.0
C      1  0.5919370000000  0.5394160000000  0.5359530000000 1.0
C      1  0.4056390000000  0.5169980000000  0.4975280000000 1.0
C      1  0.4030810000000  0.4880440000000  0.4992800000000 1.0
C      1  0.5362340000000  0.5003930000000  0.5768680000000 1.0
C      1  0.5263440000000  0.4889050000000  0.4071100000000 1.0
C      1  0.4113890000000  0.4822430000000  0.5266520000000 1.0
C      1  0.4166310000000  0.5210090000000  0.4710870000000 1.0
C      1  0.4802000000000  0.4599120000000  0.5860990000000 1.0
C      1  0.4887940000000  0.5312740000000  0.4147100000000 1.0
C      1  0.5027090000000  0.4569820000000  0.4970010000000 1.0
C      1  0.5072850000000  0.5445890000000  0.5060260000000 1.0
C      1  0.5161330000000  0.5741470000000  0.5095660000000 1.0
C      1  0.5186300000000  0.4305680000000  0.4939530000000 1.0
C      1  0.4696340000000  0.5467310000000  0.4304850000000 1.0
C      1  0.4591200000000  0.4489520000000  0.5696130000000 1.0
C      1  0.5026760000000  0.5215520000000  0.5505250000000 1.0
C      1  0.4895540000000  0.4835190000000  0.4446000000000 1.0
C      1  0.4718920000000  0.5614550000000  0.5690240000000 1.0
C      1  0.4740720000000  0.4338640000000  0.4354860000000 1.0
C      1  0.5123000000000  0.5393950000000  0.5733460000000 1.0
C      1  0.5134040000000  0.4423510000000  0.4074490000000 1.0
C      1  0.5048280000000  0.4999670000000  0.4878200000000 1.0
C      1  0.4978430000000  0.4967660000000  0.5140700000000 1.0
C      1  0.4592240000000  0.5231660000000  0.5069240000000 1.0
C      1  0.4564590000000  0.4720460000000  0.4880510000000 1.0
C      1  0.4970200000000  0.5842330000000  0.5310200000000 1.0
C      1  0.5008060000000  0.4160670000000  0.4737600000000 1.0
C      1  0.5349160000000  0.4607320000000  0.4186020000000 1.0
C      1  0.5424860000000  0.5327810000000  0.5731660000000 1.0
C      1  0.4236320000000  0.4572550000000  0.5343070000000 1.0
C      1  0.4311390000000  0.5443890000000  0.4630200000000 1.0
C      1  0.4755540000000  0.4323530000000  0.4654140000000 1.0
C      1  0.4755210000000  0.5636850000000  0.5379100000000 1.0
C      1  0.4696960000000  0.5337370000000  0.5856120000000 1.0
C      1  0.4727060000000  0.4622260000000  0.4222110000000 1.0
C      1  0.5575850000000  0.5513960000000  0.5025680000000 1.0
C      1  0.5667880000000  0.4474570000000  0.5024330000000 1.0
C      1  0.4425600000000  0.5054470000000  0.4384590000000 1.0
C      1  0.4402300000000  0.4945890000000  0.5596910000000 1.0
C      1  0.4883600000000  0.5370050000000  0.5282910000000 1.0
C      1  0.4826070000000  0.4610790000000  0.4742500000000 1.0
C      1  0.5479440000000  0.5026830000000  0.4989020000000 1.0
END
