TITL C-3578203-1966-605 -9.07549350781643e-06 125000 -627.905952780688 0 0 102 (C1) n - 1
REM
REM in /home/bkarasulu/work/CARBON/AIRSS/Generating-Clusters/EDIP-Nigel-Params/with-SteepDescent/Higher-Symm/SD-CG/HFTN-CG
REM
REM
REM
REM
REM
REM ./C.cell (12c818d87b63d06a65506943cc24bca4)
REM
REM compiler GCC version 9.2.1 20190827 (Red Hat 9.2.1-1)
REM options -cpp -mtune=generic -march=x86-64 -g -O0 -fpre-include=/usr/include/finclude/math-vector-fortran.h
REM seed 2108395068 -601834992 938804800 501940826 -443840246 1785905795 -1514069729 510891400 572778328 -578679262 -1019671260 -1560107426 -1511419558 -616899605 -426837729 -33267415 1291708181 -1538346917 692737701 -1539139012 -284143798 -1253646797 -2114174163 -89719017 1419798181 -1805334539 -1357855986 -2047891459 -257847159 770593177 831039302 679820421 1713538022
REM
CELL 1.54180   50.00000   50.00000   50.00000   90.00000   90.00000   90.00000
LATT -1
SFAC C  
C      1  0.5214000000000  0.5936500000000  0.4796690000000 1.0
C      1  0.4213980000000  0.5485600000000  0.4803990000000 1.0
C      1  0.4295280000000  0.4404190000000  0.4810600000000 1.0
C      1  0.5369770000000  0.4139660000000  0.4797550000000 1.0
C      1  0.5904950000000  0.5071160000000  0.4815510000000 1.0
C      1  0.4783750000000  0.5930430000000  0.5210610000000 1.0
C      1  0.5797120000000  0.5485430000000  0.5214880000000 1.0
C      1  0.5700610000000  0.4416930000000  0.5197500000000 1.0
C      1  0.4630150000000  0.4133010000000  0.5214090000000 1.0
C      1  0.4093200000000  0.5076370000000  0.5201870000000 1.0
C      1  0.4677800000000  0.4502580000000  0.4519510000000 1.0
C      1  0.5353560000000  0.4548290000000  0.4526510000000 1.0
C      1  0.5528330000000  0.5215950000000  0.4532700000000 1.0
C      1  0.4976440000000  0.5591320000000  0.4530470000000 1.0
C      1  0.4456390000000  0.5156900000000  0.4532500000000 1.0
C      1  0.5315750000000  0.4511240000000  0.5488360000000 1.0
C      1  0.4639280000000  0.4542020000000  0.5487230000000 1.0
C      1  0.4474110000000  0.5211400000000  0.5478810000000 1.0
C      1  0.5029570000000  0.5601450000000  0.5487470000000 1.0
C      1  0.5540560000000  0.5161940000000  0.5481920000000 1.0
C      1  0.5452570000000  0.4286640000000  0.5304380000000 1.0
C      1  0.5801110000000  0.5199890000000  0.5312580000000 1.0
C      1  0.5061390000000  0.5869430000000  0.5308930000000 1.0
C      1  0.4234450000000  0.5320740000000  0.5303980000000 1.0
C      1  0.4452300000000  0.4356150000000  0.5313960000000 1.0
C      1  0.4544650000000  0.4276150000000  0.4704460000000 1.0
C      1  0.4197350000000  0.5202200000000  0.4703770000000 1.0
C      1  0.4938280000000  0.5860670000000  0.4701200000000 1.0
C      1  0.5771960000000  0.5319480000000  0.4712240000000 1.0
C      1  0.5543290000000  0.4366460000000  0.4697700000000 1.0
C      1  0.5399050000000  0.5364110000000  0.5089810000000 1.0
C      1  0.4802130000000  0.5512760000000  0.5090050000000 1.0
C      1  0.4501400000000  0.4969820000000  0.5089280000000 1.0
C      1  0.4872490000000  0.4470880000000  0.5087630000000 1.0
C      1  0.5425250000000  0.4741200000000  0.5099050000000 1.0
C      1  0.4613570000000  0.5355860000000  0.4919120000000 1.0
C      1  0.5207800000000  0.5522040000000  0.4925760000000 1.0
C      1  0.5492560000000  0.4974620000000  0.4920440000000 1.0
C      1  0.5123970000000  0.4474350000000  0.4925550000000 1.0
C      1  0.4565600000000  0.4731620000000  0.4912530000000 1.0
C      1  0.5010520000000  0.5366440000000  0.4740630000000 1.0
C      1  0.4690490000000  0.5108670000000  0.4731800000000 1.0
C      1  0.4807930000000  0.4692750000000  0.4718790000000 1.0
C      1  0.5197940000000  0.4715320000000  0.4733260000000 1.0
C      1  0.5294950000000  0.5139820000000  0.4726290000000 1.0
C      1  0.5007480000000  0.5376170000000  0.5281350000000 1.0
C      1  0.5304640000000  0.5121110000000  0.5280900000000 1.0
C      1  0.5181300000000  0.4703700000000  0.5291350000000 1.0
C      1  0.4791890000000  0.4707030000000  0.5278850000000 1.0
C      1  0.4703890000000  0.5131650000000  0.5283150000000 1.0
C      1  0.5376530000000  0.5369950000000  0.4321390000000 1.0
C      1  0.4778880000000  0.5476390000000  0.4325800000000 1.0
C      1  0.4481990000000  0.4934210000000  0.4324190000000 1.0
C      1  0.4900590000000  0.4476900000000  0.4312400000000 1.0
C      1  0.5450670000000  0.4753370000000  0.4324190000000 1.0
C      1  0.4622820000000  0.5369910000000  0.5689610000000 1.0
C      1  0.5222600000000  0.5481110000000  0.5691590000000 1.0
C      1  0.5511660000000  0.4938490000000  0.5687220000000 1.0
C      1  0.5095640000000  0.4478820000000  0.5697540000000 1.0
C      1  0.4544540000000  0.4750890000000  0.5689530000000 1.0
C      1  0.4954930000000  0.4750320000000  0.4206800000000 1.0
C      1  0.5214750000000  0.4887750000000  0.4215790000000 1.0
C      1  0.5171220000000  0.5176370000000  0.4230110000000 1.0
C      1  0.4886840000000  0.5223030000000  0.4224460000000 1.0
C      1  0.4750180000000  0.4962930000000  0.4207290000000 1.0
C      1  0.5040250000000  0.4751850000000  0.5803230000000 1.0
C      1  0.4779450000000  0.4887060000000  0.5800670000000 1.0
C      1  0.4824940000000  0.5177920000000  0.5788610000000 1.0
C      1  0.5109720000000  0.5224920000000  0.5783380000000 1.0
C      1  0.5242820000000  0.4965320000000  0.5798440000000 1.0
C      1  0.5494370000000  0.5442430000000  0.5586670000000 1.0
C      1  0.4742510000000  0.5621690000000  0.5583850000000 1.0
C      1  0.4358100000000  0.4946540000000  0.5574560000000 1.0
C      1  0.4851330000000  0.4349580000000  0.5588180000000 1.0
C      1  0.5560300000000  0.4668920000000  0.5578980000000 1.0
C      1  0.4507750000000  0.5437970000000  0.4429840000000 1.0
C      1  0.5258950000000  0.5622200000000  0.4426560000000 1.0
C      1  0.5639160000000  0.4947690000000  0.4439350000000 1.0
C      1  0.5145600000000  0.4352070000000  0.4424160000000 1.0
C      1  0.4434010000000  0.4662020000000  0.4430030000000 1.0
C      1  0.5668910000000  0.4495940000000  0.4920560000000 1.0
C      1  0.5727250000000  0.5499380000000  0.4931730000000 1.0
C      1  0.4757820000000  0.5863290000000  0.4926860000000 1.0
C      1  0.4151690000000  0.5025990000000  0.4923760000000 1.0
C      1  0.4690460000000  0.4167170000000  0.4928760000000 1.0
C      1  0.4325730000000  0.4481300000000  0.5088560000000 1.0
C      1  0.4290560000000  0.5495680000000  0.5084180000000 1.0
C      1  0.5242420000000  0.5875890000000  0.5082920000000 1.0
C      1  0.5839850000000  0.5021380000000  0.5092820000000 1.0
C      1  0.5309070000000  0.4171230000000  0.5082560000000 1.0
C      1  0.5767950000000  0.4854800000000  0.4679270000000 1.0
C      1  0.5385620000000  0.5736570000000  0.4664180000000 1.0
C      1  0.4447970000000  0.5592670000000  0.4666720000000 1.0
C      1  0.4274670000000  0.4658620000000  0.4671050000000 1.0
C      1  0.5111630000000  0.4193280000000  0.4666730000000 1.0
C      1  0.4226120000000  0.4856760000000  0.5335740000000 1.0
C      1  0.4615930000000  0.5730660000000  0.5345240000000 1.0
C      1  0.5559810000000  0.5594960000000  0.5348060000000 1.0
C      1  0.5718830000000  0.4671160000000  0.5337530000000 1.0
C      1  0.4887050000000  0.4189760000000  0.5346310000000 1.0
C      1  0.4998470000000  0.4983420000000  0.5430180000000 1.0
C      1  0.4984190000000  0.4980730000000  0.4581310000000 1.0
END
