TITL C-3578202-4305-54 -3.3829763506805e-06 125000 -960.598986141245 0 0 154 (C1) n - 1
REM
REM in /home/bkarasulu/work/CARBON/AIRSS/Generating-Clusters/EDIP-Nigel-Params/with-SteepDescent/Higher-Symm/SD-CG/HFTN-CG
REM
REM
REM
REM
REM
REM ./C.cell (12c818d87b63d06a65506943cc24bca4)
REM
REM compiler GCC version 9.2.1 20190827 (Red Hat 9.2.1-1)
REM options -cpp -mtune=generic -march=x86-64 -g -O0 -fpre-include=/usr/include/finclude/math-vector-fortran.h
REM seed 1093969987 -1712866928 1970510452 -243479207 420918037 -1614706658 1520387378 1365599285 -1322335995 -1314808930 -47337240 -175223330 -1453754419 679822989 -1614574518 636125460 -1010146480 -2022765469 -1324397490 -1581909415 -1213816937 -1169809055 -958956605 -1612227983 -1851924466 -1594920219 -2037978943 1256260626 -1461988134 161359542 1398605981 1260520665 614942620
REM
CELL 1.54180   50.00000   50.00000   50.00000   90.00000   90.00000   90.00000
LATT -1
SFAC C  
C      1  0.4820960000000  0.4944650000000  0.4494960000000 1.0
C      1  0.4781390000000  0.4897990000000  0.5571970000000 1.0
C      1  0.5433430000000  0.5361700000000  0.4095710000000 1.0
C      1  0.5453600000000  0.5355060000000  0.5921780000000 1.0
C      1  0.5017930000000  0.4293040000000  0.4383420000000 1.0
C      1  0.5014260000000  0.4252150000000  0.5652610000000 1.0
C      1  0.4630970000000  0.5331800000000  0.4742770000000 1.0
C      1  0.4673120000000  0.5308800000000  0.5306260000000 1.0
C      1  0.5395530000000  0.5369720000000  0.4391670000000 1.0
C      1  0.5267370000000  0.5415050000000  0.5703700000000 1.0
C      1  0.5044790000000  0.5058700000000  0.5978610000000 1.0
C      1  0.5040620000000  0.5085600000000  0.4093710000000 1.0
C      1  0.4638150000000  0.4555720000000  0.5326410000000 1.0
C      1  0.4675000000000  0.4487940000000  0.4817520000000 1.0
C      1  0.5573140000000  0.5562510000000  0.5424070000000 1.0
C      1  0.5613870000000  0.5537010000000  0.4523340000000 1.0
C      1  0.4745300000000  0.4184720000000  0.5630310000000 1.0
C      1  0.4748410000000  0.4230240000000  0.4422780000000 1.0
C      1  0.5311050000000  0.4926440000000  0.4172670000000 1.0
C      1  0.5306070000000  0.4923260000000  0.5885630000000 1.0
C      1  0.4715210000000  0.5714070000000  0.5620510000000 1.0
C      1  0.4726230000000  0.5760080000000  0.4392490000000 1.0
C      1  0.5014370000000  0.5844770000000  0.5292100000000 1.0
C      1  0.5015550000000  0.5854810000000  0.4745210000000 1.0
C      1  0.5388340000000  0.4395670000000  0.5357280000000 1.0
C      1  0.5409790000000  0.4434970000000  0.4663380000000 1.0
C      1  0.5602900000000  0.4375840000000  0.4457720000000 1.0
C      1  0.5638710000000  0.4340980000000  0.5509370000000 1.0
C      1  0.4975280000000  0.5622090000000  0.4302990000000 1.0
C      1  0.4973260000000  0.5664860000000  0.5760770000000 1.0
C      1  0.4422020000000  0.4661120000000  0.4340230000000 1.0
C      1  0.4401820000000  0.4571010000000  0.5768720000000 1.0
C      1  0.5411910000000  0.4822480000000  0.4472070000000 1.0
C      1  0.5484310000000  0.4747750000000  0.5484620000000 1.0
C      1  0.5426020000000  0.5749400000000  0.5582210000000 1.0
C      1  0.5421670000000  0.5746630000000  0.4479690000000 1.0
C      1  0.4383210000000  0.5468410000000  0.4583810000000 1.0
C      1  0.4375820000000  0.5556130000000  0.5358560000000 1.0
C      1  0.5529290000000  0.4485350000000  0.4210490000000 1.0
C      1  0.5578280000000  0.4493940000000  0.5761040000000 1.0
C      1  0.4966630000000  0.4540060000000  0.4789270000000 1.0
C      1  0.4941240000000  0.4552340000000  0.5303450000000 1.0
C      1  0.4573080000000  0.4588620000000  0.4119350000000 1.0
C      1  0.4597190000000  0.4510080000000  0.5954790000000 1.0
C      1  0.3775210000000  0.4941300000000  0.4660780000000 1.0
C      1  0.3810450000000  0.4856090000000  0.5087910000000 1.0
C      1  0.4406680000000  0.5135690000000  0.4286070000000 1.0
C      1  0.4327450000000  0.5054190000000  0.5644340000000 1.0
C      1  0.4875600000000  0.5183700000000  0.5526690000000 1.0
C      1  0.4896020000000  0.5227560000000  0.4535760000000 1.0
C      1  0.4326430000000  0.4445420000000  0.4492270000000 1.0
C      1  0.4306560000000  0.4351990000000  0.5616090000000 1.0
C      1  0.5056470000000  0.4530120000000  0.5778330000000 1.0
C      1  0.5050280000000  0.4534480000000  0.4208210000000 1.0
C      1  0.5332090000000  0.4618350000000  0.5875490000000 1.0
C      1  0.5310930000000  0.4622220000000  0.4098430000000 1.0
C      1  0.5742830000000  0.4882260000000  0.5422540000000 1.0
C      1  0.5688020000000  0.4934110000000  0.4499650000000 1.0
C      1  0.5134180000000  0.4311370000000  0.4667800000000 1.0
C      1  0.5096640000000  0.4295740000000  0.5366190000000 1.0
C      1  0.5180260000000  0.5203080000000  0.5465350000000 1.0
C      1  0.5195710000000  0.5238390000000  0.4601960000000 1.0
C      1  0.4241210000000  0.5092250000000  0.5338080000000 1.0
C      1  0.4048660000000  0.5041820000000  0.4615620000000 1.0
C      1  0.5274430000000  0.4967390000000  0.4700660000000 1.0
C      1  0.5234920000000  0.4898450000000  0.5450370000000 1.0
C      1  0.4540720000000  0.4289340000000  0.5453120000000 1.0
C      1  0.4558470000000  0.4332610000000  0.4603370000000 1.0
C      1  0.5007710000000  0.4724240000000  0.5534200000000 1.0
C      1  0.5038760000000  0.4759290000000  0.4583210000000 1.0
C      1  0.5843220000000  0.5437780000000  0.5411100000000 1.0
C      1  0.5881870000000  0.5527260000000  0.4415590000000 1.0
C      1  0.4503970000000  0.5266360000000  0.5762800000000 1.0
C      1  0.4587560000000  0.5352250000000  0.4185700000000 1.0
C      1  0.4165790000000  0.5376690000000  0.5263790000000 1.0
C      1  0.4180070000000  0.5247410000000  0.4441340000000 1.0
C      1  0.4527510000000  0.5069160000000  0.5249600000000 1.0
C      1  0.4485070000000  0.5061670000000  0.4786220000000 1.0
C      1  0.5753470000000  0.5077330000000  0.5650790000000 1.0
C      1  0.5779230000000  0.5061180000000  0.4251570000000 1.0
C      1  0.5935080000000  0.5288320000000  0.5626980000000 1.0
C      1  0.5937720000000  0.5291060000000  0.4281760000000 1.0
C      1  0.5145770000000  0.5699660000000  0.4535370000000 1.0
C      1  0.5146140000000  0.5807920000000  0.5555570000000 1.0
C      1  0.5537640000000  0.5100590000000  0.4083350000000 1.0
C      1  0.5537170000000  0.5099230000000  0.5852210000000 1.0
C      1  0.4490020000000  0.5527090000000  0.5632610000000 1.0
C      1  0.4493580000000  0.5596960000000  0.4329720000000 1.0
C      1  0.5962810000000  0.4695230000000  0.5454250000000 1.0
C      1  0.5871320000000  0.4760560000000  0.4652440000000 1.0
C      1  0.5864630000000  0.4463370000000  0.5332420000000 1.0
C      1  0.5864810000000  0.4459250000000  0.4585100000000 1.0
C      1  0.4883960000000  0.4855760000000  0.6083450000000 1.0
C      1  0.4880470000000  0.4900890000000  0.3955890000000 1.0
C      1  0.4884600000000  0.5327340000000  0.4251220000000 1.0
C      1  0.4880280000000  0.5290050000000  0.5816320000000 1.0
C      1  0.4857780000000  0.4593650000000  0.5995060000000 1.0
C      1  0.4833190000000  0.4638560000000  0.4040660000000 1.0
C      1  0.4737050000000  0.5840660000000  0.5351430000000 1.0
C      1  0.4741400000000  0.5826500000000  0.4677430000000 1.0
C      1  0.4519120000000  0.4920070000000  0.4471360000000 1.0
C      1  0.4490720000000  0.4797850000000  0.5591250000000 1.0
C      1  0.4753100000000  0.6232550000000  0.4911020000000 1.0
C      1  0.5545110000000  0.4151310000000  0.5026760000000 1.0
C      1  0.4389710000000  0.5864990000000  0.4949970000000 1.0
C      1  0.5449260000000  0.4934980000000  0.4979750000000 1.0
C      1  0.4624160000000  0.4924850000000  0.5017020000000 1.0
C      1  0.4707930000000  0.3838590000000  0.4898590000000 1.0
C      1  0.5121250000000  0.4048410000000  0.4857610000000 1.0
C      1  0.5524960000000  0.5722500000000  0.4972590000000 1.0
C      1  0.5785710000000  0.5816590000000  0.4887790000000 1.0
C      1  0.4137910000000  0.5394730000000  0.4969800000000 1.0
C      1  0.5522200000000  0.4449190000000  0.4940460000000 1.0
C      1  0.4534560000000  0.4635100000000  0.5047270000000 1.0
C      1  0.4432050000000  0.3853760000000  0.4827550000000 1.0
C      1  0.5399700000000  0.3955190000000  0.4880730000000 1.0
C      1  0.4941660000000  0.3847820000000  0.4737980000000 1.0
C      1  0.4923420000000  0.4946340000000  0.5012310000000 1.0
C      1  0.5965880000000  0.5610140000000  0.4778900000000 1.0
C      1  0.5491530000000  0.6187420000000  0.4885870000000 1.0
C      1  0.4187830000000  0.5107880000000  0.4866980000000 1.0
C      1  0.5487920000000  0.5482710000000  0.5148040000000 1.0
C      1  0.3396750000000  0.5047140000000  0.4939140000000 1.0
C      1  0.4754300000000  0.3972760000000  0.5147100000000 1.0
C      1  0.4556750000000  0.5704830000000  0.5151410000000 1.0
C      1  0.6107210000000  0.5116710000000  0.4861410000000 1.0
C      1  0.5351360000000  0.4677350000000  0.5082730000000 1.0
C      1  0.5987870000000  0.5361930000000  0.4931400000000 1.0
C      1  0.4109600000000  0.4912390000000  0.5100250000000 1.0
C      1  0.3812970000000  0.4633270000000  0.4883590000000 1.0
C      1  0.4239700000000  0.4649050000000  0.5058810000000 1.0
C      1  0.5015620000000  0.4099290000000  0.5143890000000 1.0
C      1  0.5025320000000  0.6247470000000  0.4998180000000 1.0
C      1  0.5059840000000  0.5192470000000  0.5018130000000 1.0
C      1  0.5955050000000  0.4873180000000  0.4929670000000 1.0
C      1  0.5828040000000  0.4521070000000  0.5022890000000 1.0
C      1  0.4060620000000  0.4477960000000  0.4918000000000 1.0
C      1  0.5936800000000  0.4300690000000  0.4838670000000 1.0
C      1  0.5051000000000  0.4677480000000  0.5047050000000 1.0
C      1  0.5779540000000  0.5299880000000  0.5131240000000 1.0
C      1  0.4711960000000  0.5460990000000  0.5021070000000 1.0
C      1  0.4236080000000  0.5635080000000  0.4802100000000 1.0
C      1  0.4311100000000  0.4027430000000  0.5017890000000 1.0
C      1  0.5751440000000  0.6089020000000  0.4800360000000 1.0
C      1  0.5102410000000  0.5961570000000  0.5024180000000 1.0
C      1  0.5724130000000  0.4995850000000  0.5115540000000 1.0
C      1  0.4577660000000  0.6040000000000  0.4787130000000 1.0
C      1  0.5774750000000  0.4059160000000  0.4880270000000 1.0
C      1  0.4506360000000  0.4098180000000  0.5224850000000 1.0
C      1  0.5389500000000  0.5963890000000  0.5028240000000 1.0
C      1  0.5260910000000  0.6364210000000  0.4877860000000 1.0
C      1  0.4100720000000  0.4201360000000  0.4950880000000 1.0
C      1  0.3661100000000  0.5045370000000  0.4914390000000 1.0
C      1  0.5222290000000  0.5330440000000  0.5197410000000 1.0
END
