TITL C-3577080-309-352 4.15196240612345e-06 125000 -838.831118509885 0 0 135 (C1) n - 1
REM
REM in /home/bkarasulu/work/CARBON/AIRSS/Generating-Clusters/EDIP-Nigel-Params/with-SteepDescent/Higher-Symm/SD-CG/HFTN-CG
REM
REM
REM
REM
REM
REM ./C.cell (12c818d87b63d06a65506943cc24bca4)
REM
REM compiler GCC version 9.2.1 20190827 (Red Hat 9.2.1-1)
REM options -cpp -mtune=generic -march=x86-64 -g -O0 -fpre-include=/usr/include/finclude/math-vector-fortran.h
REM seed -1609481182 1475302572 1324637229 -276301912 353734643 45040494 -453767047 -2050339605 -1477204869 404947489 -2100546965 1063496821 -2060282774 1249791836 -828466795 1781399542 -369796238 -314690332 268160284 -31752457 -1656095200 1780365879 2054118829 -2047762849 1844299222 299625092 811298931 2081044839 -66140126 98670529 1744007943 -1755903925 499009751
REM
CELL 1.54180   50.00000   50.00000   50.00000   90.00000   90.00000   90.00000
LATT -1
SFAC C  
C      1  0.4008930000000  0.4691940000000  0.4983980000000 1.0
C      1  0.4174160000000  0.4944870000000  0.4945190000000 1.0
C      1  0.4973080000000  0.5599160000000  0.4199590000000 1.0
C      1  0.5283860000000  0.4549400000000  0.5736040000000 1.0
C      1  0.5723440000000  0.5493920000000  0.5299810000000 1.0
C      1  0.5416110000000  0.5432930000000  0.4366330000000 1.0
C      1  0.4110030000000  0.4653160000000  0.4691410000000 1.0
C      1  0.5130460000000  0.4054710000000  0.5028960000000 1.0
C      1  0.5716190000000  0.4854840000000  0.4967580000000 1.0
C      1  0.5178800000000  0.5998850000000  0.5071450000000 1.0
C      1  0.5676560000000  0.5296090000000  0.4265320000000 1.0
C      1  0.4308610000000  0.5430260000000  0.5445810000000 1.0
C      1  0.4871040000000  0.4825530000000  0.4639880000000 1.0
C      1  0.5507320000000  0.5301910000000  0.4975620000000 1.0
C      1  0.4731720000000  0.4969810000000  0.5077470000000 1.0
C      1  0.5262640000000  0.5712250000000  0.5446620000000 1.0
C      1  0.5015990000000  0.4533130000000  0.5078440000000 1.0
C      1  0.4056410000000  0.4692990000000  0.5479800000000 1.0
C      1  0.4963590000000  0.5577800000000  0.5818810000000 1.0
C      1  0.4589850000000  0.5227120000000  0.5872440000000 1.0
C      1  0.5265370000000  0.4152150000000  0.5275110000000 1.0
C      1  0.4107370000000  0.5421930000000  0.5048780000000 1.0
C      1  0.5379850000000  0.4567030000000  0.4719450000000 1.0
C      1  0.5452400000000  0.5104250000000  0.5303690000000 1.0
C      1  0.4825580000000  0.5992560000000  0.5388030000000 1.0
C      1  0.5249480000000  0.5426610000000  0.5083220000000 1.0
C      1  0.5201490000000  0.4957260000000  0.4975210000000 1.0
C      1  0.4703860000000  0.4139060000000  0.5275060000000 1.0
C      1  0.4172190000000  0.5172900000000  0.5655350000000 1.0
C      1  0.5450300000000  0.4364380000000  0.4916450000000 1.0
C      1  0.5179550000000  0.4136410000000  0.4547090000000 1.0
C      1  0.5043030000000  0.5333400000000  0.5981120000000 1.0
C      1  0.5204080000000  0.4801520000000  0.5847710000000 1.0
C      1  0.4810730000000  0.4429750000000  0.5670210000000 1.0
C      1  0.4456510000000  0.4772770000000  0.5740310000000 1.0
C      1  0.5283560000000  0.5278050000000  0.5778500000000 1.0
C      1  0.5827400000000  0.5129420000000  0.4470810000000 1.0
C      1  0.4938940000000  0.4591000000000  0.4187700000000 1.0
C      1  0.5570440000000  0.4552880000000  0.5352450000000 1.0
C      1  0.4574400000000  0.4790770000000  0.4652090000000 1.0
C      1  0.5178660000000  0.5193550000000  0.5491620000000 1.0
C      1  0.5428730000000  0.4847540000000  0.4802540000000 1.0
C      1  0.4363010000000  0.4355200000000  0.5552920000000 1.0
C      1  0.5084080000000  0.4352830000000  0.5674350000000 1.0
C      1  0.5304490000000  0.4437820000000  0.5177910000000 1.0
C      1  0.5371460000000  0.5269560000000  0.4615340000000 1.0
C      1  0.5497250000000  0.4668890000000  0.4036400000000 1.0
C      1  0.4074050000000  0.4993310000000  0.5436030000000 1.0
C      1  0.5883110000000  0.4626800000000  0.4886400000000 1.0
C      1  0.5648230000000  0.4852930000000  0.5268720000000 1.0
C      1  0.4407690000000  0.5273000000000  0.4648190000000 1.0
C      1  0.4917960000000  0.4885680000000  0.5820110000000 1.0
C      1  0.4924700000000  0.4274810000000  0.4954260000000 1.0
C      1  0.5527800000000  0.5719920000000  0.5268530000000 1.0
C      1  0.4454900000000  0.5017270000000  0.4814430000000 1.0
C      1  0.5779240000000  0.5707390000000  0.4724890000000 1.0
C      1  0.5932480000000  0.5065300000000  0.4956550000000 1.0
C      1  0.4104830000000  0.4563210000000  0.5224270000000 1.0
C      1  0.5530960000000  0.4472690000000  0.4489910000000 1.0
C      1  0.4742080000000  0.4838180000000  0.5340650000000 1.0
C      1  0.4169480000000  0.4857630000000  0.4440970000000 1.0
C      1  0.4293740000000  0.4976280000000  0.5225940000000 1.0
C      1  0.5760610000000  0.5462090000000  0.4861390000000 1.0
C      1  0.4901170000000  0.5126340000000  0.4520540000000 1.0
C      1  0.5952140000000  0.5198570000000  0.5214880000000 1.0
C      1  0.4571540000000  0.4084120000000  0.4800260000000 1.0
C      1  0.4825740000000  0.4834890000000  0.4079300000000 1.0
C      1  0.4466740000000  0.4687930000000  0.5306620000000 1.0
C      1  0.4660160000000  0.4185420000000  0.4544950000000 1.0
C      1  0.4420550000000  0.5263570000000  0.5208880000000 1.0
C      1  0.5752630000000  0.4377350000000  0.4981390000000 1.0
C      1  0.5540800000000  0.4518090000000  0.5638290000000 1.0
C      1  0.5103750000000  0.5960300000000  0.5353460000000 1.0
C      1  0.4686120000000  0.5506530000000  0.4248600000000 1.0
C      1  0.4524700000000  0.4554460000000  0.4811080000000 1.0
C      1  0.5423530000000  0.4982310000000  0.4532230000000 1.0
C      1  0.5617340000000  0.4705630000000  0.4328140000000 1.0
C      1  0.4958290000000  0.4803040000000  0.4940050000000 1.0
C      1  0.4296360000000  0.5487110000000  0.4847190000000 1.0
C      1  0.5234640000000  0.4898690000000  0.4291790000000 1.0
C      1  0.4513020000000  0.4173440000000  0.5064000000000 1.0
C      1  0.5974800000000  0.4668320000000  0.4622160000000 1.0
C      1  0.5081570000000  0.5304730000000  0.4688470000000 1.0
C      1  0.4943850000000  0.5585520000000  0.4642860000000 1.0
C      1  0.4528650000000  0.5637980000000  0.5517990000000 1.0
C      1  0.4678810000000  0.5363390000000  0.4512300000000 1.0
C      1  0.5023490000000  0.5107080000000  0.4250360000000 1.0
C      1  0.5108630000000  0.5462920000000  0.5347800000000 1.0
C      1  0.5246690000000  0.5645110000000  0.5741060000000 1.0
C      1  0.4717720000000  0.4664900000000  0.5815620000000 1.0
C      1  0.4889070000000  0.5018690000000  0.5546150000000 1.0
C      1  0.5356960000000  0.4282740000000  0.4344480000000 1.0
C      1  0.4542100000000  0.5378170000000  0.4047020000000 1.0
C      1  0.4437480000000  0.4726220000000  0.4382980000000 1.0
C      1  0.4581320000000  0.4476920000000  0.5087880000000 1.0
C      1  0.4236580000000  0.5159310000000  0.4408140000000 1.0
C      1  0.4961370000000  0.6004140000000  0.4891920000000 1.0
C      1  0.5381280000000  0.5729340000000  0.4460230000000 1.0
C      1  0.5166030000000  0.5370280000000  0.4190030000000 1.0
C      1  0.5009850000000  0.4594840000000  0.4483700000000 1.0
C      1  0.4367030000000  0.5038070000000  0.5835760000000 1.0
C      1  0.5399550000000  0.5014980000000  0.5878190000000 1.0
C      1  0.4743470000000  0.5307070000000  0.5161800000000 1.0
C      1  0.4689920000000  0.5232150000000  0.5594490000000 1.0
C      1  0.5409700000000  0.5830670000000  0.5006360000000 1.0
C      1  0.4440960000000  0.4353880000000  0.4424090000000 1.0
C      1  0.4770680000000  0.5614340000000  0.5114120000000 1.0
C      1  0.4834550000000  0.5115660000000  0.6000120000000 1.0
C      1  0.5803060000000  0.5122690000000  0.5634260000000 1.0
C      1  0.4846300000000  0.5747310000000  0.4866850000000 1.0
C      1  0.5610240000000  0.5297590000000  0.5483620000000 1.0
C      1  0.4092330000000  0.5554790000000  0.5296360000000 1.0
C      1  0.5148220000000  0.4126380000000  0.5526130000000 1.0
C      1  0.4624700000000  0.4259750000000  0.5529610000000 1.0
C      1  0.5082020000000  0.5757570000000  0.4435330000000 1.0
C      1  0.4250480000000  0.4582680000000  0.5672770000000 1.0
C      1  0.5897980000000  0.4974640000000  0.5397340000000 1.0
C      1  0.5922990000000  0.5250340000000  0.4729720000000 1.0
C      1  0.5780530000000  0.4373160000000  0.5261260000000 1.0
C      1  0.4937220000000  0.4308660000000  0.4622330000000 1.0
C      1  0.5243250000000  0.4507350000000  0.4155260000000 1.0
C      1  0.4799610000000  0.5498790000000  0.5566670000000 1.0
C      1  0.5327650000000  0.4094220000000  0.4809140000000 1.0
C      1  0.4402580000000  0.5742900000000  0.4902120000000 1.0
C      1  0.4420670000000  0.5917310000000  0.5116430000000 1.0
C      1  0.5670010000000  0.4965960000000  0.5825590000000 1.0
C      1  0.5067800000000  0.5232270000000  0.4970750000000 1.0
C      1  0.4305130000000  0.4417030000000  0.4679270000000 1.0
C      1  0.5403430000000  0.4944410000000  0.4025430000000 1.0
C      1  0.5520570000000  0.5808620000000  0.4723920000000 1.0
C      1  0.4432130000000  0.5150580000000  0.4175080000000 1.0
C      1  0.5877340000000  0.4834700000000  0.4415550000000 1.0
C      1  0.4556010000000  0.4885870000000  0.4162310000000 1.0
C      1  0.4627940000000  0.5804800000000  0.5290780000000 1.0
C      1  0.5603650000000  0.5137840000000  0.4047140000000 1.0
END
