TITL C-3577078-809-50 -4.06227600983308e-06 125000 -558.969359389627 0 0 93 (C1) n - 1
REM
REM in /home/bkarasulu/work/CARBON/AIRSS/Generating-Clusters/EDIP-Nigel-Params/with-SteepDescent/Higher-Symm/SD-CG/HFTN-CG
REM
REM
REM
REM
REM
REM ./C.cell (12c818d87b63d06a65506943cc24bca4)
REM
REM compiler GCC version 9.2.1 20190827 (Red Hat 9.2.1-1)
REM options -cpp -mtune=generic -march=x86-64 -g -O0 -fpre-include=/usr/include/finclude/math-vector-fortran.h
REM seed -907588365 -56196206 2136470957 -1271235509 1704988547 -1685725611 748804001 1925281684 643154917 1371593504 -647046057 1418357294 66222560 -301357488 -326187635 -997485278 -814335218 2063337181 1902409058 1286277126 1602595914 -658798378 -1446401004 -994903847 -1117018756 1171942213 -490502355 -1311973352 -1145977717 711539221 -973357748 693493273 42520207
REM
CELL 1.54180   50.00000   50.00000   50.00000   90.00000   90.00000   90.00000
LATT -1
SFAC C  
C      1  0.5685390000000  0.4816750000000  0.5264390000000 1.0
C      1  0.5768080000000  0.5104040000000  0.5267540000000 1.0
C      1  0.5699670000000  0.5332160000000  0.5097500000000 1.0
C      1  0.5690220000000  0.5293730000000  0.4804930000000 1.0
C      1  0.5681810000000  0.5017020000000  0.4663170000000 1.0
C      1  0.5685850000000  0.4713210000000  0.4750390000000 1.0
C      1  0.5687230000000  0.4609240000000  0.5037270000000 1.0
C      1  0.5468110000000  0.4372830000000  0.5068610000000 1.0
C      1  0.5479080000000  0.4738280000000  0.5462180000000 1.0
C      1  0.5499430000000  0.5269910000000  0.5485110000000 1.0
C      1  0.5465400000000  0.5610920000000  0.5168120000000 1.0
C      1  0.5471640000000  0.5473870000000  0.4694770000000 1.0
C      1  0.5468730000000  0.5050710000000  0.4444770000000 1.0
C      1  0.5461070000000  0.4572680000000  0.4600940000000 1.0
C      1  0.5422530000000  0.5490250000000  0.4410330000000 1.0
C      1  0.5416540000000  0.4834380000000  0.4246910000000 1.0
C      1  0.5409420000000  0.4284770000000  0.4638040000000 1.0
C      1  0.5407610000000  0.4235770000000  0.5324230000000 1.0
C      1  0.5428750000000  0.4890970000000  0.5697480000000 1.0
C      1  0.5356050000000  0.5431910000000  0.5687960000000 1.0
C      1  0.5398710000000  0.5864430000000  0.5044530000000 1.0
C      1  0.4986800000000  0.5542710000000  0.5220500000000 1.0
C      1  0.4996230000000  0.5465310000000  0.4743130000000 1.0
C      1  0.5002650000000  0.5105510000000  0.4482170000000 1.0
C      1  0.4995500000000  0.4636180000000  0.4608140000000 1.0
C      1  0.4982070000000  0.4404130000000  0.5022980000000 1.0
C      1  0.4994420000000  0.4756790000000  0.5430320000000 1.0
C      1  0.5026300000000  0.5135190000000  0.5487480000000 1.0
C      1  0.4941120000000  0.5558350000000  0.5764460000000 1.0
C      1  0.4947550000000  0.5985720000000  0.5033340000000 1.0
C      1  0.4969560000000  0.5636200000000  0.4291700000000 1.0
C      1  0.4966340000000  0.4816800000000  0.4071480000000 1.0
C      1  0.4950780000000  0.4145640000000  0.4543290000000 1.0
C      1  0.4954410000000  0.4093670000000  0.5389490000000 1.0
C      1  0.4991710000000  0.4766000000000  0.5871850000000 1.0
C      1  0.4261140000000  0.5316410000000  0.5125320000000 1.0
C      1  0.4262610000000  0.5310740000000  0.4832780000000 1.0
C      1  0.4285450000000  0.5061540000000  0.4679470000000 1.0
C      1  0.4283030000000  0.4778820000000  0.4757300000000 1.0
C      1  0.4257910000000  0.4642190000000  0.5015940000000 1.0
C      1  0.4267940000000  0.4790150000000  0.5269790000000 1.0
C      1  0.4313680000000  0.5078170000000  0.5284650000000 1.0
C      1  0.5238060000000  0.5427360000000  0.5130830000000 1.0
C      1  0.5239870000000  0.5333840000000  0.4830850000000 1.0
C      1  0.5240080000000  0.5054370000000  0.4649600000000 1.0
C      1  0.5238940000000  0.4718500000000  0.4748340000000 1.0
C      1  0.5232700000000  0.4551360000000  0.5020990000000 1.0
C      1  0.5244110000000  0.4736650000000  0.5263930000000 1.0
C      1  0.5266340000000  0.5198520000000  0.5307790000000 1.0
C      1  0.4483450000000  0.5719580000000  0.4961360000000 1.0
C      1  0.4499550000000  0.5420500000000  0.4431280000000 1.0
C      1  0.4498500000000  0.4811640000000  0.4329140000000 1.0
C      1  0.4481650000000  0.4340470000000  0.4710600000000 1.0
C      1  0.4485810000000  0.4359610000000  0.5336660000000 1.0
C      1  0.4514290000000  0.4882210000000  0.5676360000000 1.0
C      1  0.4477320000000  0.5459550000000  0.5529480000000 1.0
C      1  0.5085780000000  0.4405590000000  0.4439030000000 1.0
C      1  0.5093400000000  0.4137670000000  0.5113440000000 1.0
C      1  0.5029320000000  0.4567770000000  0.5657800000000 1.0
C      1  0.5096530000000  0.5255790000000  0.5764630000000 1.0
C      1  0.5087330000000  0.5825020000000  0.5264330000000 1.0
C      1  0.5102240000000  0.5681880000000  0.4569970000000 1.0
C      1  0.5101210000000  0.5063140000000  0.4199360000000 1.0
C      1  0.4752700000000  0.5135100000000  0.5337630000000 1.0
C      1  0.4739730000000  0.5378630000000  0.5148700000000 1.0
C      1  0.4738280000000  0.5334360000000  0.4831750000000 1.0
C      1  0.4743750000000  0.5066030000000  0.4641390000000 1.0
C      1  0.4742510000000  0.4738230000000  0.4734410000000 1.0
C      1  0.4736740000000  0.4584000000000  0.5015420000000 1.0
C      1  0.4730080000000  0.4749910000000  0.5271990000000 1.0
C      1  0.4484270000000  0.5492090000000  0.4738690000000 1.0
C      1  0.4491380000000  0.5099430000000  0.4464540000000 1.0
C      1  0.4486660000000  0.4634610000000  0.4592080000000 1.0
C      1  0.4468450000000  0.4422940000000  0.5021700000000 1.0
C      1  0.4485340000000  0.4664910000000  0.5438190000000 1.0
C      1  0.4498020000000  0.5146280000000  0.5506820000000 1.0
C      1  0.4467210000000  0.5522280000000  0.5214030000000 1.0
C      1  0.5207110000000  0.4974190000000  0.5857240000000 1.0
C      1  0.5171610000000  0.5662570000000  0.5604280000000 1.0
C      1  0.5176540000000  0.5917750000000  0.4859300000000 1.0
C      1  0.5186510000000  0.5436400000000  0.4250990000000 1.0
C      1  0.5193310000000  0.4654600000000  0.4173380000000 1.0
C      1  0.5178250000000  0.4132080000000  0.4735860000000 1.0
C      1  0.5177080000000  0.4248890000000  0.5509260000000 1.0
C      1  0.4729060000000  0.4863780000000  0.5852620000000 1.0
C      1  0.4681920000000  0.5576620000000  0.5671900000000 1.0
C      1  0.4691640000000  0.5902520000000  0.4962630000000 1.0
C      1  0.4708110000000  0.5541700000000  0.4294770000000 1.0
C      1  0.4706620000000  0.4764060000000  0.4153500000000 1.0
C      1  0.4688970000000  0.4174360000000  0.4631850000000 1.0
C      1  0.4695680000000  0.4194420000000  0.5413380000000 1.0
C      1  0.5231280000000  0.4983920000000  0.5115910000000 1.0
C      1  0.4987780000000  0.4995030000000  0.5004790000000 1.0
END
