TITL C-3578196-9646-97 -5.04317213790263e-07 125000 -937.955382309681 0 0 149 (C1) n - 1
REM
REM in /home/bkarasulu/work/CARBON/AIRSS/Generating-Clusters/EDIP-Nigel-Params/with-SteepDescent/Higher-Symm/SD-CG/HFTN-CG
REM
REM
REM
REM
REM
REM ./C.cell (12c818d87b63d06a65506943cc24bca4)
REM
REM compiler GCC version 9.2.1 20190827 (Red Hat 9.2.1-1)
REM options -cpp -mtune=generic -march=x86-64 -g -O0 -fpre-include=/usr/include/finclude/math-vector-fortran.h
REM seed 346144830 858283006 -979504456 2113303696 334932691 -677400217 -2007331098 -2059898309 1245782223 1029155791 1505686334 -1052209037 -42480492 1474895473 606151714 -1801218967 1868222712 -2075477576 1186731257 -368600395 1506403099 -545424445 1538144481 -2143381936 -1499419432 1749729702 843892319 412674564 945956751 38113006 1234498357 873865211 -335738205
REM
CELL 1.54180   50.00000   50.00000   50.00000   90.00000   90.00000   90.00000
LATT -1
SFAC C  
C      1  0.5490130000000  0.5664780000000  0.4677890000000 1.0
C      1  0.4548880000000  0.5552010000000  0.5777220000000 1.0
C      1  0.5551950000000  0.4732760000000  0.5436730000000 1.0
C      1  0.5486890000000  0.4246930000000  0.5436370000000 1.0
C      1  0.4542300000000  0.4404370000000  0.4699280000000 1.0
C      1  0.4520720000000  0.5690560000000  0.5414890000000 1.0
C      1  0.4534670000000  0.4425890000000  0.4193840000000 1.0
C      1  0.5422490000000  0.4513280000000  0.5606650000000 1.0
C      1  0.5493410000000  0.5476370000000  0.4234140000000 1.0
C      1  0.5578220000000  0.5404220000000  0.4515970000000 1.0
C      1  0.4252960000000  0.5439590000000  0.5544060000000 1.0
C      1  0.4335010000000  0.4505700000000  0.4514190000000 1.0
C      1  0.5640100000000  0.5253650000000  0.5445060000000 1.0
C      1  0.5368600000000  0.5683820000000  0.5364740000000 1.0
C      1  0.5171960000000  0.5369990000000  0.5654290000000 1.0
C      1  0.5604120000000  0.4825420000000  0.4515680000000 1.0
C      1  0.4412240000000  0.4802070000000  0.5327570000000 1.0
C      1  0.4444680000000  0.5250540000000  0.4745200000000 1.0
C      1  0.5365510000000  0.4432860000000  0.4698080000000 1.0
C      1  0.4651740000000  0.4389130000000  0.5187470000000 1.0
C      1  0.4720000000000  0.5628780000000  0.4899080000000 1.0
C      1  0.5223140000000  0.4658120000000  0.4285360000000 1.0
C      1  0.4854580000000  0.4680360000000  0.5535890000000 1.0
C      1  0.4885190000000  0.5314360000000  0.4498660000000 1.0
C      1  0.4929520000000  0.4478570000000  0.4933860000000 1.0
C      1  0.5181790000000  0.4968050000000  0.4314670000000 1.0
C      1  0.4564870000000  0.5075200000000  0.4968770000000 1.0
C      1  0.5030060000000  0.5676630000000  0.5011420000000 1.0
C      1  0.5078180000000  0.5720120000000  0.5336520000000 1.0
C      1  0.5064230000000  0.4358170000000  0.4662890000000 1.0
C      1  0.5095720000000  0.5070600000000  0.5627390000000 1.0
C      1  0.4875900000000  0.5022260000000  0.4385360000000 1.0
C      1  0.4767950000000  0.4963460000000  0.5628680000000 1.0
C      1  0.4391870000000  0.4809760000000  0.5018560000000 1.0
C      1  0.5401710000000  0.4673440000000  0.4908600000000 1.0
C      1  0.5232950000000  0.5138870000000  0.5052940000000 1.0
C      1  0.4093290000000  0.5448370000000  0.5291320000000 1.0
C      1  0.5305050000000  0.4020530000000  0.5467790000000 1.0
C      1  0.5484100000000  0.5248220000000  0.4046400000000 1.0
C      1  0.4095950000000  0.4518170000000  0.4719750000000 1.0
C      1  0.5789830000000  0.4674390000000  0.5287240000000 1.0
C      1  0.5863760000000  0.5425340000000  0.4647390000000 1.0
C      1  0.5319860000000  0.5894420000000  0.4635670000000 1.0
C      1  0.4661100000000  0.5956200000000  0.5419510000000 1.0
C      1  0.4659830000000  0.4143460000000  0.4658980000000 1.0
C      1  0.5445960000000  0.4710470000000  0.5867070000000 1.0
C      1  0.4576170000000  0.4664640000000  0.4036240000000 1.0
C      1  0.4551840000000  0.5314690000000  0.5950690000000 1.0
C      1  0.4367690000000  0.5097850000000  0.5875100000000 1.0
C      1  0.5740640000000  0.4463600000000  0.5097020000000 1.0
C      1  0.5140930000000  0.5878590000000  0.4409660000000 1.0
C      1  0.4431580000000  0.4875290000000  0.4174860000000 1.0
C      1  0.5628940000000  0.4962760000000  0.5857010000000 1.0
C      1  0.5674310000000  0.5036250000000  0.4010870000000 1.0
C      1  0.5862740000000  0.5598840000000  0.4902190000000 1.0
C      1  0.4253240000000  0.5577460000000  0.5076900000000 1.0
C      1  0.4164240000000  0.4372260000000  0.5004070000000 1.0
C      1  0.5086680000000  0.4072550000000  0.5658750000000 1.0
C      1  0.4815270000000  0.4097190000000  0.4407460000000 1.0
C      1  0.4849030000000  0.5945960000000  0.5648500000000 1.0
C      1  0.5224590000000  0.5433300000000  0.4928570000000 1.0
C      1  0.4955230000000  0.5513490000000  0.5506240000000 1.0
C      1  0.5209140000000  0.4987680000000  0.5346180000000 1.0
C      1  0.5184230000000  0.4543980000000  0.5107870000000 1.0
C      1  0.4810580000000  0.4737790000000  0.4816190000000 1.0
C      1  0.4593690000000  0.5240960000000  0.5207310000000 1.0
C      1  0.4957840000000  0.4527420000000  0.4415940000000 1.0
C      1  0.5116220000000  0.4704350000000  0.5352870000000 1.0
C      1  0.5154000000000  0.5389230000000  0.4625430000000 1.0
C      1  0.5324530000000  0.4960120000000  0.4833610000000 1.0
C      1  0.4533540000000  0.5058670000000  0.5437350000000 1.0
C      1  0.4766270000000  0.4765370000000  0.4525260000000 1.0
C      1  0.4020670000000  0.4514320000000  0.5224090000000 1.0
C      1  0.5086250000000  0.4023090000000  0.4494210000000 1.0
C      1  0.4576780000000  0.5126010000000  0.4164730000000 1.0
C      1  0.4208790000000  0.5434940000000  0.4820760000000 1.0
C      1  0.6043910000000  0.5514900000000  0.5111490000000 1.0
C      1  0.5767890000000  0.4565170000000  0.4833530000000 1.0
C      1  0.5104380000000  0.6038530000000  0.5544360000000 1.0
C      1  0.4881830000000  0.5986240000000  0.4513150000000 1.0
C      1  0.4835760000000  0.3966800000000  0.5539690000000 1.0
C      1  0.4522140000000  0.4854450000000  0.5900250000000 1.0
C      1  0.5529480000000  0.4820700000000  0.3884500000000 1.0
C      1  0.5549320000000  0.5167550000000  0.6039530000000 1.0
C      1  0.4769890000000  0.5092900000000  0.3964910000000 1.0
C      1  0.3891570000000  0.4744280000000  0.5094210000000 1.0
C      1  0.5055810000000  0.3926030000000  0.4762130000000 1.0
C      1  0.4750340000000  0.4903310000000  0.6063030000000 1.0
C      1  0.5255200000000  0.4934870000000  0.3800900000000 1.0
C      1  0.5273360000000  0.5116320000000  0.6072810000000 1.0
C      1  0.3988110000000  0.5244110000000  0.4866200000000 1.0
C      1  0.6140950000000  0.5261910000000  0.5010320000000 1.0
C      1  0.5981620000000  0.4754480000000  0.4863290000000 1.0
C      1  0.5088320000000  0.6155230000000  0.5280890000000 1.0
C      1  0.4958010000000  0.6147600000000  0.4748950000000 1.0
C      1  0.4914180000000  0.3825610000000  0.5292740000000 1.0
C      1  0.4904020000000  0.4524680000000  0.5792170000000 1.0
C      1  0.5862350000000  0.4871870000000  0.4408390000000 1.0
C      1  0.4619680000000  0.5880500000000  0.4773710000000 1.0
C      1  0.4932980000000  0.5471440000000  0.4225570000000 1.0
C      1  0.5060080000000  0.5577890000000  0.5951900000000 1.0
C      1  0.5297370000000  0.4595160000000  0.3991910000000 1.0
C      1  0.5922150000000  0.5292020000000  0.5395050000000 1.0
C      1  0.4310970000000  0.5052130000000  0.4563180000000 1.0
C      1  0.4127720000000  0.4804810000000  0.5455580000000 1.0
C      1  0.4589090000000  0.4121630000000  0.5292940000000 1.0
C      1  0.5474710000000  0.4134210000000  0.4901910000000 1.0
C      1  0.5513610000000  0.5856810000000  0.5174610000000 1.0
C      1  0.4984300000000  0.5293900000000  0.3993820000000 1.0
C      1  0.3924630000000  0.4962390000000  0.5286740000000 1.0
C      1  0.5280780000000  0.3927680000000  0.4951800000000 1.0
C      1  0.4971780000000  0.4722990000000  0.6002360000000 1.0
C      1  0.5050730000000  0.4706170000000  0.3835310000000 1.0
C      1  0.5049930000000  0.5314380000000  0.6074230000000 1.0
C      1  0.4045690000000  0.5014440000000  0.4687340000000 1.0
C      1  0.6070020000000  0.5090360000000  0.5236450000000 1.0
C      1  0.6015030000000  0.4938200000000  0.4638690000000 1.0
C      1  0.5319220000000  0.6082920000000  0.5088620000000 1.0
C      1  0.4725290000000  0.6111520000000  0.4924770000000 1.0
C      1  0.4705560000000  0.3927460000000  0.5112760000000 1.0
C      1  0.5980000000000  0.5191620000000  0.4773490000000 1.0
C      1  0.4826340000000  0.6044980000000  0.5191160000000 1.0
C      1  0.5193170000000  0.4892070000000  0.5893510000000 1.0
C      1  0.5911410000000  0.4875370000000  0.5121200000000 1.0
C      1  0.4092100000000  0.4788740000000  0.4871380000000 1.0
C      1  0.4038330000000  0.5195150000000  0.5153240000000 1.0
C      1  0.4825480000000  0.4054770000000  0.4878440000000 1.0
C      1  0.5169760000000  0.3945090000000  0.5222630000000 1.0
C      1  0.5158280000000  0.5955730000000  0.4872670000000 1.0
C      1  0.5221070000000  0.5121050000000  0.4040810000000 1.0
C      1  0.4802550000000  0.5182570000000  0.6008090000000 1.0
C      1  0.4833870000000  0.4807310000000  0.3996850000000 1.0
C      1  0.5531120000000  0.5005980000000  0.5565680000000 1.0
C      1  0.5561610000000  0.5626010000000  0.4969750000000 1.0
C      1  0.4843290000000  0.5656410000000  0.5742540000000 1.0
C      1  0.5405750000000  0.5054390000000  0.4550150000000 1.0
C      1  0.4285220000000  0.5137760000000  0.5595980000000 1.0
C      1  0.4445170000000  0.4795770000000  0.4460060000000 1.0
C      1  0.5497310000000  0.4313780000000  0.5141850000000 1.0
C      1  0.4455460000000  0.4476350000000  0.4974900000000 1.0
C      1  0.4537950000000  0.5536790000000  0.5152040000000 1.0
C      1  0.4802230000000  0.4338220000000  0.4239680000000 1.0
C      1  0.5120040000000  0.4341970000000  0.5757990000000 1.0
C      1  0.5199660000000  0.5584180000000  0.4341880000000 1.0
C      1  0.4669440000000  0.5426040000000  0.4670110000000 1.0
C      1  0.5460260000000  0.4575340000000  0.4449280000000 1.0
C      1  0.4609030000000  0.4584040000000  0.5399920000000 1.0
C      1  0.5442940000000  0.5452520000000  0.5526590000000 1.0
C      1  0.4835720000000  0.4989880000000  0.4923690000000 1.0
END
