TITL C-3577090-796-246 1.23253798378627e-06 125000 -350.887991949929 0 0 58 (C1) n - 1
REM
REM in /home/bkarasulu/work/CARBON/AIRSS/Generating-Clusters/EDIP-Nigel-Params/with-SteepDescent/Higher-Symm/SD-CG/HFTN-CG
REM
REM
REM
REM
REM
REM ./C.cell (12c818d87b63d06a65506943cc24bca4)
REM
REM compiler GCC version 9.2.1 20190827 (Red Hat 9.2.1-1)
REM options -cpp -mtune=generic -march=x86-64 -g -O0 -fpre-include=/usr/include/finclude/math-vector-fortran.h
REM seed 2029500870 -1481213340 -1663515675 -617203335 467265615 -963136546 -1566819037 -2146012314 1089451874 -1482057819 -870396464 1653851895 -1084972438 -1135810354 29060797 1150503394 1425585904 -268092685 -1409315170 -1958856192 -31212568 1725623862 -2008220696 -1195479221 -1655084062 -1865497381 -384736439 -1212589824 1741509952 1584510594 -1779854538 1939219672 586134925
REM
CELL 1.54180   50.00000   50.00000   50.00000   90.00000   90.00000   90.00000
LATT -1
SFAC C  
C      1  0.4580700000000  0.4539370000000  0.4874390000000 1.0
C      1  0.5264350000000  0.4348640000000  0.4923010000000 1.0
C      1  0.5606240000000  0.5044160000000  0.4887750000000 1.0
C      1  0.5102730000000  0.5559980000000  0.4928020000000 1.0
C      1  0.4426270000000  0.5420950000000  0.4830890000000 1.0
C      1  0.4589500000000  0.4533170000000  0.5167310000000 1.0
C      1  0.5252120000000  0.4498170000000  0.5189910000000 1.0
C      1  0.5739840000000  0.5039390000000  0.5151320000000 1.0
C      1  0.5229990000000  0.5652740000000  0.5175030000000 1.0
C      1  0.4452030000000  0.5368390000000  0.5134900000000 1.0
C      1  0.4735680000000  0.5585200000000  0.5286530000000 1.0
C      1  0.4314110000000  0.4936330000000  0.5288710000000 1.0
C      1  0.4987460000000  0.4415720000000  0.5455220000000 1.0
C      1  0.5562700000000  0.4864610000000  0.5316290000000 1.0
C      1  0.5396810000000  0.5461770000000  0.5342400000000 1.0
C      1  0.4699290000000  0.5659960000000  0.4691030000000 1.0
C      1  0.4343670000000  0.4945810000000  0.4813290000000 1.0
C      1  0.5039990000000  0.4362810000000  0.4720630000000 1.0
C      1  0.5534700000000  0.4789000000000  0.4738360000000 1.0
C      1  0.5220970000000  0.5334560000000  0.4762750000000 1.0
C      1  0.4793070000000  0.4336890000000  0.5254880000000 1.0
C      1  0.5546290000000  0.4579250000000  0.5239370000000 1.0
C      1  0.5732230000000  0.5321380000000  0.5232890000000 1.0
C      1  0.4992210000000  0.5773730000000  0.5306250000000 1.0
C      1  0.4221360000000  0.5185990000000  0.5208290000000 1.0
C      1  0.4740930000000  0.4298500000000  0.4787250000000 1.0
C      1  0.5518170000000  0.4413810000000  0.4804550000000 1.0
C      1  0.5519540000000  0.5316400000000  0.4807740000000 1.0
C      1  0.4909740000000  0.5762850000000  0.4847340000000 1.0
C      1  0.4239710000000  0.5205650000000  0.4741490000000 1.0
C      1  0.4764900000000  0.5125190000000  0.5508770000000 1.0
C      1  0.4717420000000  0.4840370000000  0.5516510000000 1.0
C      1  0.4983900000000  0.4712780000000  0.5492750000000 1.0
C      1  0.5165950000000  0.4816630000000  0.5700070000000 1.0
C      1  0.5041600000000  0.5173350000000  0.5615300000000 1.0
C      1  0.4816240000000  0.5209700000000  0.4498010000000 1.0
C      1  0.4720870000000  0.4921730000000  0.4510900000000 1.0
C      1  0.4904430000000  0.4728680000000  0.4380610000000 1.0
C      1  0.5242150000000  0.5015640000000  0.4392930000000 1.0
C      1  0.5113580000000  0.5267820000000  0.4476210000000 1.0
C      1  0.4624360000000  0.4849930000000  0.4794590000000 1.0
C      1  0.5049990000000  0.4644140000000  0.4620180000000 1.0
C      1  0.5246720000000  0.4865760000000  0.4659140000000 1.0
C      1  0.5141980000000  0.5059770000000  0.4882470000000 1.0
C      1  0.4697040000000  0.5377120000000  0.4702960000000 1.0
C      1  0.4553220000000  0.4793870000000  0.5291630000000 1.0
C      1  0.5084800000000  0.4773560000000  0.5210700000000 1.0
C      1  0.5303410000000  0.4994790000000  0.5207590000000 1.0
C      1  0.5237660000000  0.5216790000000  0.5390390000000 1.0
C      1  0.4736830000000  0.5226910000000  0.5220270000000 1.0
C      1  0.4833860000000  0.5901300000000  0.5089040000000 1.0
C      1  0.5611270000000  0.5479720000000  0.5027340000000 1.0
C      1  0.5686760000000  0.4542960000000  0.4989500000000 1.0
C      1  0.4866980000000  0.4183810000000  0.5021910000000 1.0
C      1  0.4060600000000  0.5164710000000  0.4968050000000 1.0
C      1  0.5119720000000  0.5034540000000  0.5858830000000 1.0
C      1  0.5079290000000  0.4874240000000  0.4207080000000 1.0
C      1  0.4837070000000  0.4990980000000  0.5009800000000 1.0
END
