TITL C-3578201-9217-206 -1.12949160940146e-06 125000 -260.95766110972 0 0 43 (C1) n - 1
REM
REM in /home/bkarasulu/work/CARBON/AIRSS/Generating-Clusters/EDIP-Nigel-Params/with-SteepDescent/Higher-Symm/SD-CG/HFTN-CG
REM
REM
REM
REM
REM
REM ./C.cell (12c818d87b63d06a65506943cc24bca4)
REM
REM compiler GCC version 9.2.1 20190827 (Red Hat 9.2.1-1)
REM options -cpp -mtune=generic -march=x86-64 -g -O0 -fpre-include=/usr/include/finclude/math-vector-fortran.h
REM seed 1418888725 -1543321492 -1734018154 -1554615605 1502091812 2093059743 639904486 -1635754481 590506040 1601183417 -1763477661 -1047719405 546741992 1910018025 -1724639649 1472507488 -1604068057 -674331247 1006730290 30117506 835558435 1461041111 -536580986 1590997705 -68803261 1398965324 739658831 -1291109140 328777151 1269531658 -23445022 -22463883 -1686917265
REM
CELL 1.54180   50.00000   50.00000   50.00000   90.00000   90.00000   90.00000
LATT -1
SFAC C  
C      1  0.5204630000000  0.5395310000000  0.4901760000000 1.0
C      1  0.4714020000000  0.4580540000000  0.4875280000000 1.0
C      1  0.5305670000000  0.5457070000000  0.5189300000000 1.0
C      1  0.4816960000000  0.4611220000000  0.5154350000000 1.0
C      1  0.5270990000000  0.4916670000000  0.4359700000000 1.0
C      1  0.4781420000000  0.5093490000000  0.4307350000000 1.0
C      1  0.5266060000000  0.4890380000000  0.5700200000000 1.0
C      1  0.4784600000000  0.5069860000000  0.5756290000000 1.0
C      1  0.5343520000000  0.4940550000000  0.5157590000000 1.0
C      1  0.4525510000000  0.5037000000000  0.5187080000000 1.0
C      1  0.5345150000000  0.4932770000000  0.4847090000000 1.0
C      1  0.4539520000000  0.5057050000000  0.4874710000000 1.0
C      1  0.4890190000000  0.5354820000000  0.5372270000000 1.0
C      1  0.5126540000000  0.4531190000000  0.5383750000000 1.0
C      1  0.4865250000000  0.5490000000000  0.4596360000000 1.0
C      1  0.5117990000000  0.4587540000000  0.4700410000000 1.0
C      1  0.5235980000000  0.5174570000000  0.4469000000000 1.0
C      1  0.4794530000000  0.4837350000000  0.4428680000000 1.0
C      1  0.5249590000000  0.5160930000000  0.5618360000000 1.0
C      1  0.4801310000000  0.4842880000000  0.5590810000000 1.0
C      1  0.4771380000000  0.4886690000000  0.5291000000000 1.0
C      1  0.5391020000000  0.5210080000000  0.5347610000000 1.0
C      1  0.4721150000000  0.4845250000000  0.4737150000000 1.0
C      1  0.5378640000000  0.5217000000000  0.4727940000000 1.0
C      1  0.4937930000000  0.4116360000000  0.5163640000000 1.0
C      1  0.4978080000000  0.5792520000000  0.5149650000000 1.0
C      1  0.4941490000000  0.4170570000000  0.4901700000000 1.0
C      1  0.4997630000000  0.5848420000000  0.4888170000000 1.0
C      1  0.5341190000000  0.4546380000000  0.4902810000000 1.0
C      1  0.4694360000000  0.5324800000000  0.4903720000000 1.0
C      1  0.5331900000000  0.4641250000000  0.5182390000000 1.0
C      1  0.4611970000000  0.5335570000000  0.5214740000000 1.0
C      1  0.4890980000000  0.4393040000000  0.4742840000000 1.0
C      1  0.5068650000000  0.5617580000000  0.4750020000000 1.0
C      1  0.4888850000000  0.4350970000000  0.5305590000000 1.0
C      1  0.5072590000000  0.5586830000000  0.5310310000000 1.0
C      1  0.4962910000000  0.5254390000000  0.5641570000000 1.0
C      1  0.5065310000000  0.4709360000000  0.5619450000000 1.0
C      1  0.4951940000000  0.5250650000000  0.4466640000000 1.0
C      1  0.5076650000000  0.4720470000000  0.4419410000000 1.0
C      1  0.4992960000000  0.5095080000000  0.5226860000000 1.0
C      1  0.5020230000000  0.4955790000000  0.4785390000000 1.0
C      1  0.4974230000000  0.5202090000000  0.4948350000000 1.0
END
