TITL C-3577091-527-183 1.47300773270152e-06 125000 -403.511954801725 0 0 68 (C2h) n - 1
REM
REM in /home/bkarasulu/work/CARBON/AIRSS/Generating-Clusters/EDIP-Nigel-Params/with-SteepDescent/Higher-Symm/SD-CG/HFTN-CG
REM
REM
REM
REM
REM
REM ./C.cell (12c818d87b63d06a65506943cc24bca4)
REM
REM compiler GCC version 9.2.1 20190827 (Red Hat 9.2.1-1)
REM options -cpp -mtune=generic -march=x86-64 -g -O0 -fpre-include=/usr/include/finclude/math-vector-fortran.h
REM seed 1130506966 -702362035 -529000722 -1023371647 -1492289948 2114718976 -653215553 204767089 1827005443 346662081 1089976936 -942532611 1167495556 554623414 1856269701 -465034371 -1414116160 -1769029245 1594104751 1685659321 110673648 161287126 -1279230168 1192063873 -812942699 603167131 890705096 896945634 -1525741273 -1951832615 -1125632692 -1772265340 1375376548
REM
CELL 1.54180   50.00000   50.00000   50.00000   90.00000   90.00000   90.00000
LATT -1
SFAC C  
C      1  0.4470400000000  0.5564140000000  0.5267980000000 1.0
C      1  0.5534790000000  0.5561900000000  0.4737700000000 1.0
C      1  0.4465210000000  0.4438100000000  0.5262300000000 1.0
C      1  0.5529600000000  0.4435860000000  0.4732020000000 1.0
C      1  0.4462610000000  0.5588330000000  0.4713250000000 1.0
C      1  0.5542780000000  0.5580420000000  0.5292650000000 1.0
C      1  0.4457220000000  0.4419580000000  0.4707350000000 1.0
C      1  0.5537390000000  0.4411670000000  0.5286750000000 1.0
C      1  0.5170330000000  0.4842750000000  0.5677630000000 1.0
C      1  0.4828260000000  0.4851170000000  0.4320830000000 1.0
C      1  0.5171740000000  0.5148830000000  0.5679170000000 1.0
C      1  0.4829670000000  0.5157250000000  0.4322370000000 1.0
C      1  0.5143040000000  0.4848890000000  0.4272500000000 1.0
C      1  0.4855540000000  0.4842890000000  0.5725940000000 1.0
C      1  0.5144460000000  0.5157110000000  0.4274060000000 1.0
C      1  0.4856960000000  0.5151110000000  0.5727500000000 1.0
C      1  0.4494170000000  0.4459430000000  0.4428870000000 1.0
C      1  0.5500790000000  0.4449050000000  0.5565630000000 1.0
C      1  0.4499210000000  0.5550950000000  0.4434370000000 1.0
C      1  0.5505830000000  0.5540570000000  0.5571130000000 1.0
C      1  0.4503160000000  0.4469490000000  0.5543870000000 1.0
C      1  0.5491950000000  0.4470440000000  0.4450780000000 1.0
C      1  0.4508050000000  0.5529560000000  0.5549220000000 1.0
C      1  0.5496840000000  0.5530510000000  0.4456130000000 1.0
C      1  0.5664710000000  0.4662370000000  0.5168900000000 1.0
C      1  0.4332210000000  0.4670240000000  0.4827730000000 1.0
C      1  0.5667790000000  0.5329760000000  0.5172270000000 1.0
C      1  0.4335290000000  0.5337630000000  0.4831100000000 1.0
C      1  0.5638870000000  0.4670580000000  0.4871440000000 1.0
C      1  0.4358110000000  0.4675210000000  0.5125260000000 1.0
C      1  0.5641890000000  0.5324790000000  0.4874740000000 1.0
C      1  0.4361130000000  0.5329420000000  0.5128560000000 1.0
C      1  0.4605580000000  0.5154530000000  0.5366060000000 1.0
C      1  0.5395850000000  0.5154570000000  0.4635500000000 1.0
C      1  0.4604150000000  0.4845430000000  0.5364500000000 1.0
C      1  0.5394420000000  0.4845470000000  0.4633940000000 1.0
C      1  0.4504910000000  0.5158770000000  0.4622990000000 1.0
C      1  0.5496520000000  0.5150380000000  0.5378570000000 1.0
C      1  0.4503480000000  0.4849620000000  0.4621430000000 1.0
C      1  0.5495090000000  0.4841230000000  0.5377010000000 1.0
C      1  0.4838380000000  0.4690670000000  0.4722510000000 1.0
C      1  0.5158750000000  0.4686410000000  0.5274350000000 1.0
C      1  0.4841250000000  0.5313590000000  0.4725650000000 1.0
C      1  0.5161620000000  0.5309330000000  0.5277490000000 1.0
C      1  0.4830200000000  0.4703850000000  0.5204930000000 1.0
C      1  0.5167070000000  0.4704380000000  0.4792090000000 1.0
C      1  0.4832930000000  0.5295620000000  0.5207910000000 1.0
C      1  0.5169800000000  0.5296150000000  0.4795070000000 1.0
C      1  0.5267200000000  0.5576390000000  0.4869190000000 1.0
C      1  0.4738120000000  0.5577480000000  0.5136630000000 1.0
C      1  0.5261880000000  0.4422520000000  0.4863370000000 1.0
C      1  0.4732800000000  0.4423610000000  0.5130810000000 1.0
C      1  0.5268090000000  0.5582940000000  0.5177520000000 1.0
C      1  0.4737310000000  0.5587150000000  0.4828380000000 1.0
C      1  0.5262690000000  0.4412850000000  0.5171620000000 1.0
C      1  0.4731910000000  0.4417060000000  0.4822480000000 1.0
C      1  0.4590720000000  0.5327170000000  0.4291390000000 1.0
C      1  0.5412250000000  0.5316210000000  0.5711860000000 1.0
C      1  0.4587750000000  0.4683790000000  0.4288140000000 1.0
C      1  0.5409280000000  0.4672830000000  0.5708610000000 1.0
C      1  0.4614590000000  0.5322430000000  0.5711520000000 1.0
C      1  0.5388400000000  0.5326020000000  0.4291760000000 1.0
C      1  0.4611600000000  0.4673980000000  0.5708240000000 1.0
C      1  0.5385410000000  0.4677570000000  0.4288480000000 1.0
C      1  0.5215910000000  0.4854580000000  0.5039940000000 1.0
C      1  0.4784090000000  0.5145420000000  0.4960060000000 1.0
C      1  0.4782750000000  0.4856990000000  0.4958600000000 1.0
C      1  0.5217250000000  0.5143010000000  0.5041400000000 1.0
END
