TITL C-3578195-8548-109 5.44898034973979e-08 125000 -142.366576943393 0 0 24 (C1) n - 1
REM
REM in /home/bkarasulu/work/CARBON/AIRSS/Generating-Clusters/EDIP-Nigel-Params/with-SteepDescent/Higher-Symm/SD-CG/HFTN-CG
REM
REM
REM
REM
REM
REM ./C.cell (12c818d87b63d06a65506943cc24bca4)
REM
REM compiler GCC version 9.2.1 20190827 (Red Hat 9.2.1-1)
REM options -cpp -mtune=generic -march=x86-64 -g -O0 -fpre-include=/usr/include/finclude/math-vector-fortran.h
REM seed 1629134160 1113748220 -419882926 997127463 1212961394 1764328409 -1912360754 -386781428 -110102486 512312787 1464855683 790842132 -1630598249 -1068495890 -684499348 22519619 -1112767938 1982529973 -1797281519 -384362077 1946010092 -862653542 -1273877384 1635472145 691955374 -1941613553 890599509 -46321175 -581265743 -381735568 388211643 1446253165 1056721109
REM
CELL 1.54180   50.00000   50.00000   50.00000   90.00000   90.00000   90.00000
LATT -1
SFAC C  
C      1  0.5111070000000  0.4618760000000  0.5089910000000 1.0
C      1  0.5037350000000  0.4508390000000  0.4841020000000 1.0
C      1  0.5079130000000  0.4692730000000  0.4595090000000 1.0
C      1  0.5217060000000  0.4961220000000  0.4658100000000 1.0
C      1  0.5062270000000  0.5203620000000  0.4744140000000 1.0
C      1  0.5160380000000  0.5403160000000  0.4911660000000 1.0
C      1  0.5007970000000  0.5492650000000  0.5129600000000 1.0
C      1  0.5084150000000  0.5419710000000  0.5391120000000 1.0
C      1  0.4950790000000  0.5192110000000  0.5490920000000 1.0
C      1  0.5071110000000  0.4939480000000  0.5463910000000 1.0
C      1  0.4966300000000  0.4754880000000  0.5283340000000 1.0
C      1  0.4542100000000  0.4949390000000  0.5392110000000 1.0
C      1  0.4684420000000  0.4760330000000  0.5245140000000 1.0
C      1  0.4591790000000  0.4632370000000  0.5017250000000 1.0
C      1  0.4726840000000  0.4519650000000  0.4796100000000 1.0
C      1  0.4770760000000  0.4713000000000  0.4554970000000 1.0
C      1  0.4672980000000  0.4973660000000  0.4593570000000 1.0
C      1  0.4781630000000  0.5205580000000  0.4697160000000 1.0
C      1  0.4635680000000  0.5398390000000  0.4835250000000 1.0
C      1  0.4717990000000  0.5493830000000  0.5086140000000 1.0
C      1  0.4567940000000  0.5427710000000  0.5315540000000 1.0
C      1  0.4660010000000  0.5197690000000  0.5450170000000 1.0
C      1  0.5496920000000  0.4945530000000  0.4754290000000 1.0
C      1  0.5457730000000  0.5018940000000  0.4495850000000 1.0
END
