TITL C-3577087-600-72 -9.24998457431876e-07 125000 -982.374156437479 0 0 154 (C1) n - 1
REM
REM in /home/bkarasulu/work/CARBON/AIRSS/Generating-Clusters/EDIP-Nigel-Params/with-SteepDescent/Higher-Symm/SD-CG/HFTN-CG
REM
REM
REM
REM
REM
REM ./C.cell (12c818d87b63d06a65506943cc24bca4)
REM
REM compiler GCC version 9.2.1 20190827 (Red Hat 9.2.1-1)
REM options -cpp -mtune=generic -march=x86-64 -g -O0 -fpre-include=/usr/include/finclude/math-vector-fortran.h
REM seed 691075291 -694265581 46985526 -1243996672 1055697079 -434382548 -887199268 -585769682 -255280734 -1199310902 2051783393 -354038613 999908295 -262529173 -536257152 -1414836604 1225306773 -1454417099 773798497 -1439715357 1987505773 907464857 1906845723 1675007599 1054742565 910642050 -73305167 -2032360071 801975785 -284971542 -803149583 -788786105 359916351
REM
CELL 1.54180   50.00000   50.00000   50.00000   90.00000   90.00000   90.00000
LATT -1
SFAC C  
C      1  0.5618370000000  0.5460840000000  0.5570430000000 1.0
C      1  0.5229520000000  0.5749260000000  0.4414580000000 1.0
C      1  0.4761240000000  0.5738830000000  0.5572350000000 1.0
C      1  0.4371570000000  0.5460390000000  0.4413830000000 1.0
C      1  0.4203170000000  0.5006390000000  0.5597920000000 1.0
C      1  0.4386680000000  0.4549910000000  0.4429880000000 1.0
C      1  0.4759390000000  0.4237750000000  0.5563750000000 1.0
C      1  0.5267810000000  0.4269650000000  0.4431430000000 1.0
C      1  0.5648350000000  0.4536590000000  0.5532340000000 1.0
C      1  0.5787500000000  0.5025030000000  0.4408040000000 1.0
C      1  0.4883100000000  0.4073790000000  0.4709350000000 1.0
C      1  0.5470270000000  0.4108160000000  0.5333160000000 1.0
C      1  0.5876870000000  0.4605200000000  0.4682790000000 1.0
C      1  0.5966880000000  0.5190810000000  0.5321110000000 1.0
C      1  0.5670170000000  0.5722540000000  0.4670470000000 1.0
C      1  0.5129730000000  0.5984630000000  0.5323460000000 1.0
C      1  0.4525060000000  0.5888200000000  0.4661150000000 1.0
C      1  0.4109320000000  0.5447650000000  0.5327690000000 1.0
C      1  0.4040610000000  0.4839710000000  0.4683080000000 1.0
C      1  0.4291960000000  0.4307900000000  0.5338520000000 1.0
C      1  0.4465390000000  0.4638580000000  0.4144650000000 1.0
C      1  0.4752890000000  0.4364910000000  0.5836110000000 1.0
C      1  0.5189530000000  0.4360910000000  0.4153000000000 1.0
C      1  0.5513850000000  0.4536830000000  0.5800020000000 1.0
C      1  0.5680640000000  0.4947520000000  0.4129580000000 1.0
C      1  0.5575220000000  0.5310520000000  0.5832550000000 1.0
C      1  0.5256910000000  0.5587600000000  0.4156290000000 1.0
C      1  0.4869980000000  0.5598940000000  0.5824980000000 1.0
C      1  0.4519570000000  0.5409030000000  0.4149420000000 1.0
C      1  0.4356840000000  0.5035330000000  0.5864090000000 1.0
C      1  0.5806090000000  0.5442400000000  0.5341510000000 1.0
C      1  0.5395620000000  0.5838960000000  0.4647350000000 1.0
C      1  0.4838190000000  0.5918790000000  0.5343020000000 1.0
C      1  0.4331370000000  0.5657010000000  0.4640060000000 1.0
C      1  0.4078430000000  0.5148370000000  0.5358620000000 1.0
C      1  0.4206380000000  0.4591510000000  0.4666660000000 1.0
C      1  0.4531670000000  0.4153610000000  0.5402890000000 1.0
C      1  0.5168230000000  0.4138830000000  0.4680470000000 1.0
C      1  0.5684260000000  0.4300040000000  0.5372930000000 1.0
C      1  0.5906130000000  0.4898450000000  0.4649930000000 1.0
C      1  0.5059270000000  0.4621390000000  0.5171170000000 1.0
C      1  0.5265610000000  0.4721970000000  0.4949080000000 1.0
C      1  0.5419290000000  0.4940420000000  0.5066780000000 1.0
C      1  0.5384940000000  0.5191610000000  0.4931120000000 1.0
C      1  0.5195910000000  0.5381700000000  0.5062250000000 1.0
C      1  0.4936520000000  0.5454070000000  0.4904730000000 1.0
C      1  0.4692620000000  0.5365510000000  0.5045530000000 1.0
C      1  0.4565470000000  0.5119160000000  0.4953180000000 1.0
C      1  0.4596600000000  0.4869300000000  0.5106350000000 1.0
C      1  0.4795420000000  0.4672510000000  0.5018180000000 1.0
C      1  0.4164300000000  0.5252840000000  0.4419950000000 1.0
C      1  0.4147210000000  0.4716550000000  0.5588800000000 1.0
C      1  0.4526350000000  0.4296320000000  0.4462710000000 1.0
C      1  0.5011230000000  0.4077960000000  0.5561150000000 1.0
C      1  0.5554460000000  0.4315610000000  0.4446270000000 1.0
C      1  0.5867010000000  0.4736050000000  0.5538760000000 1.0
C      1  0.5831290000000  0.5313830000000  0.4418720000000 1.0
C      1  0.5491640000000  0.5724330000000  0.5579110000000 1.0
C      1  0.4973530000000  0.5893200000000  0.4402060000000 1.0
C      1  0.4470610000000  0.5701130000000  0.5582660000000 1.0
C      1  0.4769220000000  0.5082900000000  0.5606550000000 1.0
C      1  0.4767510000000  0.4957840000000  0.4342390000000 1.0
C      1  0.4808490000000  0.4792490000000  0.5616840000000 1.0
C      1  0.4947000000000  0.4736130000000  0.4389980000000 1.0
C      1  0.5094070000000  0.4717590000000  0.5544310000000 1.0
C      1  0.5135630000000  0.4852220000000  0.4608900000000 1.0
C      1  0.5281110000000  0.4965850000000  0.5608380000000 1.0
C      1  0.4917180000000  0.5277750000000  0.4661560000000 1.0
C      1  0.4936370000000  0.5206520000000  0.5371880000000 1.0
C      1  0.4933110000000  0.5204460000000  0.4366260000000 1.0
C      1  0.6083200000000  0.5155050000000  0.5061150000000 1.0
C      1  0.5792120000000  0.5759230000000  0.4927950000000 1.0
C      1  0.5209370000000  0.6089790000000  0.5067840000000 1.0
C      1  0.4527490000000  0.6020500000000  0.4917500000000 1.0
C      1  0.4027540000000  0.5553730000000  0.5072210000000 1.0
C      1  0.3909780000000  0.4879140000000  0.4936490000000 1.0
C      1  0.4193840000000  0.4280460000000  0.5072660000000 1.0
C      1  0.4816480000000  0.3966540000000  0.4963680000000 1.0
C      1  0.5460820000000  0.4022970000000  0.5063120000000 1.0
C      1  0.5951860000000  0.4510930000000  0.4939940000000 1.0
C      1  0.5232380000000  0.5845170000000  0.4913230000000 1.0
C      1  0.4697100000000  0.5840170000000  0.5070030000000 1.0
C      1  0.4268280000000  0.5510780000000  0.4914550000000 1.0
C      1  0.4127350000000  0.4991030000000  0.5093170000000 1.0
C      1  0.4329000000000  0.4499400000000  0.4937570000000 1.0
C      1  0.4782710000000  0.4203660000000  0.5121280000000 1.0
C      1  0.5297550000000  0.4229560000000  0.4941350000000 1.0
C      1  0.5711750000000  0.4552500000000  0.5091500000000 1.0
C      1  0.5855120000000  0.5053690000000  0.4912870000000 1.0
C      1  0.5670820000000  0.5542270000000  0.5077700000000 1.0
C      1  0.5790750000000  0.4959790000000  0.5373430000000 1.0
C      1  0.5660760000000  0.5433720000000  0.4616020000000 1.0
C      1  0.5287330000000  0.5741630000000  0.5377220000000 1.0
C      1  0.4799870000000  0.5794740000000  0.4607560000000 1.0
C      1  0.4388860000000  0.5529310000000  0.5369180000000 1.0
C      1  0.4213220000000  0.5071820000000  0.4635780000000 1.0
C      1  0.4312370000000  0.4596120000000  0.5389590000000 1.0
C      1  0.4725820000000  0.4315430000000  0.4667560000000 1.0
C      1  0.5205210000000  0.4218440000000  0.5401780000000 1.0
C      1  0.5599880000000  0.4523370000000  0.4636400000000 1.0
C      1  0.4329980000000  0.4742720000000  0.5132250000000 1.0
C      1  0.4648930000000  0.4420210000000  0.4935880000000 1.0
C      1  0.5079710000000  0.4313880000000  0.5157200000000 1.0
C      1  0.5468890000000  0.4494950000000  0.4902000000000 1.0
C      1  0.5699720000000  0.4868720000000  0.5110280000000 1.0
C      1  0.5653250000000  0.5302150000000  0.4881190000000 1.0
C      1  0.5357990000000  0.5633820000000  0.5111570000000 1.0
C      1  0.4923810000000  0.5750490000000  0.4869450000000 1.0
C      1  0.4505700000000  0.5579420000000  0.5102340000000 1.0
C      1  0.4283110000000  0.5183020000000  0.4900000000000 1.0
C      1  0.4893050000000  0.5205560000000  0.3864130000000 1.0
C      1  0.4796260000000  0.5067300000000  0.6106970000000 1.0
C      1  0.4772420000000  0.4932940000000  0.3859890000000 1.0
C      1  0.4848880000000  0.4775410000000  0.6099030000000 1.0
C      1  0.4993360000000  0.4735980000000  0.3876430000000 1.0
C      1  0.5138970000000  0.4732020000000  0.6074360000000 1.0
C      1  0.5248710000000  0.4881120000000  0.3862320000000 1.0
C      1  0.5267380000000  0.4997240000000  0.6092810000000 1.0
C      1  0.5187680000000  0.5171380000000  0.3866170000000 1.0
C      1  0.5056010000000  0.5203200000000  0.6096640000000 1.0
C      1  0.5641600000000  0.4780930000000  0.5914080000000 1.0
C      1  0.5618500000000  0.5226120000000  0.4043800000000 1.0
C      1  0.5372510000000  0.5503440000000  0.5940800000000 1.0
C      1  0.4984140000000  0.5627950000000  0.4050490000000 1.0
C      1  0.4623730000000  0.5473620000000  0.5928120000000 1.0
C      1  0.4397550000000  0.5153580000000  0.4058770000000 1.0
C      1  0.4405760000000  0.4751520000000  0.5943500000000 1.0
C      1  0.4678100000000  0.4438220000000  0.4073410000000 1.0
C      1  0.5035170000000  0.4323310000000  0.5925030000000 1.0
C      1  0.5447600000000  0.4480510000000  0.4050440000000 1.0
C      1  0.4955670000000  0.4560190000000  0.4124900000000 1.0
C      1  0.5205810000000  0.4562660000000  0.5826580000000 1.0
C      1  0.5447680000000  0.4774690000000  0.4050170000000 1.0
C      1  0.5455470000000  0.5015830000000  0.5859320000000 1.0
C      1  0.5327180000000  0.5284880000000  0.4109570000000 1.0
C      1  0.5102120000000  0.5393040000000  0.5864670000000 1.0
C      1  0.4824980000000  0.5377840000000  0.4107980000000 1.0
C      1  0.4627980000000  0.5175550000000  0.5880290000000 1.0
C      1  0.4589000000000  0.4919130000000  0.4099600000000 1.0
C      1  0.4694010000000  0.4662510000000  0.5868470000000 1.0
C      1  0.4395180000000  0.5613010000000  0.5839420000000 1.0
C      1  0.4139030000000  0.5128420000000  0.4168060000000 1.0
C      1  0.4189430000000  0.4599070000000  0.5843230000000 1.0
C      1  0.4623390000000  0.4200660000000  0.4214950000000 1.0
C      1  0.5109060000000  0.4065750000000  0.5828030000000 1.0
C      1  0.5664140000000  0.4363740000000  0.4190700000000 1.0
C      1  0.5903710000000  0.4809520000000  0.5809610000000 1.0
C      1  0.5801340000000  0.5411820000000  0.4156240000000 1.0
C      1  0.5413590000000  0.5767340000000  0.5845990000000 1.0
C      1  0.4872180000000  0.5871630000000  0.4140390000000 1.0
C      1  0.4971760000000  0.5021030000000  0.4808200000000 1.0
C      1  0.4997410000000  0.5051300000000  0.5119720000000 1.0
C      1  0.5219180000000  0.5122090000000  0.4344190000000 1.0
C      1  0.5134750000000  0.5221140000000  0.5594990000000 1.0
END
