TITL C-3578199-7832-784 -1.4098305522034e-06 125000 -1200.79333721317 0 0 192 (C1) n - 1
REM
REM in /home/bkarasulu/work/CARBON/AIRSS/Generating-Clusters/EDIP-Nigel-Params/with-SteepDescent/Higher-Symm/SD-CG/HFTN-CG
REM
REM
REM
REM
REM
REM ./C.cell (12c818d87b63d06a65506943cc24bca4)
REM
REM compiler GCC version 9.2.1 20190827 (Red Hat 9.2.1-1)
REM options -cpp -mtune=generic -march=x86-64 -g -O0 -fpre-include=/usr/include/finclude/math-vector-fortran.h
REM seed -1727257235 -1273654589 -322003672 1325799890 1410230500 -1651387429 -992104178 -1140095163 -630314870 390424397 -1020786115 1761634887 -93007720 1407532497 -731250856 1859109421 1993332869 -382733929 1752138016 -984844321 -557211433 1680625237 1107855631 -15168046 610499322 1997677629 -1948335171 -1482595369 73681613 -327100275 596607704 953411370 1660864319
REM
CELL 1.54180   50.00000   50.00000   50.00000   90.00000   90.00000   90.00000
LATT -1
SFAC C  
C      1  0.4830150000000  0.5682120000000  0.4522250000000 1.0
C      1  0.4883420000000  0.4350780000000  0.4495360000000 1.0
C      1  0.5667870000000  0.5565560000000  0.4426070000000 1.0
C      1  0.5696190000000  0.4457640000000  0.4420500000000 1.0
C      1  0.5283220000000  0.5840260000000  0.4593870000000 1.0
C      1  0.5313280000000  0.4166390000000  0.4604410000000 1.0
C      1  0.5449210000000  0.5649250000000  0.5585580000000 1.0
C      1  0.5426730000000  0.4355360000000  0.5610370000000 1.0
C      1  0.3639770000000  0.5156240000000  0.4921670000000 1.0
C      1  0.3649580000000  0.4850720000000  0.4932340000000 1.0
C      1  0.6162360000000  0.4842420000000  0.5044150000000 1.0
C      1  0.6098120000000  0.5122560000000  0.5071690000000 1.0
C      1  0.5151710000000  0.4002040000000  0.5414020000000 1.0
C      1  0.5177110000000  0.6017190000000  0.5399220000000 1.0
C      1  0.4314360000000  0.5684010000000  0.5261390000000 1.0
C      1  0.4249580000000  0.4247240000000  0.5252630000000 1.0
C      1  0.5902730000000  0.5559610000000  0.5580060000000 1.0
C      1  0.5880140000000  0.4445200000000  0.5609100000000 1.0
C      1  0.4184510000000  0.5426030000000  0.5138070000000 1.0
C      1  0.4068810000000  0.4473090000000  0.5166430000000 1.0
C      1  0.5103950000000  0.5658260000000  0.5162220000000 1.0
C      1  0.5067040000000  0.4354230000000  0.5168590000000 1.0
C      1  0.5420700000000  0.6012820000000  0.5221570000000 1.0
C      1  0.5399300000000  0.3994160000000  0.5247720000000 1.0
C      1  0.5831330000000  0.4276250000000  0.5366130000000 1.0
C      1  0.5851140000000  0.5726770000000  0.5338480000000 1.0
C      1  0.4467220000000  0.5524270000000  0.4704120000000 1.0
C      1  0.4458370000000  0.4440910000000  0.4753410000000 1.0
C      1  0.4507910000000  0.4172740000000  0.5406310000000 1.0
C      1  0.4569610000000  0.5792480000000  0.5414630000000 1.0
C      1  0.5633000000000  0.4717870000000  0.5873920000000 1.0
C      1  0.5657090000000  0.5283680000000  0.5849310000000 1.0
C      1  0.4514370000000  0.3926100000000  0.5004140000000 1.0
C      1  0.4510420000000  0.6086780000000  0.5055590000000 1.0
C      1  0.4062120000000  0.5548750000000  0.4864810000000 1.0
C      1  0.4030530000000  0.4451070000000  0.4868190000000 1.0
C      1  0.5252470000000  0.6122810000000  0.4483980000000 1.0
C      1  0.5280220000000  0.3884290000000  0.4497170000000 1.0
C      1  0.5561070000000  0.4301960000000  0.4983630000000 1.0
C      1  0.5576590000000  0.5705220000000  0.4955950000000 1.0
C      1  0.4851860000000  0.3774700000000  0.4674480000000 1.0
C      1  0.4859160000000  0.6265330000000  0.4709470000000 1.0
C      1  0.5585390000000  0.5179050000000  0.5376880000000 1.0
C      1  0.5579840000000  0.4818110000000  0.5382010000000 1.0
C      1  0.5109830000000  0.4480890000000  0.6005940000000 1.0
C      1  0.5169510000000  0.5555430000000  0.6016180000000 1.0
C      1  0.4719290000000  0.5921540000000  0.4369770000000 1.0
C      1  0.4794840000000  0.4103850000000  0.4328210000000 1.0
C      1  0.5681160000000  0.4748250000000  0.4467900000000 1.0
C      1  0.5664750000000  0.5272420000000  0.4476090000000 1.0
C      1  0.6019190000000  0.5604580000000  0.4892410000000 1.0
C      1  0.6007810000000  0.4393040000000  0.4907380000000 1.0
C      1  0.4745520000000  0.4310060000000  0.5739810000000 1.0
C      1  0.4793160000000  0.5656410000000  0.5769760000000 1.0
C      1  0.4793130000000  0.4173820000000  0.4046990000000 1.0
C      1  0.4665460000000  0.5786520000000  0.4112240000000 1.0
C      1  0.4839250000000  0.5804670000000  0.4807180000000 1.0
C      1  0.4850180000000  0.4233260000000  0.4778300000000 1.0
C      1  0.5503720000000  0.3893120000000  0.4976900000000 1.0
C      1  0.5525160000000  0.6110770000000  0.4945640000000 1.0
C      1  0.5561120000000  0.4182310000000  0.5409390000000 1.0
C      1  0.5581560000000  0.5822350000000  0.5383270000000 1.0
C      1  0.4306290000000  0.5877700000000  0.5040380000000 1.0
C      1  0.4265800000000  0.4074170000000  0.5017190000000 1.0
C      1  0.4827890000000  0.5300350000000  0.5503170000000 1.0
C      1  0.4789660000000  0.4720110000000  0.5473720000000 1.0
C      1  0.4356320000000  0.4897920000000  0.5076870000000 1.0
C      1  0.4429240000000  0.5203940000000  0.5105570000000 1.0
C      1  0.5395630000000  0.5182470000000  0.4622090000000 1.0
C      1  0.5411100000000  0.4820840000000  0.4617210000000 1.0
C      1  0.4442720000000  0.4719470000000  0.5899270000000 1.0
C      1  0.4386180000000  0.5253820000000  0.5898390000000 1.0
C      1  0.5344740000000  0.4728840000000  0.4133500000000 1.0
C      1  0.5313660000000  0.5276310000000  0.4146500000000 1.0
C      1  0.5632590000000  0.4368560000000  0.4163730000000 1.0
C      1  0.5591750000000  0.5644200000000  0.4168610000000 1.0
C      1  0.4611880000000  0.4821320000000  0.4555930000000 1.0
C      1  0.4650920000000  0.5117530000000  0.4549890000000 1.0
C      1  0.5910310000000  0.4861940000000  0.4621000000000 1.0
C      1  0.5917120000000  0.5156880000000  0.4608800000000 1.0
C      1  0.5153430000000  0.5284760000000  0.5948540000000 1.0
C      1  0.5133870000000  0.4751360000000  0.5948930000000 1.0
C      1  0.5852530000000  0.5257910000000  0.5526280000000 1.0
C      1  0.5844030000000  0.4743250000000  0.5547450000000 1.0
C      1  0.5776040000000  0.3954780000000  0.4907080000000 1.0
C      1  0.5798350000000  0.6049390000000  0.4867670000000 1.0
C      1  0.4652860000000  0.3990870000000  0.4746040000000 1.0
C      1  0.4656690000000  0.6057680000000  0.4796930000000 1.0
C      1  0.5338650000000  0.5282940000000  0.5515110000000 1.0
C      1  0.5326860000000  0.4721610000000  0.5521890000000 1.0
C      1  0.5581890000000  0.5755640000000  0.4636900000000 1.0
C      1  0.5620280000000  0.4278190000000  0.4645530000000 1.0
C      1  0.3999890000000  0.5284650000000  0.4596860000000 1.0
C      1  0.4052370000000  0.4716870000000  0.4722220000000 1.0
C      1  0.6051660000000  0.5303390000000  0.4834710000000 1.0
C      1  0.6069190000000  0.4690980000000  0.4813660000000 1.0
C      1  0.5341230000000  0.5261180000000  0.4921280000000 1.0
C      1  0.5328070000000  0.4741640000000  0.4914890000000 1.0
C      1  0.5120240000000  0.5696810000000  0.4136510000000 1.0
C      1  0.5164490000000  0.4289140000000  0.4113390000000 1.0
C      1  0.4406100000000  0.4707780000000  0.4349100000000 1.0
C      1  0.4446630000000  0.5227620000000  0.4349640000000 1.0
C      1  0.4847760000000  0.4668130000000  0.4422890000000 1.0
C      1  0.4909490000000  0.5196230000000  0.4404900000000 1.0
C      1  0.5089390000000  0.5137060000000  0.3990070000000 1.0
C      1  0.5093230000000  0.4850790000000  0.4019100000000 1.0
C      1  0.5345920000000  0.6266320000000  0.4746640000000 1.0
C      1  0.5331590000000  0.3743900000000  0.4769830000000 1.0
C      1  0.4808250000000  0.4705450000000  0.4960630000000 1.0
C      1  0.4857100000000  0.5341150000000  0.4911780000000 1.0
C      1  0.6086870000000  0.5134630000000  0.5370070000000 1.0
C      1  0.6094820000000  0.4847790000000  0.5418910000000 1.0
C      1  0.4911510000000  0.4424610000000  0.3984750000000 1.0
C      1  0.4858820000000  0.5584670000000  0.4049090000000 1.0
C      1  0.4909570000000  0.3886810000000  0.5332170000000 1.0
C      1  0.4928940000000  0.6127540000000  0.5328560000000 1.0
C      1  0.5091430000000  0.6212390000000  0.4888680000000 1.0
C      1  0.5065490000000  0.3811060000000  0.4880220000000 1.0
C      1  0.4349740000000  0.4830990000000  0.5619790000000 1.0
C      1  0.4351770000000  0.5144970000000  0.5621350000000 1.0
C      1  0.4551460000000  0.5219740000000  0.5397340000000 1.0
C      1  0.4501060000000  0.4782630000000  0.5364560000000 1.0
C      1  0.4541800000000  0.4729160000000  0.4840900000000 1.0
C      1  0.4591680000000  0.5273570000000  0.4830740000000 1.0
C      1  0.5171290000000  0.4362480000000  0.4415390000000 1.0
C      1  0.5118450000000  0.5631890000000  0.4430200000000 1.0
C      1  0.5053940000000  0.4867900000000  0.4923660000000 1.0
C      1  0.5069970000000  0.5152490000000  0.4972640000000 1.0
C      1  0.5314170000000  0.4467310000000  0.5023470000000 1.0
C      1  0.5331820000000  0.5544880000000  0.5000030000000 1.0
C      1  0.4444020000000  0.4402830000000  0.4450080000000 1.0
C      1  0.4500410000000  0.5515510000000  0.4417090000000 1.0
C      1  0.4843250000000  0.5265060000000  0.4113370000000 1.0
C      1  0.4842430000000  0.4697530000000  0.4111790000000 1.0
C      1  0.4562050000000  0.5124810000000  0.4081340000000 1.0
C      1  0.4557620000000  0.4822640000000  0.4083070000000 1.0
C      1  0.4043390000000  0.4829300000000  0.5570010000000 1.0
C      1  0.4046180000000  0.5147720000000  0.5557100000000 1.0
C      1  0.3961900000000  0.5268820000000  0.5304420000000 1.0
C      1  0.3947200000000  0.4708850000000  0.5318300000000 1.0
C      1  0.4664180000000  0.4870860000000  0.6018500000000 1.0
C      1  0.4638920000000  0.5174240000000  0.6016580000000 1.0
C      1  0.5814660000000  0.5577430000000  0.5092700000000 1.0
C      1  0.5800800000000  0.4421760000000  0.5118260000000 1.0
C      1  0.5122500000000  0.5902580000000  0.4860760000000 1.0
C      1  0.5116740000000  0.4118760000000  0.4861410000000 1.0
C      1  0.4292610000000  0.5509570000000  0.5952890000000 1.0
C      1  0.4516550000000  0.4433980000000  0.5921910000000 1.0
C      1  0.5373910000000  0.4843240000000  0.5798540000000 1.0
C      1  0.5383980000000  0.5169570000000  0.5794840000000 1.0
C      1  0.4323170000000  0.5757500000000  0.5858000000000 1.0
C      1  0.4315410000000  0.4246450000000  0.5855910000000 1.0
C      1  0.5207930000000  0.5819150000000  0.5623690000000 1.0
C      1  0.5194180000000  0.4173290000000  0.5659410000000 1.0
C      1  0.4449270000000  0.4075110000000  0.5678850000000 1.0
C      1  0.4553870000000  0.5823210000000  0.5720140000000 1.0
C      1  0.5893690000000  0.4154980000000  0.4737560000000 1.0
C      1  0.5945470000000  0.5845310000000  0.4737920000000 1.0
C      1  0.4892620000000  0.5192940000000  0.5816750000000 1.0
C      1  0.4890500000000  0.4866140000000  0.5817980000000 1.0
C      1  0.4156820000000  0.4831100000000  0.4460070000000 1.0
C      1  0.4174130000000  0.5123160000000  0.4433990000000 1.0
C      1  0.4979270000000  0.3857550000000  0.4418040000000 1.0
C      1  0.4952360000000  0.6170960000000  0.4438930000000 1.0
C      1  0.5008880000000  0.4261700000000  0.5866740000000 1.0
C      1  0.5047160000000  0.5753120000000  0.5859700000000 1.0
C      1  0.5648550000000  0.4437080000000  0.5800500000000 1.0
C      1  0.5672430000000  0.5568790000000  0.5777650000000 1.0
C      1  0.5234880000000  0.4678260000000  0.4411300000000 1.0
C      1  0.5183560000000  0.5319320000000  0.4429740000000 1.0
C      1  0.4860810000000  0.5603980000000  0.5461470000000 1.0
C      1  0.4804860000000  0.4418380000000  0.5446630000000 1.0
C      1  0.4459030000000  0.4083640000000  0.4497710000000 1.0
C      1  0.4464800000000  0.5985170000000  0.4563830000000 1.0
C      1  0.3699840000000  0.4839490000000  0.5222460000000 1.0
C      1  0.3686600000000  0.5162990000000  0.5233950000000 1.0
C      1  0.3931590000000  0.5185130000000  0.4866280000000 1.0
C      1  0.4035830000000  0.4905250000000  0.4947260000000 1.0
C      1  0.5548810000000  0.4854160000000  0.5077670000000 1.0
C      1  0.5558520000000  0.5139930000000  0.5077290000000 1.0
C      1  0.4645700000000  0.3954900000000  0.5263400000000 1.0
C      1  0.4659090000000  0.6053020000000  0.5303010000000 1.0
C      1  0.4847300000000  0.5601520000000  0.5025410000000 1.0
C      1  0.4821280000000  0.4419720000000  0.5009590000000 1.0
C      1  0.4217670000000  0.4234300000000  0.4772570000000 1.0
C      1  0.4289790000000  0.5767980000000  0.4757970000000 1.0
C      1  0.5402170000000  0.4452100000000  0.4030730000000 1.0
C      1  0.5358370000000  0.5552790000000  0.4043010000000 1.0
C      1  0.5610760000000  0.4870410000000  0.4195700000000 1.0
C      1  0.5591970000000  0.5156550000000  0.4204520000000 1.0
C      1  0.5078700000000  0.5155240000000  0.5412330000000 1.0
C      1  0.5068460000000  0.4856250000000  0.5415310000000 1.0
END
