TITL C-3577086-586-307 2.56481038892847e-06 125000 -843.858967516882 0 0 138 (Ci) n - 1
REM
REM in /home/bkarasulu/work/CARBON/AIRSS/Generating-Clusters/EDIP-Nigel-Params/with-SteepDescent/Higher-Symm/SD-CG/HFTN-CG
REM
REM
REM
REM
REM
REM ./C.cell (12c818d87b63d06a65506943cc24bca4)
REM
REM compiler GCC version 9.2.1 20190827 (Red Hat 9.2.1-1)
REM options -cpp -mtune=generic -march=x86-64 -g -O0 -fpre-include=/usr/include/finclude/math-vector-fortran.h
REM seed -1136385554 1961883084 115862946 1603166638 -1342213386 350117046 -1889355633 2137966106 -1037808805 240966741 -338073007 795855123 1539802924 280749801 -408143343 -1233805321 1505447972 1289472881 1155136093 -1527662825 -596058199 -1793910738 -1440749138 -1580501403 -966126310 -2084928581 -1380095360 -750545946 -1673802862 1818609392 502086513 -1096601649 -1271995989
REM
CELL 1.54180   50.00000   50.00000   50.00000   90.00000   90.00000   90.00000
LATT -1
SFAC C  
C      1  0.4795480000000  0.4042150000000  0.5258550000000 1.0
C      1  0.5204520000000  0.5957850000000  0.4741450000000 1.0
C      1  0.5833660000000  0.4974760000000  0.4331420000000 1.0
C      1  0.4166340000000  0.5025240000000  0.5668580000000 1.0
C      1  0.5212410000000  0.5784080000000  0.5241240000000 1.0
C      1  0.4787590000000  0.4215920000000  0.4758760000000 1.0
C      1  0.5416510000000  0.4398460000000  0.4465510000000 1.0
C      1  0.4583490000000  0.5601540000000  0.5534490000000 1.0
C      1  0.4709540000000  0.4949640000000  0.5421070000000 1.0
C      1  0.5290460000000  0.5050360000000  0.4578930000000 1.0
C      1  0.5024780000000  0.5345900000000  0.5819710000000 1.0
C      1  0.4975220000000  0.4654100000000  0.4180290000000 1.0
C      1  0.5335820000000  0.4679530000000  0.5899200000000 1.0
C      1  0.4664180000000  0.5320470000000  0.4100800000000 1.0
C      1  0.5880260000000  0.4557390000000  0.4966610000000 1.0
C      1  0.4119740000000  0.5442610000000  0.5033390000000 1.0
C      1  0.4442060000000  0.5235140000000  0.4259970000000 1.0
C      1  0.5557940000000  0.4764860000000  0.5740030000000 1.0
C      1  0.5906560000000  0.4645810000000  0.5249880000000 1.0
C      1  0.4093440000000  0.5354190000000  0.4750120000000 1.0
C      1  0.4311060000000  0.5503880000000  0.5621000000000 1.0
C      1  0.5688940000000  0.4496120000000  0.4379000000000 1.0
C      1  0.4705580000000  0.4393330000000  0.5381250000000 1.0
C      1  0.5294420000000  0.5606670000000  0.4618750000000 1.0
C      1  0.5713850000000  0.5500960000000  0.5580890000000 1.0
C      1  0.4286150000000  0.4499040000000  0.4419110000000 1.0
C      1  0.4076150000000  0.5728940000000  0.5048720000000 1.0
C      1  0.5923850000000  0.4271060000000  0.4951280000000 1.0
C      1  0.5139710000000  0.4438230000000  0.5453580000000 1.0
C      1  0.4860290000000  0.5561770000000  0.4546420000000 1.0
C      1  0.5911400000000  0.4397070000000  0.4544700000000 1.0
C      1  0.4088600000000  0.5602930000000  0.5455300000000 1.0
C      1  0.5421790000000  0.4436580000000  0.4765890000000 1.0
C      1  0.4578210000000  0.5563420000000  0.5234110000000 1.0
C      1  0.4987570000000  0.4296990000000  0.4507400000000 1.0
C      1  0.5012430000000  0.5703010000000  0.5492600000000 1.0
C      1  0.5272180000000  0.4801750000000  0.5158040000000 1.0
C      1  0.4727820000000  0.5198250000000  0.4841960000000 1.0
C      1  0.4938400000000  0.4779130000000  0.5476790000000 1.0
C      1  0.5061600000000  0.5220870000000  0.4523210000000 1.0
C      1  0.5552300000000  0.4282950000000  0.5645390000000 1.0
C      1  0.4447700000000  0.5717050000000  0.4354610000000 1.0
C      1  0.5030840000000  0.4671890000000  0.4976730000000 1.0
C      1  0.4969160000000  0.5328110000000  0.5023270000000 1.0
C      1  0.4459000000000  0.4956890000000  0.4326840000000 1.0
C      1  0.5541000000000  0.5043110000000  0.5673160000000 1.0
C      1  0.4621710000000  0.4456170000000  0.4875670000000 1.0
C      1  0.5378290000000  0.5543830000000  0.5124330000000 1.0
C      1  0.5261440000000  0.5401960000000  0.4873490000000 1.0
C      1  0.4738560000000  0.4598040000000  0.5126510000000 1.0
C      1  0.5526130000000  0.4916240000000  0.4998290000000 1.0
C      1  0.4473870000000  0.5083760000000  0.5001710000000 1.0
C      1  0.5540930000000  0.4146630000000  0.4740780000000 1.0
C      1  0.4459070000000  0.5853370000000  0.5259220000000 1.0
C      1  0.4244120000000  0.5826550000000  0.4543240000000 1.0
C      1  0.5755880000000  0.4173450000000  0.5456760000000 1.0
C      1  0.4431390000000  0.4614450000000  0.5756850000000 1.0
C      1  0.5568610000000  0.5385550000000  0.4243150000000 1.0
C      1  0.5577360000000  0.4564160000000  0.5522720000000 1.0
C      1  0.4422640000000  0.5435840000000  0.4477280000000 1.0
C      1  0.4655000000000  0.4650380000000  0.4662700000000 1.0
C      1  0.5345000000000  0.5349620000000  0.5337300000000 1.0
C      1  0.4923530000000  0.5829290000000  0.4659450000000 1.0
C      1  0.5076470000000  0.4170710000000  0.5340550000000 1.0
C      1  0.5300820000000  0.4930410000000  0.4059310000000 1.0
C      1  0.4699180000000  0.5069590000000  0.5940690000000 1.0
C      1  0.5652000000000  0.4773380000000  0.4439430000000 1.0
C      1  0.4348000000000  0.5226620000000  0.5560570000000 1.0
C      1  0.5614820000000  0.4653410000000  0.4863490000000 1.0
C      1  0.4385180000000  0.5346590000000  0.5136510000000 1.0
C      1  0.4928740000000  0.4759020000000  0.4677940000000 1.0
C      1  0.5071260000000  0.5240980000000  0.5322060000000 1.0
C      1  0.4549160000000  0.5963990000000  0.4991470000000 1.0
C      1  0.5450840000000  0.4036010000000  0.5008530000000 1.0
C      1  0.5082840000000  0.4585460000000  0.4452380000000 1.0
C      1  0.4917160000000  0.5414540000000  0.5547620000000 1.0
C      1  0.5094080000000  0.5360980000000  0.4241550000000 1.0
C      1  0.4905920000000  0.4639020000000  0.5758450000000 1.0
C      1  0.5536860000000  0.5768350000000  0.4689840000000 1.0
C      1  0.4463140000000  0.4231650000000  0.5310160000000 1.0
C      1  0.6046600000000  0.4684930000000  0.4758860000000 1.0
C      1  0.3953400000000  0.5315070000000  0.5241140000000 1.0
C      1  0.5287680000000  0.5178540000000  0.5839420000000 1.0
C      1  0.4712320000000  0.4821460000000  0.4160580000000 1.0
C      1  0.4851310000000  0.5044380000000  0.4626030000000 1.0
C      1  0.5148690000000  0.4955620000000  0.5373970000000 1.0
C      1  0.5822790000000  0.5469310000000  0.5318200000000 1.0
C      1  0.4177210000000  0.4530690000000  0.4681800000000 1.0
C      1  0.5362950000000  0.4565760000000  0.5313590000000 1.0
C      1  0.4637050000000  0.5434240000000  0.4686410000000 1.0
C      1  0.5386410000000  0.4877600000000  0.4364010000000 1.0
C      1  0.4613590000000  0.5122400000000  0.5635990000000 1.0
C      1  0.4785120000000  0.5573840000000  0.4231590000000 1.0
C      1  0.5214880000000  0.4426160000000  0.5768410000000 1.0
C      1  0.3981250000000  0.5023020000000  0.5203990000000 1.0
C      1  0.6018750000000  0.4976980000000  0.4796010000000 1.0
C      1  0.5453110000000  0.5159570000000  0.4794330000000 1.0
C      1  0.4546890000000  0.4840430000000  0.5205670000000 1.0
C      1  0.5639940000000  0.4073500000000  0.5216030000000 1.0
C      1  0.4360060000000  0.5926500000000  0.4783970000000 1.0
C      1  0.5859890000000  0.4938250000000  0.5284180000000 1.0
C      1  0.4140110000000  0.5061750000000  0.4715820000000 1.0
C      1  0.4580770000000  0.4537730000000  0.4397020000000 1.0
C      1  0.5419230000000  0.5462270000000  0.5602980000000 1.0
C      1  0.5669280000000  0.5588920000000  0.5101060000000 1.0
C      1  0.4330720000000  0.4411080000000  0.4898940000000 1.0
C      1  0.4378550000000  0.4882780000000  0.5835990000000 1.0
C      1  0.5621450000000  0.5117220000000  0.4164010000000 1.0
C      1  0.4831310000000  0.5844800000000  0.4951330000000 1.0
C      1  0.5168690000000  0.4155200000000  0.5048670000000 1.0
C      1  0.5925040000000  0.4420840000000  0.5435520000000 1.0
C      1  0.4074960000000  0.5579160000000  0.4564480000000 1.0
C      1  0.5742860000000  0.5594260000000  0.4809230000000 1.0
C      1  0.4257140000000  0.4405740000000  0.5190770000000 1.0
C      1  0.4121260000000  0.4931550000000  0.4966170000000 1.0
C      1  0.5878740000000  0.5068450000000  0.5033830000000 1.0
C      1  0.5167890000000  0.4687360000000  0.3977770000000 1.0
C      1  0.4832110000000  0.5312640000000  0.6022230000000 1.0
C      1  0.4225480000000  0.4866780000000  0.4496200000000 1.0
C      1  0.5774520000000  0.5133220000000  0.5503800000000 1.0
C      1  0.5276180000000  0.5723920000000  0.5615020000000 1.0
C      1  0.4723820000000  0.4276080000000  0.4384980000000 1.0
C      1  0.5694990000000  0.5322870000000  0.4660270000000 1.0
C      1  0.4305010000000  0.4677130000000  0.5339730000000 1.0
C      1  0.5334720000000  0.5517410000000  0.4319250000000 1.0
C      1  0.4665280000000  0.4482590000000  0.5680750000000 1.0
C      1  0.5836120000000  0.4168140000000  0.4710640000000 1.0
C      1  0.4163880000000  0.5831860000000  0.5289360000000 1.0
C      1  0.4841360000000  0.5586370000000  0.5102150000000 1.0
C      1  0.5158640000000  0.4413630000000  0.4897850000000 1.0
C      1  0.4902680000000  0.4019600000000  0.4963030000000 1.0
C      1  0.5097320000000  0.5980400000000  0.5036970000000 1.0
C      1  0.5180840000000  0.4918350000000  0.5985080000000 1.0
C      1  0.4819160000000  0.5081650000000  0.4014920000000 1.0
C      1  0.5935400000000  0.5147340000000  0.4561280000000 1.0
C      1  0.4064600000000  0.4852660000000  0.5438720000000 1.0
C      1  0.5105730000000  0.5154200000000  0.4026410000000 1.0
C      1  0.4894270000000  0.4845800000000  0.5973590000000 1.0
END
