TITL C-3578202-4305-401 -9.47614571023911e-07 125000 -1045.66378630785 0 0 166 (C1) n - 1
REM
REM in /home/bkarasulu/work/CARBON/AIRSS/Generating-Clusters/EDIP-Nigel-Params/with-SteepDescent/Higher-Symm/SD-CG/HFTN-CG
REM
REM
REM
REM
REM
REM ./C.cell (12c818d87b63d06a65506943cc24bca4)
REM
REM compiler GCC version 9.2.1 20190827 (Red Hat 9.2.1-1)
REM options -cpp -mtune=generic -march=x86-64 -g -O0 -fpre-include=/usr/include/finclude/math-vector-fortran.h
REM seed 1241107618 -1743244153 -1580992214 572580838 931757257 124762015 329040653 914838420 -1517356313 -752162173 -1742420084 -1656184053 -2134974904 -163543583 -1346252387 223882271 1234778215 -284440607 -1733678336 -618552427 587786840 -801899854 935800849 -1054448628 -14177963 488134789 -1975921118 -1746887238 -2010860750 200487254 1499932068 -722392181 1628419320
REM
CELL 1.54180   50.00000   50.00000   50.00000   90.00000   90.00000   90.00000
LATT -1
SFAC C  
C      1  0.6087690000000  0.5179780000000  0.5030750000000 1.0
C      1  0.4586760000000  0.3957630000000  0.5022480000000 1.0
C      1  0.4342760000000  0.5750110000000  0.5007880000000 1.0
C      1  0.3939690000000  0.5156560000000  0.5040400000000 1.0
C      1  0.5313220000000  0.4070640000000  0.4973650000000 1.0
C      1  0.5712850000000  0.5855490000000  0.5027520000000 1.0
C      1  0.5729710000000  0.4781810000000  0.4253280000000 1.0
C      1  0.4464790000000  0.4501930000000  0.4251450000000 1.0
C      1  0.4854140000000  0.5725690000000  0.4295720000000 1.0
C      1  0.4315720000000  0.4775550000000  0.4266940000000 1.0
C      1  0.5579580000000  0.4507650000000  0.4237200000000 1.0
C      1  0.5162270000000  0.5726230000000  0.4297030000000 1.0
C      1  0.4018230000000  0.4575810000000  0.4910790000000 1.0
C      1  0.5147090000000  0.5947160000000  0.5032800000000 1.0
C      1  0.5695470000000  0.4439650000000  0.4987700000000 1.0
C      1  0.5900540000000  0.4652940000000  0.4964060000000 1.0
C      1  0.4850370000000  0.5963070000000  0.5006850000000 1.0
C      1  0.4167010000000  0.4334410000000  0.4920410000000 1.0
C      1  0.4057020000000  0.4784830000000  0.5424720000000 1.0
C      1  0.5267110000000  0.5924140000000  0.5337030000000 1.0
C      1  0.5636940000000  0.4305020000000  0.5403760000000 1.0
C      1  0.5934840000000  0.4772740000000  0.5389170000000 1.0
C      1  0.4724570000000  0.5912880000000  0.5427840000000 1.0
C      1  0.4318030000000  0.4277380000000  0.5481910000000 1.0
C      1  0.4533970000000  0.5419830000000  0.5275100000000 1.0
C      1  0.5686530000000  0.5162220000000  0.5198060000000 1.0
C      1  0.4785660000000  0.4236350000000  0.5215250000000 1.0
C      1  0.5521460000000  0.5438280000000  0.5194120000000 1.0
C      1  0.4331610000000  0.5168350000000  0.5245220000000 1.0
C      1  0.5193370000000  0.4450380000000  0.5208520000000 1.0
C      1  0.5315070000000  0.4058940000000  0.4484160000000 1.0
C      1  0.4049690000000  0.5234660000000  0.4573330000000 1.0
C      1  0.5679290000000  0.5708950000000  0.4576740000000 1.0
C      1  0.4774670000000  0.4060400000000  0.4588620000000 1.0
C      1  0.5962480000000  0.5254040000000  0.4573990000000 1.0
C      1  0.4293120000000  0.5704960000000  0.4568840000000 1.0
C      1  0.5159070000000  0.4333070000000  0.4938080000000 1.0
C      1  0.4313860000000  0.5274410000000  0.4855660000000 1.0
C      1  0.5532700000000  0.5487360000000  0.4865210000000 1.0
C      1  0.4867110000000  0.4272910000000  0.4897350000000 1.0
C      1  0.5690150000000  0.5229660000000  0.4850930000000 1.0
C      1  0.4497770000000  0.5490140000000  0.4986450000000 1.0
C      1  0.5157460000000  0.6213670000000  0.5383240000000 1.0
C      1  0.5927940000000  0.4265070000000  0.5352130000000 1.0
C      1  0.3916440000000  0.4548030000000  0.5338870000000 1.0
C      1  0.4837450000000  0.6189020000000  0.5388200000000 1.0
C      1  0.4062910000000  0.4287460000000  0.5347440000000 1.0
C      1  0.6095700000000  0.4527580000000  0.5342770000000 1.0
C      1  0.5576990000000  0.5904740000000  0.4768120000000 1.0
C      1  0.5473830000000  0.4080550000000  0.4716990000000 1.0
C      1  0.3956740000000  0.5033390000000  0.4765980000000 1.0
C      1  0.4439850000000  0.5884960000000  0.4758350000000 1.0
C      1  0.4523300000000  0.4049760000000  0.4741860000000 1.0
C      1  0.6075750000000  0.5054040000000  0.4754720000000 1.0
C      1  0.4848260000000  0.4281630000000  0.5651670000000 1.0
C      1  0.4433810000000  0.5491330000000  0.5698180000000 1.0
C      1  0.5714840000000  0.5244940000000  0.5629060000000 1.0
C      1  0.5129280000000  0.4305790000000  0.5618320000000 1.0
C      1  0.5576320000000  0.5496180000000  0.5623910000000 1.0
C      1  0.4282170000000  0.5244550000000  0.5676250000000 1.0
C      1  0.4734840000000  0.5459130000000  0.4372890000000 1.0
C      1  0.5560010000000  0.5002200000000  0.4355990000000 1.0
C      1  0.4746040000000  0.4518360000000  0.4336420000000 1.0
C      1  0.5267440000000  0.5456930000000  0.4367290000000 1.0
C      1  0.4481990000000  0.5005320000000  0.4358690000000 1.0
C      1  0.5287350000000  0.4521160000000  0.4295250000000 1.0
C      1  0.4067290000000  0.4140090000000  0.5101560000000 1.0
C      1  0.4835690000000  0.6254980000000  0.5084850000000 1.0
C      1  0.6135790000000  0.4488460000000  0.5034120000000 1.0
C      1  0.5964100000000  0.4222330000000  0.5055870000000 1.0
C      1  0.5134920000000  0.6323570000000  0.5097310000000 1.0
C      1  0.3794160000000  0.4593230000000  0.5085650000000 1.0
C      1  0.5482240000000  0.4591940000000  0.5187120000000 1.0
C      1  0.4522480000000  0.4915620000000  0.5136960000000 1.0
C      1  0.5190810000000  0.5345150000000  0.5169010000000 1.0
C      1  0.4665910000000  0.4601660000000  0.5138180000000 1.0
C      1  0.5485820000000  0.4919410000000  0.5107990000000 1.0
C      1  0.4835100000000  0.5312870000000  0.5310280000000 1.0
C      1  0.5564060000000  0.4369090000000  0.4717140000000 1.0
C      1  0.4131690000000  0.4794090000000  0.4748310000000 1.0
C      1  0.5283950000000  0.5841900000000  0.4782450000000 1.0
C      1  0.4402020000000  0.4323670000000  0.4738420000000 1.0
C      1  0.5875100000000  0.4827680000000  0.4730680000000 1.0
C      1  0.4730800000000  0.5829590000000  0.4768290000000 1.0
C      1  0.5449390000000  0.4098610000000  0.5268180000000 1.0
C      1  0.3957510000000  0.5053280000000  0.5333420000000 1.0
C      1  0.5564740000000  0.5866600000000  0.5283290000000 1.0
C      1  0.4486760000000  0.4054550000000  0.5389070000000 1.0
C      1  0.6061560000000  0.5041890000000  0.5313440000000 1.0
C      1  0.4447890000000  0.5850570000000  0.5335370000000 1.0
C      1  0.5962890000000  0.5235020000000  0.5498760000000 1.0
C      1  0.4726730000000  0.4044060000000  0.5549290000000 1.0
C      1  0.4323130000000  0.5657920000000  0.5496860000000 1.0
C      1  0.4057220000000  0.5266890000000  0.5503290000000 1.0
C      1  0.5212240000000  0.4125420000000  0.5419670000000 1.0
C      1  0.5696740000000  0.5678080000000  0.5445500000000 1.0
C      1  0.4419100000000  0.4978230000000  0.4847900000000 1.0
C      1  0.5227390000000  0.5462200000000  0.4867220000000 1.0
C      1  0.5290650000000  0.4514530000000  0.4736970000000 1.0
C      1  0.5544750000000  0.4961520000000  0.4798170000000 1.0
C      1  0.4753100000000  0.5527890000000  0.4834610000000 1.0
C      1  0.4677060000000  0.4509580000000  0.4844690000000 1.0
C      1  0.4279560000000  0.4387900000000  0.4468750000000 1.0
C      1  0.4849910000000  0.5937360000000  0.4518450000000 1.0
C      1  0.5909190000000  0.4671410000000  0.4477220000000 1.0
C      1  0.5745400000000  0.4406630000000  0.4477330000000 1.0
C      1  0.5160640000000  0.5937800000000  0.4527760000000 1.0
C      1  0.4125710000000  0.4667470000000  0.4476070000000 1.0
C      1  0.5719810000000  0.5250460000000  0.4410570000000 1.0
C      1  0.4878630000000  0.4252680000000  0.4392780000000 1.0
C      1  0.4427630000000  0.5495640000000  0.4405390000000 1.0
C      1  0.4295270000000  0.5241850000000  0.4414600000000 1.0
C      1  0.5163370000000  0.4246380000000  0.4335680000000 1.0
C      1  0.5562970000000  0.5489930000000  0.4423920000000 1.0
C      1  0.4701010000000  0.4521630000000  0.5694000000000 1.0
C      1  0.4731670000000  0.5497710000000  0.5759210000000 1.0
C      1  0.5571620000000  0.5001280000000  0.5663320000000 1.0
C      1  0.5286800000000  0.4524570000000  0.5723170000000 1.0
C      1  0.5291390000000  0.5496130000000  0.5625770000000 1.0
C      1  0.4430940000000  0.5005500000000  0.5646740000000 1.0
C      1  0.6080490000000  0.5462550000000  0.5028560000000 1.0
C      1  0.4846980000000  0.3845790000000  0.5020890000000 1.0
C      1  0.4085680000000  0.5653960000000  0.4887190000000 1.0
C      1  0.3957770000000  0.5436310000000  0.5006420000000 1.0
C      1  0.5111240000000  0.3866790000000  0.4974390000000 1.0
C      1  0.5948710000000  0.5698970000000  0.5018740000000 1.0
C      1  0.4693780000000  0.5094930000000  0.6049840000000 1.0
C      1  0.5109610000000  0.5328550000000  0.6043200000000 1.0
C      1  0.5100720000000  0.4854800000000  0.6136740000000 1.0
C      1  0.5212450000000  0.5109920000000  0.6194720000000 1.0
C      1  0.4812380000000  0.5375060000000  0.6051940000000 1.0
C      1  0.4827230000000  0.4894530000000  0.6202860000000 1.0
C      1  0.5160520000000  0.5261350000000  0.4123760000000 1.0
C      1  0.5159240000000  0.4753020000000  0.4125060000000 1.0
C      1  0.4720340000000  0.5005120000000  0.4140230000000 1.0
C      1  0.4862760000000  0.5254650000000  0.4191790000000 1.0
C      1  0.4885230000000  0.4766800000000  0.4226330000000 1.0
C      1  0.5301810000000  0.5008750000000  0.4195400000000 1.0
C      1  0.4704250000000  0.5020260000000  0.5756970000000 1.0
C      1  0.5147970000000  0.5272100000000  0.5749910000000 1.0
C      1  0.5139050000000  0.4773850000000  0.5836770000000 1.0
C      1  0.5287690000000  0.5008860000000  0.5722920000000 1.0
C      1  0.4861910000000  0.5257530000000  0.5620510000000 1.0
C      1  0.4854110000000  0.4766420000000  0.5728260000000 1.0
C      1  0.5558190000000  0.4518880000000  0.5609430000000 1.0
C      1  0.4287480000000  0.4764210000000  0.5594040000000 1.0
C      1  0.5146590000000  0.5730360000000  0.5545530000000 1.0
C      1  0.4432840000000  0.4519650000000  0.5593320000000 1.0
C      1  0.5716250000000  0.4761460000000  0.5592880000000 1.0
C      1  0.4865670000000  0.5744230000000  0.5624770000000 1.0
C      1  0.5277380000000  0.5000550000000  0.4632530000000 1.0
C      1  0.4812130000000  0.4728110000000  0.4658190000000 1.0
C      1  0.4826820000000  0.5318660000000  0.4632400000000 1.0
C      1  0.4644710000000  0.4990760000000  0.4635100000000 1.0
C      1  0.5132630000000  0.4729820000000  0.4590060000000 1.0
C      1  0.5140190000000  0.5299640000000  0.4626180000000 1.0
C      1  0.4720300000000  0.4992940000000  0.3834130000000 1.0
C      1  0.5139000000000  0.5237090000000  0.3814610000000 1.0
C      1  0.5135330000000  0.4758290000000  0.3820780000000 1.0
C      1  0.5262130000000  0.4995600000000  0.3727280000000 1.0
C      1  0.4862280000000  0.5224570000000  0.3747240000000 1.0
C      1  0.4860300000000  0.4760990000000  0.3747480000000 1.0
C      1  0.4778520000000  0.5060290000000  0.5168650000000 1.0
C      1  0.5231670000000  0.5047950000000  0.5176300000000 1.0
C      1  0.4958170000000  0.4642700000000  0.5219990000000 1.0
C      1  0.5001380000000  0.4903150000000  0.5130080000000 1.0
END
