TITL C-3578200-9634-629 -1.7658537503829e-06 125000 -1174.49364518017 0 0 186 (C1) n - 1
REM
REM in /home/bkarasulu/work/CARBON/AIRSS/Generating-Clusters/EDIP-Nigel-Params/with-SteepDescent/Higher-Symm/SD-CG/HFTN-CG
REM
REM
REM
REM
REM
REM ./C.cell (12c818d87b63d06a65506943cc24bca4)
REM
REM compiler GCC version 9.2.1 20190827 (Red Hat 9.2.1-1)
REM options -cpp -mtune=generic -march=x86-64 -g -O0 -fpre-include=/usr/include/finclude/math-vector-fortran.h
REM seed -1015994535 -808756347 -1641268696 1748418298 2113628120 -904523792 288171634 833295518 933415067 1948203913 -1440689989 -97193977 201422431 465678567 375097720 1423158431 1803409523 1662960607 1115892991 292377386 1007959232 363891378 925165848 119210731 799036536 435826197 -1214261475 1625217162 1446314463 1196104910 -989105223 306485887 1377956756
REM
CELL 1.54180   50.00000   50.00000   50.00000   90.00000   90.00000   90.00000
LATT -1
SFAC C  
C      1  0.5558740000000  0.5387970000000  0.5617250000000 1.0
C      1  0.4484040000000  0.5581160000000  0.5855200000000 1.0
C      1  0.4665380000000  0.5598490000000  0.5273850000000 1.0
C      1  0.5290610000000  0.5197750000000  0.5102540000000 1.0
C      1  0.4129780000000  0.5436700000000  0.4538190000000 1.0
C      1  0.4304830000000  0.5338380000000  0.5915360000000 1.0
C      1  0.4938900000000  0.5914370000000  0.4844570000000 1.0
C      1  0.5229720000000  0.5396130000000  0.6014000000000 1.0
C      1  0.5292540000000  0.4578380000000  0.4232480000000 1.0
C      1  0.4991630000000  0.4651750000000  0.4187110000000 1.0
C      1  0.5750700000000  0.4396700000000  0.5353700000000 1.0
C      1  0.5433480000000  0.3889120000000  0.4704770000000 1.0
C      1  0.4128360000000  0.4609130000000  0.4383240000000 1.0
C      1  0.4827200000000  0.4918670000000  0.5081210000000 1.0
C      1  0.5096610000000  0.5375450000000  0.4119380000000 1.0
C      1  0.4624710000000  0.5980170000000  0.5224900000000 1.0
C      1  0.5257790000000  0.5385120000000  0.5685170000000 1.0
C      1  0.5032760000000  0.3960670000000  0.4689720000000 1.0
C      1  0.5093130000000  0.5270410000000  0.5353630000000 1.0
C      1  0.5093080000000  0.4169900000000  0.4234590000000 1.0
C      1  0.5957670000000  0.5195930000000  0.5387690000000 1.0
C      1  0.4492740000000  0.4720040000000  0.4791290000000 1.0
C      1  0.5470280000000  0.3994110000000  0.5225110000000 1.0
C      1  0.5279600000000  0.4717100000000  0.5886260000000 1.0
C      1  0.6150610000000  0.4831890000000  0.4487100000000 1.0
C      1  0.5243630000000  0.4847180000000  0.4955430000000 1.0
C      1  0.4201360000000  0.5718400000000  0.5447960000000 1.0
C      1  0.5915010000000  0.5167120000000  0.4259270000000 1.0
C      1  0.4864130000000  0.5058460000000  0.5350550000000 1.0
C      1  0.4394860000000  0.5834160000000  0.4745540000000 1.0
C      1  0.5196030000000  0.5716280000000  0.5173180000000 1.0
C      1  0.5162820000000  0.5320330000000  0.4864870000000 1.0
C      1  0.5648170000000  0.5235740000000  0.4152080000000 1.0
C      1  0.5262640000000  0.4367650000000  0.4918180000000 1.0
C      1  0.4976050000000  0.4915020000000  0.4032870000000 1.0
C      1  0.4860110000000  0.4632560000000  0.5080400000000 1.0
C      1  0.4577120000000  0.5869140000000  0.4482550000000 1.0
C      1  0.4558150000000  0.4525880000000  0.4059460000000 1.0
C      1  0.5339590000000  0.4767710000000  0.5428830000000 1.0
C      1  0.4947440000000  0.5713200000000  0.4002860000000 1.0
C      1  0.4424890000000  0.4250660000000  0.4433510000000 1.0
C      1  0.3917750000000  0.5061320000000  0.5386330000000 1.0
C      1  0.5006360000000  0.5024570000000  0.6109210000000 1.0
C      1  0.4823550000000  0.5099450000000  0.5837500000000 1.0
C      1  0.5197240000000  0.4187140000000  0.5667760000000 1.0
C      1  0.4922910000000  0.4220350000000  0.5791680000000 1.0
C      1  0.5371330000000  0.5064330000000  0.4524160000000 1.0
C      1  0.5299330000000  0.4593140000000  0.4531670000000 1.0
C      1  0.4848870000000  0.6000050000000  0.4412540000000 1.0
C      1  0.5319250000000  0.6039640000000  0.4570590000000 1.0
C      1  0.6036710000000  0.4390950000000  0.4532680000000 1.0
C      1  0.4500470000000  0.4824380000000  0.4005820000000 1.0
C      1  0.4909360000000  0.5420010000000  0.4951750000000 1.0
C      1  0.5488880000000  0.5648390000000  0.5229340000000 1.0
C      1  0.5646600000000  0.4076650000000  0.4647290000000 1.0
C      1  0.5595450000000  0.4886780000000  0.5305930000000 1.0
C      1  0.4394520000000  0.5029100000000  0.5210370000000 1.0
C      1  0.4828760000000  0.5380840000000  0.5687590000000 1.0
C      1  0.4264280000000  0.4647410000000  0.5612650000000 1.0
C      1  0.4775140000000  0.5625520000000  0.4786780000000 1.0
C      1  0.4230780000000  0.4208250000000  0.4646410000000 1.0
C      1  0.4128170000000  0.4902210000000  0.4370740000000 1.0
C      1  0.4846290000000  0.4414080000000  0.4636530000000 1.0
C      1  0.4677640000000  0.4490420000000  0.4903070000000 1.0
C      1  0.3980280000000  0.5067190000000  0.5676600000000 1.0
C      1  0.4997680000000  0.5524910000000  0.6164770000000 1.0
C      1  0.5747700000000  0.4245880000000  0.4884090000000 1.0
C      1  0.4191170000000  0.4887090000000  0.5781520000000 1.0
C      1  0.5186100000000  0.5761120000000  0.4890510000000 1.0
C      1  0.4715740000000  0.5014170000000  0.3945130000000 1.0
C      1  0.4396390000000  0.5796000000000  0.5646130000000 1.0
C      1  0.5225100000000  0.4068780000000  0.5385760000000 1.0
C      1  0.5986340000000  0.4877390000000  0.4258510000000 1.0
C      1  0.4884380000000  0.4420650000000  0.5470960000000 1.0
C      1  0.4587070000000  0.5149440000000  0.5399680000000 1.0
C      1  0.4398320000000  0.5051070000000  0.5901330000000 1.0
C      1  0.5999310000000  0.4399530000000  0.4813780000000 1.0
C      1  0.4039720000000  0.4564880000000  0.5428790000000 1.0
C      1  0.5323880000000  0.5932350000000  0.4296310000000 1.0
C      1  0.5300690000000  0.5768020000000  0.5674610000000 1.0
C      1  0.4722900000000  0.4663340000000  0.5556760000000 1.0
C      1  0.4865580000000  0.4685040000000  0.4478220000000 1.0
C      1  0.4609110000000  0.5299230000000  0.3978280000000 1.0
C      1  0.5038200000000  0.5894890000000  0.4210050000000 1.0
C      1  0.4750550000000  0.4022470000000  0.5170100000000 1.0
C      1  0.5022620000000  0.6093860000000  0.4627810000000 1.0
C      1  0.5723080000000  0.5015120000000  0.5925540000000 1.0
C      1  0.4480640000000  0.5511450000000  0.5006070000000 1.0
C      1  0.5343610000000  0.3869670000000  0.4987880000000 1.0
C      1  0.4485280000000  0.5210510000000  0.4765900000000 1.0
C      1  0.4280010000000  0.5486390000000  0.4286380000000 1.0
C      1  0.4776260000000  0.5500010000000  0.4495510000000 1.0
C      1  0.5464220000000  0.4934980000000  0.6000640000000 1.0
C      1  0.5560150000000  0.5357340000000  0.5155110000000 1.0
C      1  0.4882830000000  0.6059140000000  0.5108720000000 1.0
C      1  0.5885070000000  0.5685410000000  0.4983430000000 1.0
C      1  0.4157200000000  0.5651640000000  0.4742440000000 1.0
C      1  0.4581110000000  0.4905150000000  0.6068270000000 1.0
C      1  0.5994860000000  0.5279360000000  0.4528310000000 1.0
C      1  0.4570120000000  0.4729890000000  0.4500470000000 1.0
C      1  0.4669190000000  0.4229780000000  0.5355810000000 1.0
C      1  0.4020020000000  0.5065900000000  0.4846810000000 1.0
C      1  0.5269560000000  0.5346210000000  0.4587850000000 1.0
C      1  0.4702530000000  0.5571160000000  0.4067120000000 1.0
C      1  0.6115580000000  0.4735300000000  0.5369420000000 1.0
C      1  0.5638790000000  0.5809230000000  0.5016100000000 1.0
C      1  0.5519140000000  0.5537490000000  0.4584920000000 1.0
C      1  0.5544650000000  0.4474540000000  0.4896010000000 1.0
C      1  0.5170240000000  0.3969600000000  0.4436230000000 1.0
C      1  0.6036640000000  0.4947880000000  0.5532230000000 1.0
C      1  0.4051770000000  0.5342580000000  0.5754780000000 1.0
C      1  0.4605890000000  0.5956940000000  0.5525640000000 1.0
C      1  0.5860790000000  0.4663090000000  0.5242520000000 1.0
C      1  0.5200720000000  0.4872100000000  0.5648700000000 1.0
C      1  0.5101330000000  0.5950970000000  0.5566390000000 1.0
C      1  0.4279850000000  0.4983100000000  0.4136820000000 1.0
C      1  0.4919530000000  0.5633590000000  0.5815470000000 1.0
C      1  0.4176730000000  0.4316830000000  0.5307330000000 1.0
C      1  0.5031610000000  0.4728700000000  0.6072000000000 1.0
C      1  0.5778150000000  0.4675220000000  0.4230320000000 1.0
C      1  0.4614180000000  0.4054770000000  0.4914390000000 1.0
C      1  0.5659990000000  0.5207580000000  0.5395200000000 1.0
C      1  0.4732740000000  0.5648610000000  0.6066410000000 1.0
C      1  0.5801570000000  0.4802430000000  0.4649310000000 1.0
C      1  0.5141610000000  0.4577700000000  0.5079600000000 1.0
C      1  0.5538750000000  0.5675360000000  0.5527130000000 1.0
C      1  0.5382160000000  0.4429740000000  0.5708600000000 1.0
C      1  0.5187580000000  0.4852660000000  0.4646330000000 1.0
C      1  0.4751630000000  0.3981740000000  0.4675820000000 1.0
C      1  0.5818620000000  0.5403690000000  0.4978430000000 1.0
C      1  0.4966080000000  0.5513500000000  0.5222810000000 1.0
C      1  0.4416390000000  0.4527560000000  0.4331760000000 1.0
C      1  0.4394540000000  0.5937940000000  0.5031500000000 1.0
C      1  0.5606930000000  0.4247440000000  0.4390580000000 1.0
C      1  0.4022940000000  0.4819870000000  0.4976120000000 1.0
C      1  0.4407170000000  0.4401240000000  0.5730990000000 1.0
C      1  0.5542780000000  0.4851420000000  0.4997870000000 1.0
C      1  0.4193990000000  0.5156420000000  0.4638610000000 1.0
C      1  0.5114580000000  0.5975630000000  0.5276960000000 1.0
C      1  0.4589080000000  0.5424040000000  0.5513970000000 1.0
C      1  0.5281820000000  0.5130690000000  0.6130540000000 1.0
C      1  0.6131500000000  0.5014350000000  0.4938080000000 1.0
C      1  0.5834940000000  0.4581400000000  0.5775770000000 1.0
C      1  0.6162490000000  0.5064430000000  0.4654750000000 1.0
C      1  0.6036550000000  0.5233280000000  0.5100670000000 1.0
C      1  0.4559070000000  0.4974080000000  0.4952250000000 1.0
C      1  0.5356050000000  0.4290830000000  0.4195420000000 1.0
C      1  0.4262800000000  0.5293560000000  0.5136130000000 1.0
C      1  0.5869620000000  0.4855450000000  0.5753510000000 1.0
C      1  0.5585960000000  0.4564200000000  0.4614170000000 1.0
C      1  0.4379770000000  0.4489610000000  0.5151570000000 1.0
C      1  0.4340570000000  0.4109950000000  0.4887130000000 1.0
C      1  0.5704460000000  0.4168740000000  0.5174190000000 1.0
C      1  0.4502420000000  0.5682670000000  0.4259000000000 1.0
C      1  0.5511000000000  0.4757610000000  0.4141890000000 1.0
C      1  0.5032370000000  0.3952430000000  0.5189630000000 1.0
C      1  0.5189650000000  0.5111330000000  0.4059050000000 1.0
C      1  0.4015970000000  0.5624660000000  0.4998980000000 1.0
C      1  0.5750180000000  0.5330810000000  0.4694870000000 1.0
C      1  0.5577740000000  0.5504430000000  0.4151900000000 1.0
C      1  0.4346310000000  0.5263860000000  0.4104080000000 1.0
C      1  0.4687210000000  0.4418350000000  0.5862050000000 1.0
C      1  0.4678660000000  0.4126630000000  0.4445630000000 1.0
C      1  0.5550180000000  0.5750580000000  0.4266310000000 1.0
C      1  0.5142950000000  0.4337330000000  0.4652910000000 1.0
C      1  0.4754610000000  0.4679910000000  0.5993950000000 1.0
C      1  0.5621590000000  0.5050620000000  0.4705270000000 1.0
C      1  0.4847730000000  0.4416400000000  0.4075430000000 1.0
C      1  0.4082250000000  0.4464170000000  0.4649480000000 1.0
C      1  0.4400010000000  0.4216270000000  0.5495210000000 1.0
C      1  0.5944000000000  0.4680800000000  0.4922300000000 1.0
C      1  0.3982070000000  0.5343740000000  0.5257030000000 1.0
C      1  0.5058480000000  0.5439580000000  0.4398760000000 1.0
C      1  0.4455600000000  0.4717860000000  0.5377420000000 1.0
C      1  0.5434500000000  0.5036690000000  0.4212480000000 1.0
C      1  0.4208570000000  0.4617770000000  0.4876890000000 1.0
C      1  0.4841970000000  0.5983440000000  0.5683110000000 1.0
C      1  0.4907430000000  0.4905400000000  0.5606950000000 1.0
C      1  0.5677590000000  0.4393890000000  0.5641610000000 1.0
C      1  0.4020320000000  0.5506770000000  0.5507730000000 1.0
C      1  0.5452320000000  0.5801670000000  0.4764310000000 1.0
C      1  0.4180670000000  0.5795370000000  0.5166820000000 1.0
C      1  0.4010930000000  0.4815920000000  0.5260910000000 1.0
C      1  0.5199250000000  0.4507030000000  0.5371860000000 1.0
C      1  0.4669520000000  0.5242510000000  0.4554530000000 1.0
C      1  0.5854630000000  0.4400060000000  0.4314070000000 1.0
END
