TITL C-3578199-7832-501 -1.01872808241402e-06 125000 -898.233981802666 0 0 144 (C1) n - 1
REM
REM in /home/bkarasulu/work/CARBON/AIRSS/Generating-Clusters/EDIP-Nigel-Params/with-SteepDescent/Higher-Symm/SD-CG/HFTN-CG
REM
REM
REM
REM
REM
REM ./C.cell (12c818d87b63d06a65506943cc24bca4)
REM
REM compiler GCC version 9.2.1 20190827 (Red Hat 9.2.1-1)
REM options -cpp -mtune=generic -march=x86-64 -g -O0 -fpre-include=/usr/include/finclude/math-vector-fortran.h
REM seed 1689133214 -253099904 -514190705 -960351069 280225516 407032708 1085555444 2083110695 2009387305 -2079790897 -2014466795 2025679282 -526246510 293452864 300482691 -2054264594 2135214768 662650750 -1279026802 -868686997 -1385458459 588990213 500169958 253921422 855948332 -584297150 49545422 870838150 -1338233524 -890834187 -1352975709 1550460620 1637210667
REM
CELL 1.54180   50.00000   50.00000   50.00000   90.00000   90.00000   90.00000
LATT -1
SFAC C  
C      1  0.5044840000000  0.4890820000000  0.5784660000000 1.0
C      1  0.4353550000000  0.4833090000000  0.5089110000000 1.0
C      1  0.4487190000000  0.4911420000000  0.4366260000000 1.0
C      1  0.5367530000000  0.4892780000000  0.4584340000000 1.0
C      1  0.5551120000000  0.4791850000000  0.5203920000000 1.0
C      1  0.5074550000000  0.5243420000000  0.5702680000000 1.0
C      1  0.5672670000000  0.5058810000000  0.5307510000000 1.0
C      1  0.5344910000000  0.5191760000000  0.4614060000000 1.0
C      1  0.4649790000000  0.5176020000000  0.4396550000000 1.0
C      1  0.4386240000000  0.5114590000000  0.5208450000000 1.0
C      1  0.4183920000000  0.5134720000000  0.5632730000000 1.0
C      1  0.4119900000000  0.5218760000000  0.4301580000000 1.0
C      1  0.5330230000000  0.5130210000000  0.4008650000000 1.0
C      1  0.6037100000000  0.5163730000000  0.5081770000000 1.0
C      1  0.5372460000000  0.5099680000000  0.5995630000000 1.0
C      1  0.5942550000000  0.4824970000000  0.5646440000000 1.0
C      1  0.5850050000000  0.4846340000000  0.4436210000000 1.0
C      1  0.4647530000000  0.4813850000000  0.3962750000000 1.0
C      1  0.3930730000000  0.4874300000000  0.4976240000000 1.0
C      1  0.4703310000000  0.4788590000000  0.6066100000000 1.0
C      1  0.5514410000000  0.5465230000000  0.5784020000000 1.0
C      1  0.4513760000000  0.5555650000000  0.5656710000000 1.0
C      1  0.4097240000000  0.5564490000000  0.4655800000000 1.0
C      1  0.5039160000000  0.5464010000000  0.4033200000000 1.0
C      1  0.5794840000000  0.5506710000000  0.4822960000000 1.0
C      1  0.4529030000000  0.4449590000000  0.5774680000000 1.0
C      1  0.5600110000000  0.4448370000000  0.5614380000000 1.0
C      1  0.5901700000000  0.4503670000000  0.4710950000000 1.0
C      1  0.4966570000000  0.4445340000000  0.4141050000000 1.0
C      1  0.4192730000000  0.4445330000000  0.4794840000000 1.0
C      1  0.5532940000000  0.4266710000000  0.4927710000000 1.0
C      1  0.5181910000000  0.4348100000000  0.5266520000000 1.0
C      1  0.4693040000000  0.4233080000000  0.5347030000000 1.0
C      1  0.4636270000000  0.4216700000000  0.4768320000000 1.0
C      1  0.5096210000000  0.4197140000000  0.4595990000000 1.0
C      1  0.4499820000000  0.5745340000000  0.4935230000000 1.0
C      1  0.4833240000000  0.5761590000000  0.5267190000000 1.0
C      1  0.5497350000000  0.5827480000000  0.5451660000000 1.0
C      1  0.5326000000000  0.5720240000000  0.4750160000000 1.0
C      1  0.4895420000000  0.5697090000000  0.4478830000000 1.0
C      1  0.5320390000000  0.5779420000000  0.4264970000000 1.0
C      1  0.5636150000000  0.5695380000000  0.5248460000000 1.0
C      1  0.5114510000000  0.5735720000000  0.5692230000000 1.0
C      1  0.4374990000000  0.5739770000000  0.5201690000000 1.0
C      1  0.4432960000000  0.5838300000000  0.4457390000000 1.0
C      1  0.4640740000000  0.4273190000000  0.4485680000000 1.0
C      1  0.4427330000000  0.4304140000000  0.5221240000000 1.0
C      1  0.4933580000000  0.4171880000000  0.5782820000000 1.0
C      1  0.5678430000000  0.4298660000000  0.5174950000000 1.0
C      1  0.5428250000000  0.4366580000000  0.4476040000000 1.0
C      1  0.5671920000000  0.4319420000000  0.4676620000000 1.0
C      1  0.5482020000000  0.4267370000000  0.5394700000000 1.0
C      1  0.4673540000000  0.4219490000000  0.5650010000000 1.0
C      1  0.4430330000000  0.4338790000000  0.4928130000000 1.0
C      1  0.4907470000000  0.4250480000000  0.4366590000000 1.0
C      1  0.4304150000000  0.5779070000000  0.4704740000000 1.0
C      1  0.4581260000000  0.5678640000000  0.5395110000000 1.0
C      1  0.5409000000000  0.5730260000000  0.5702550000000 1.0
C      1  0.5546340000000  0.5617590000000  0.4959080000000 1.0
C      1  0.5066720000000  0.5667540000000  0.4243040000000 1.0
C      1  0.5183540000000  0.5336360000000  0.5416640000000 1.0
C      1  0.4753540000000  0.5188740000000  0.5662310000000 1.0
C      1  0.4503170000000  0.5391410000000  0.4676260000000 1.0
C      1  0.4975910000000  0.5163730000000  0.4485760000000 1.0
C      1  0.5381720000000  0.5262020000000  0.4941780000000 1.0
C      1  0.4837910000000  0.4717460000000  0.5616030000000 1.0
C      1  0.5315330000000  0.4751830000000  0.5384290000000 1.0
C      1  0.5401530000000  0.4762160000000  0.4924470000000 1.0
C      1  0.5056480000000  0.4864270000000  0.4498010000000 1.0
C      1  0.4372930000000  0.4842840000000  0.4775430000000 1.0
C      1  0.4257460000000  0.4577350000000  0.4544550000000 1.0
C      1  0.5184300000000  0.4647570000000  0.4139050000000 1.0
C      1  0.5955480000000  0.4659970000000  0.4963500000000 1.0
C      1  0.5384440000000  0.4658350000000  0.5665040000000 1.0
C      1  0.4327240000000  0.4609630000000  0.5629800000000 1.0
C      1  0.5772900000000  0.5313110000000  0.4605870000000 1.0
C      1  0.4806460000000  0.5293830000000  0.3997210000000 1.0
C      1  0.4040550000000  0.5363870000000  0.4872680000000 1.0
C      1  0.4710410000000  0.5524680000000  0.5859160000000 1.0
C      1  0.5735730000000  0.5352010000000  0.5635660000000 1.0
C      1  0.4291160000000  0.5388870000000  0.5697080000000 1.0
C      1  0.4062170000000  0.5475880000000  0.4393640000000 1.0
C      1  0.5267510000000  0.5381260000000  0.3892900000000 1.0
C      1  0.5998970000000  0.5423810000000  0.4992240000000 1.0
C      1  0.5470510000000  0.5357010000000  0.6038120000000 1.0
C      1  0.5862430000000  0.4568100000000  0.5514890000000 1.0
C      1  0.5995120000000  0.4608450000000  0.4467630000000 1.0
C      1  0.4715180000000  0.4544310000000  0.4042300000000 1.0
C      1  0.4013480000000  0.4608940000000  0.4935800000000 1.0
C      1  0.4590700000000  0.4532180000000  0.6038100000000 1.0
C      1  0.3928040000000  0.4960320000000  0.5243220000000 1.0
C      1  0.4386030000000  0.4906000000000  0.4074500000000 1.0
C      1  0.5565070000000  0.4852000000000  0.4348340000000 1.0
C      1  0.6165560000000  0.4933820000000  0.5512370000000 1.0
C      1  0.4994430000000  0.4797510000000  0.6072470000000 1.0
C      1  0.6052320000000  0.5132900000000  0.5355510000000 1.0
C      1  0.5541110000000  0.5120940000000  0.4204290000000 1.0
C      1  0.4317270000000  0.5202200000000  0.4077060000000 1.0
C      1  0.4121010000000  0.5135340000000  0.5350620000000 1.0
C      1  0.5151510000000  0.5017380000000  0.6150810000000 1.0
C      1  0.5064390000000  0.4773430000000  0.5232020000000 1.0
C      1  0.4797490000000  0.4822080000000  0.5341000000000 1.0
C      1  0.4656030000000  0.4932100000000  0.4769870000000 1.0
C      1  0.4903720000000  0.4762070000000  0.4747800000000 1.0
C      1  0.5107850000000  0.4869000000000  0.4967340000000 1.0
C      1  0.4724530000000  0.5121430000000  0.5356350000000 1.0
C      1  0.4969100000000  0.5256500000000  0.5234230000000 1.0
C      1  0.5098480000000  0.5168170000000  0.4984420000000 1.0
C      1  0.4943700000000  0.5282020000000  0.4763690000000 1.0
C      1  0.4683400000000  0.5211580000000  0.4831020000000 1.0
C      1  0.5903830000000  0.5048720000000  0.4635740000000 1.0
C      1  0.5713270000000  0.5032840000000  0.5628080000000 1.0
C      1  0.4613220000000  0.4955450000000  0.5827270000000 1.0
C      1  0.4004880000000  0.5077370000000  0.4774160000000 1.0
C      1  0.4863570000000  0.5006060000000  0.3983640000000 1.0
C      1  0.4131410000000  0.4998340000000  0.4511830000000 1.0
C      1  0.4349120000000  0.4895680000000  0.5709090000000 1.0
C      1  0.5484740000000  0.4923850000000  0.5789250000000 1.0
C      1  0.5977580000000  0.4951130000000  0.4900450000000 1.0
C      1  0.5137110000000  0.4908530000000  0.4004650000000 1.0
C      1  0.4998210000000  0.5507250000000  0.5848310000000 1.0
C      1  0.4159650000000  0.5547700000000  0.5191290000000 1.0
C      1  0.4570310000000  0.5360600000000  0.4159080000000 1.0
C      1  0.5535410000000  0.5343440000000  0.4436430000000 1.0
C      1  0.5782440000000  0.5480970000000  0.5375240000000 1.0
C      1  0.5150510000000  0.4368480000000  0.5790740000000 1.0
C      1  0.5782570000000  0.4580440000000  0.5210450000000 1.0
C      1  0.5446890000000  0.4586380000000  0.4253140000000 1.0
C      1  0.4437500000000  0.4438200000000  0.4372570000000 1.0
C      1  0.4274750000000  0.4548660000000  0.5343480000000 1.0
C      1  0.4313580000000  0.5351230000000  0.5014430000000 1.0
C      1  0.4612430000000  0.5608080000000  0.4444280000000 1.0
C      1  0.5440310000000  0.5645990000000  0.4479770000000 1.0
C      1  0.5468630000000  0.5293750000000  0.5248070000000 1.0
C      1  0.5081580000000  0.5698840000000  0.5401930000000 1.0
C      1  0.5311610000000  0.4461500000000  0.4941720000000 1.0
C      1  0.5208310000000  0.4455410000000  0.4666280000000 1.0
C      1  0.4719570000000  0.4698100000000  0.4400190000000 1.0
C      1  0.4594280000000  0.4666340000000  0.5175460000000 1.0
C      1  0.5019180000000  0.4461970000000  0.5539930000000 1.0
C      1  0.4902880000000  0.4162070000000  0.4868170000000 1.0
C      1  0.5013810000000  0.5746220000000  0.4748870000000 1.0
C      1  0.4802240000000  0.5786880000000  0.4968630000000 1.0
C      1  0.4939240000000  0.4177580000000  0.5171090000000 1.0
END
