TITL C-3577080-309-195 -5.74217884618475e-06 125000 -820.757755809985 0 0 134 (C1) n - 1
REM
REM in /home/bkarasulu/work/CARBON/AIRSS/Generating-Clusters/EDIP-Nigel-Params/with-SteepDescent/Higher-Symm/SD-CG/HFTN-CG
REM
REM
REM
REM
REM
REM ./C.cell (12c818d87b63d06a65506943cc24bca4)
REM
REM compiler GCC version 9.2.1 20190827 (Red Hat 9.2.1-1)
REM options -cpp -mtune=generic -march=x86-64 -g -O0 -fpre-include=/usr/include/finclude/math-vector-fortran.h
REM seed -667478770 213758071 -1972512528 -1334955410 318817890 1789873218 -766209700 2009426358 -2131602616 -908864345 963819310 1566560325 -1994298499 -806612679 -1803288129 -1354360882 -582541977 -158302886 -1263839728 -596700816 1825325708 -733303848 1304622878 -416030204 -200374028 1285866115 2072924712 2062460277 -753817261 2147123571 -2134361338 -455461904 -1053572810
REM
CELL 1.54180   50.00000   50.00000   50.00000   90.00000   90.00000   90.00000
LATT -1
SFAC C  
C      1  0.5572490000000  0.5244330000000  0.4235370000000 1.0
C      1  0.5606210000000  0.4302360000000  0.4581790000000 1.0
C      1  0.5664960000000  0.4462710000000  0.5521540000000 1.0
C      1  0.5677900000000  0.5271260000000  0.5663020000000 1.0
C      1  0.5598050000000  0.5726020000000  0.4985710000000 1.0
C      1  0.4258640000000  0.5203900000000  0.5713290000000 1.0
C      1  0.4496370000000  0.4468750000000  0.5443190000000 1.0
C      1  0.4439800000000  0.4361400000000  0.4522860000000 1.0
C      1  0.4427360000000  0.5248170000000  0.4257430000000 1.0
C      1  0.4401560000000  0.5777890000000  0.5076470000000 1.0
C      1  0.5248850000000  0.4774870000000  0.4411660000000 1.0
C      1  0.5278150000000  0.4404340000000  0.5026360000000 1.0
C      1  0.5162670000000  0.4822360000000  0.5615450000000 1.0
C      1  0.5181090000000  0.5491420000000  0.5357850000000 1.0
C      1  0.5221430000000  0.5454260000000  0.4643080000000 1.0
C      1  0.4570020000000  0.4853910000000  0.5768730000000 1.0
C      1  0.4796470000000  0.4424880000000  0.4976050000000 1.0
C      1  0.4812090000000  0.4814570000000  0.4363440000000 1.0
C      1  0.4722190000000  0.5463140000000  0.4713690000000 1.0
C      1  0.4752110000000  0.5431760000000  0.5435390000000 1.0
C      1  0.5449470000000  0.4512590000000  0.4049660000000 1.0
C      1  0.5412330000000  0.3977080000000  0.5226460000000 1.0
C      1  0.5533980000000  0.5079780000000  0.5832130000000 1.0
C      1  0.5503820000000  0.5883430000000  0.5321140000000 1.0
C      1  0.5484540000000  0.5619130000000  0.4250640000000 1.0
C      1  0.4497550000000  0.4435240000000  0.5831030000000 1.0
C      1  0.4482480000000  0.4086950000000  0.4798840000000 1.0
C      1  0.4477210000000  0.4943850000000  0.4016840000000 1.0
C      1  0.4543230000000  0.5912480000000  0.4600440000000 1.0
C      1  0.4455250000000  0.5423990000000  0.5810750000000 1.0
C      1  0.5234610000000  0.4545230000000  0.5276180000000 1.0
C      1  0.5112550000000  0.5113760000000  0.5605220000000 1.0
C      1  0.5101210000000  0.5534500000000  0.5064840000000 1.0
C      1  0.5132880000000  0.5218820000000  0.4472180000000 1.0
C      1  0.5187740000000  0.4549770000000  0.4596170000000 1.0
C      1  0.4887520000000  0.4484110000000  0.4685850000000 1.0
C      1  0.4852620000000  0.5116730000000  0.4423430000000 1.0
C      1  0.4796500000000  0.5529640000000  0.4994050000000 1.0
C      1  0.4817790000000  0.5193140000000  0.5593610000000 1.0
C      1  0.4957380000000  0.4626170000000  0.5336240000000 1.0
C      1  0.5790930000000  0.5247700000000  0.4968230000000 1.0
C      1  0.5798100000000  0.5069220000000  0.4726030000000 1.0
C      1  0.5855960000000  0.4772810000000  0.4802250000000 1.0
C      1  0.5898630000000  0.4816850000000  0.5190180000000 1.0
C      1  0.5815270000000  0.5102220000000  0.5212880000000 1.0
C      1  0.4162600000000  0.5280640000000  0.5016980000000 1.0
C      1  0.4192830000000  0.5074000000000  0.5226900000000 1.0
C      1  0.4282070000000  0.4817950000000  0.5125100000000 1.0
C      1  0.4219240000000  0.4760210000000  0.4835540000000 1.0
C      1  0.4163150000000  0.5133210000000  0.4735000000000 1.0
C      1  0.5281590000000  0.5327530000000  0.4919300000000 1.0
C      1  0.5313870000000  0.5003060000000  0.4586040000000 1.0
C      1  0.5357630000000  0.4612480000000  0.4834710000000 1.0
C      1  0.5401540000000  0.4806400000000  0.5247000000000 1.0
C      1  0.5259030000000  0.5204900000000  0.5366360000000 1.0
C      1  0.4631030000000  0.5353280000000  0.5181470000000 1.0
C      1  0.4606100000000  0.4968450000000  0.5490120000000 1.0
C      1  0.4776170000000  0.4707070000000  0.5102030000000 1.0
C      1  0.4724000000000  0.4726460000000  0.4643970000000 1.0
C      1  0.4679950000000  0.5175970000000  0.4662930000000 1.0
C      1  0.5469760000000  0.4177090000000  0.5034080000000 1.0
C      1  0.5477550000000  0.4837810000000  0.5656350000000 1.0
C      1  0.5475710000000  0.5591470000000  0.5382540000000 1.0
C      1  0.5486830000000  0.5557520000000  0.4534510000000 1.0
C      1  0.5461350000000  0.4749910000000  0.4203560000000 1.0
C      1  0.4515470000000  0.4305770000000  0.4983480000000 1.0
C      1  0.4536130000000  0.4768930000000  0.4237760000000 1.0
C      1  0.4511740000000  0.5630510000000  0.4575570000000 1.0
C      1  0.4520400000000  0.5579510000000  0.5544220000000 1.0
C      1  0.4314830000000  0.4669080000000  0.5794970000000 1.0
C      1  0.4981010000000  0.3998840000000  0.4858550000000 1.0
C      1  0.5041260000000  0.4653240000000  0.5853130000000 1.0
C      1  0.5048640000000  0.5628460000000  0.5698960000000 1.0
C      1  0.5010480000000  0.5777340000000  0.4597830000000 1.0
C      1  0.4979600000000  0.4876010000000  0.3971580000000 1.0
C      1  0.4960770000000  0.4128980000000  0.5169250000000 1.0
C      1  0.4985610000000  0.4535850000000  0.4149070000000 1.0
C      1  0.4986470000000  0.5740810000000  0.4281450000000 1.0
C      1  0.5018920000000  0.5894830000000  0.5430290000000 1.0
C      1  0.4966030000000  0.4879190000000  0.6061830000000 1.0
C      1  0.4816720000000  0.5564820000000  0.5873350000000 1.0
C      1  0.4778260000000  0.5932740000000  0.4751330000000 1.0
C      1  0.4742100000000  0.5048870000000  0.3957150000000 1.0
C      1  0.4740450000000  0.4014100000000  0.4676280000000 1.0
C      1  0.4789970000000  0.4472390000000  0.5772130000000 1.0
C      1  0.5213510000000  0.5598220000000  0.4136940000000 1.0
C      1  0.5236090000000  0.5982240000000  0.5259350000000 1.0
C      1  0.5136610000000  0.5100330000000  0.6092500000000 1.0
C      1  0.5199130000000  0.4086730000000  0.5369920000000 1.0
C      1  0.5239540000000  0.4370690000000  0.4168590000000 1.0
C      1  0.5548350000000  0.5537370000000  0.5672120000000 1.0
C      1  0.5527550000000  0.5800170000000  0.4696870000000 1.0
C      1  0.5486570000000  0.5000560000000  0.4044320000000 1.0
C      1  0.5501210000000  0.4067440000000  0.4762400000000 1.0
C      1  0.5555780000000  0.4574240000000  0.5778080000000 1.0
C      1  0.4475140000000  0.5567070000000  0.4288850000000 1.0
C      1  0.4518150000000  0.5855290000000  0.5438030000000 1.0
C      1  0.4208530000000  0.4947780000000  0.5854310000000 1.0
C      1  0.4471140000000  0.4226350000000  0.5263620000000 1.0
C      1  0.4488010000000  0.4473220000000  0.4220020000000 1.0
C      1  0.5217580000000  0.4012660000000  0.4677750000000 1.0
C      1  0.5283040000000  0.4447640000000  0.5815280000000 1.0
C      1  0.5294520000000  0.5508930000000  0.5829140000000 1.0
C      1  0.5251540000000  0.5919180000000  0.4718320000000 1.0
C      1  0.5200190000000  0.5072300000000  0.3964330000000 1.0
C      1  0.4711900000000  0.4071650000000  0.5318090000000 1.0
C      1  0.4760610000000  0.4349980000000  0.4211100000000 1.0
C      1  0.4738120000000  0.5633140000000  0.4164850000000 1.0
C      1  0.4762670000000  0.5939400000000  0.5296330000000 1.0
C      1  0.4704780000000  0.4996360000000  0.6000650000000 1.0
C      1  0.5315750000000  0.4345760000000  0.5494500000000 1.0
C      1  0.5264250000000  0.5208950000000  0.5858100000000 1.0
C      1  0.5218960000000  0.5814500000000  0.5008420000000 1.0
C      1  0.5199280000000  0.5294430000000  0.4185030000000 1.0
C      1  0.5300080000000  0.4309210000000  0.4461940000000 1.0
C      1  0.4760900000000  0.4273070000000  0.4508970000000 1.0
C      1  0.4749560000000  0.5249840000000  0.4176810000000 1.0
C      1  0.4696610000000  0.5813890000000  0.5025090000000 1.0
C      1  0.4730860000000  0.5277690000000  0.5871620000000 1.0
C      1  0.4806130000000  0.4408130000000  0.5484620000000 1.0
C      1  0.4433860000000  0.4637130000000  0.4649160000000 1.0
C      1  0.4524870000000  0.4734430000000  0.5279370000000 1.0
C      1  0.4387180000000  0.5173910000000  0.5436330000000 1.0
C      1  0.4358480000000  0.5490410000000  0.5138690000000 1.0
C      1  0.4404720000000  0.5146750000000  0.4547350000000 1.0
C      1  0.5667990000000  0.4660540000000  0.5297360000000 1.0
C      1  0.5640930000000  0.4550950000000  0.4755670000000 1.0
C      1  0.5581950000000  0.5125480000000  0.4520700000000 1.0
C      1  0.5554890000000  0.5422280000000  0.5043180000000 1.0
C      1  0.5571250000000  0.5147340000000  0.5399650000000 1.0
C      1  0.5313010000000  0.4933060000000  0.4932980000000 1.0
C      1  0.4771770000000  0.4937130000000  0.4863890000000 1.0
C      1  0.3995140000000  0.4898300000000  0.4714530000000 1.0
C      1  0.6074980000000  0.4720950000000  0.4980410000000 1.0
END
