TITL C-3577091-527-284 -2.53297696964724e-06 125000 -792.207032255109 0 0 127 (C1) n - 1
REM
REM in /home/bkarasulu/work/CARBON/AIRSS/Generating-Clusters/EDIP-Nigel-Params/with-SteepDescent/Higher-Symm/SD-CG/HFTN-CG
REM
REM
REM
REM
REM
REM ./C.cell (12c818d87b63d06a65506943cc24bca4)
REM
REM compiler GCC version 9.2.1 20190827 (Red Hat 9.2.1-1)
REM options -cpp -mtune=generic -march=x86-64 -g -O0 -fpre-include=/usr/include/finclude/math-vector-fortran.h
REM seed 209998569 -102469027 -419450952 460337704 1223125256 17297769 -1049501929 578516712 -831389431 491165678 421455007 1255126412 -911532249 2142368050 716956505 594160446 -643711503 -1082123985 -1804934129 472178926 -698463898 508826519 -872607235 -1022742495 2012513139 -1188191466 -923981337 -118408002 -539600101 -1521921498 -854563428 -1273562237 -2031359939
REM
CELL 1.54180   50.00000   50.00000   50.00000   90.00000   90.00000   90.00000
LATT -1
SFAC C  
C      1  0.5041170000000  0.3996760000000  0.4684220000000 1.0
C      1  0.4689420000000  0.5995940000000  0.4958150000000 1.0
C      1  0.4943190000000  0.4024130000000  0.5312440000000 1.0
C      1  0.5302680000000  0.6001810000000  0.5034320000000 1.0
C      1  0.5712330000000  0.4500840000000  0.5259440000000 1.0
C      1  0.5246560000000  0.5480020000000  0.4289470000000 1.0
C      1  0.4254370000000  0.4460760000000  0.4693430000000 1.0
C      1  0.4769280000000  0.5511140000000  0.5722740000000 1.0
C      1  0.5947660000000  0.4998230000000  0.4539290000000 1.0
C      1  0.4540090000000  0.5004830000000  0.4038070000000 1.0
C      1  0.4118000000000  0.4974180000000  0.5467410000000 1.0
C      1  0.5482900000000  0.5013160000000  0.5953060000000 1.0
C      1  0.4156750000000  0.5077470000000  0.4331650000000 1.0
C      1  0.4369020000000  0.4943010000000  0.5885320000000 1.0
C      1  0.5865120000000  0.5077280000000  0.5666190000000 1.0
C      1  0.5669660000000  0.4919350000000  0.4152480000000 1.0
C      1  0.5787760000000  0.4422350000000  0.5003840000000 1.0
C      1  0.4991970000000  0.5556410000000  0.4211170000000 1.0
C      1  0.4171860000000  0.4349010000000  0.4935710000000 1.0
C      1  0.5020790000000  0.5595660000000  0.5801620000000 1.0
C      1  0.5180710000000  0.4457790000000  0.4108520000000 1.0
C      1  0.4107130000000  0.5537840000000  0.4846520000000 1.0
C      1  0.4845320000000  0.4467850000000  0.5905360000000 1.0
C      1  0.5886330000000  0.5549650000000  0.5167480000000 1.0
C      1  0.4474230000000  0.5885950000000  0.5145260000000 1.0
C      1  0.5051050000000  0.4217120000000  0.5532660000000 1.0
C      1  0.5519760000000  0.5889010000000  0.4851170000000 1.0
C      1  0.4863790000000  0.4107060000000  0.4459940000000 1.0
C      1  0.4309230000000  0.4407500000000  0.5169520000000 1.0
C      1  0.5264310000000  0.5597030000000  0.5670170000000 1.0
C      1  0.5666610000000  0.4415050000000  0.4754270000000 1.0
C      1  0.4746170000000  0.5569930000000  0.4338310000000 1.0
C      1  0.5249330000000  0.5686670000000  0.5381990000000 1.0
C      1  0.5381030000000  0.4315940000000  0.4753830000000 1.0
C      1  0.4748650000000  0.5667590000000  0.4624260000000 1.0
C      1  0.4588670000000  0.4303750000000  0.5235700000000 1.0
C      1  0.5437980000000  0.5234850000000  0.5385160000000 1.0
C      1  0.5376800000000  0.4773870000000  0.4575010000000 1.0
C      1  0.4562060000000  0.5214740000000  0.4625610000000 1.0
C      1  0.4510790000000  0.4762980000000  0.5430500000000 1.0
C      1  0.4080430000000  0.5348550000000  0.5063280000000 1.0
C      1  0.5049790000000  0.4657060000000  0.5894260000000 1.0
C      1  0.5922380000000  0.5365520000000  0.4948460000000 1.0
C      1  0.4958400000000  0.4635190000000  0.4063940000000 1.0
C      1  0.5775490000000  0.5441410000000  0.4697520000000 1.0
C      1  0.4702240000000  0.4557720000000  0.4195640000000 1.0
C      1  0.4238920000000  0.5431460000000  0.5309010000000 1.0
C      1  0.5301890000000  0.4583100000000  0.5768960000000 1.0
C      1  0.5827970000000  0.4737700000000  0.5383140000000 1.0
C      1  0.5385850000000  0.5259410000000  0.4165400000000 1.0
C      1  0.4168320000000  0.4720840000000  0.4594150000000 1.0
C      1  0.4641740000000  0.5289610000000  0.5852490000000 1.0
C      1  0.5215140000000  0.4534090000000  0.4616560000000 1.0
C      1  0.4611740000000  0.5451130000000  0.4791340000000 1.0
C      1  0.4687380000000  0.4512680000000  0.5438160000000 1.0
C      1  0.5385580000000  0.5468280000000  0.5218950000000 1.0
C      1  0.5948380000000  0.4992780000000  0.5299270000000 1.0
C      1  0.5305470000000  0.5002180000000  0.4053250000000 1.0
C      1  0.4057400000000  0.4977420000000  0.4691620000000 1.0
C      1  0.4729930000000  0.5039170000000  0.5975510000000 1.0
C      1  0.4752640000000  0.4284610000000  0.4972960000000 1.0
C      1  0.4968190000000  0.5715220000000  0.5259170000000 1.0
C      1  0.5254430000000  0.4281000000000  0.5031360000000 1.0
C      1  0.5025910000000  0.5701590000000  0.4749840000000 1.0
C      1  0.5295470000000  0.4382730000000  0.5559550000000 1.0
C      1  0.5563650000000  0.5650190000000  0.4679770000000 1.0
C      1  0.4685300000000  0.4339710000000  0.4394150000000 1.0
C      1  0.4440480000000  0.5652310000000  0.5325820000000 1.0
C      1  0.5122410000000  0.4373630000000  0.4376810000000 1.0
C      1  0.4379880000000  0.5619290000000  0.4892450000000 1.0
C      1  0.4801100000000  0.4332850000000  0.5654610000000 1.0
C      1  0.5616730000000  0.5632700000000  0.5114870000000 1.0
C      1  0.4886040000000  0.4550440000000  0.4911460000000 1.0
C      1  0.4893740000000  0.5438930000000  0.5132140000000 1.0
C      1  0.5123660000000  0.4553480000000  0.5087780000000 1.0
C      1  0.5082980000000  0.5436280000000  0.4899570000000 1.0
C      1  0.4502050000000  0.4769970000000  0.4204070000000 1.0
C      1  0.4282840000000  0.5212100000000  0.5493910000000 1.0
C      1  0.5505770000000  0.4788480000000  0.5771690000000 1.0
C      1  0.5769840000000  0.5224700000000  0.4504350000000 1.0
C      1  0.5440390000000  0.4131260000000  0.5204460000000 1.0
C      1  0.5188240000000  0.5854910000000  0.4554590000000 1.0
C      1  0.4577550000000  0.4150230000000  0.4778770000000 1.0
C      1  0.4804740000000  0.5877890000000  0.5447450000000 1.0
C      1  0.5360870000000  0.4978640000000  0.5302160000000 1.0
C      1  0.5283200000000  0.5025430000000  0.4656570000000 1.0
C      1  0.4629610000000  0.4957080000000  0.4715840000000 1.0
C      1  0.4661870000000  0.5012450000000  0.5375590000000 1.0
C      1  0.5659700000000  0.4688900000000  0.4629520000000 1.0
C      1  0.4626750000000  0.5296860000000  0.4344150000000 1.0
C      1  0.4336760000000  0.4693950000000  0.5197580000000 1.0
C      1  0.5392670000000  0.5324100000000  0.5667140000000 1.0
C      1  0.4770680000000  0.4818640000000  0.4912370000000 1.0
C      1  0.4862220000000  0.5161000000000  0.5237630000000 1.0
C      1  0.5200570000000  0.4832950000000  0.5127970000000 1.0
C      1  0.5087650000000  0.5162040000000  0.4800290000000 1.0
C      1  0.5317620000000  0.4160790000000  0.4324830000000 1.0
C      1  0.4321720000000  0.5827620000000  0.4693690000000 1.0
C      1  0.4620250000000  0.4095980000000  0.5654960000000 1.0
C      1  0.5672760000000  0.5848760000000  0.5304840000000 1.0
C      1  0.4087030000000  0.5065460000000  0.4973050000000 1.0
C      1  0.4997840000000  0.4937500000000  0.5949830000000 1.0
C      1  0.5933630000000  0.5081930000000  0.5023350000000 1.0
C      1  0.5028140000000  0.4918220000000  0.4054730000000 1.0
C      1  0.5828870000000  0.4779970000000  0.4360380000000 1.0
C      1  0.4363220000000  0.5218510000000  0.4171510000000 1.0
C      1  0.4287150000000  0.4794230000000  0.5650180000000 1.0
C      1  0.5666330000000  0.5224930000000  0.5830710000000 1.0
C      1  0.5520200000000  0.4322790000000  0.5386150000000 1.0
C      1  0.5370750000000  0.5668020000000  0.4466660000000 1.0
C      1  0.4464780000000  0.4303400000000  0.4576120000000 1.0
C      1  0.4628350000000  0.5688060000000  0.5544920000000 1.0
C      1  0.5771790000000  0.4801080000000  0.5657100000000 1.0
C      1  0.5657720000000  0.5198260000000  0.4237020000000 1.0
C      1  0.4238930000000  0.4799160000000  0.4327980000000 1.0
C      1  0.4374300000000  0.5214120000000  0.5774130000000 1.0
C      1  0.4811160000000  0.5102890000000  0.4065910000000 1.0
C      1  0.4098380000000  0.4863050000000  0.5188870000000 1.0
C      1  0.5215820000000  0.5119980000000  0.5941170000000 1.0
C      1  0.5928880000000  0.4895070000000  0.4808690000000 1.0
C      1  0.5395250000000  0.5950990000000  0.5319650000000 1.0
C      1  0.5326500000000  0.4055760000000  0.4600620000000 1.0
C      1  0.4598360000000  0.5931640000000  0.4675230000000 1.0
C      1  0.4642210000000  0.4029680000000  0.5373150000000 1.0
C      1  0.4999890000000  0.4101510000000  0.5007130000000 1.0
C      1  0.4996180000000  0.5888790000000  0.4999100000000 1.0
C      1  0.4980180000000  0.4995140000000  0.5021020000000 1.0
END
