TITL C-3577077-324-140 8.27738814782873e-05 125000 -1159.26287536806 0 0 185 (C1) n - 1
REM
REM in /home/bkarasulu/work/CARBON/AIRSS/Generating-Clusters/EDIP-Nigel-Params/with-SteepDescent/Higher-Symm/SD-CG/HFTN-CG
REM
REM
REM
REM
REM
REM ./C.cell (12c818d87b63d06a65506943cc24bca4)
REM
REM compiler GCC version 9.2.1 20190827 (Red Hat 9.2.1-1)
REM options -cpp -mtune=generic -march=x86-64 -g -O0 -fpre-include=/usr/include/finclude/math-vector-fortran.h
REM seed 531561895 1954950292 517355426 776282570 974550557 -192450241 114895318 -496922922 -3668918 -2074508930 1403143784 -793114662 -2116285507 -1384307327 1957374187 1281391615 -230292838 672407348 -2122070096 1427537161 1408974456 -349264505 2046851495 -9990819 -1488826774 -177775680 -2005914615 1904561181 1760549767 -1008273230 -683707981 -1622737287 617832112
REM
CELL 1.54180   50.00000   50.00000   50.00000   90.00000   90.00000   90.00000
LATT -1
SFAC C  
C      1  0.5277330000000  0.4884810000000  0.5518040000000 1.0
C      1  0.5062310000000  0.4633520000000  0.5520170000000 1.0
C      1  0.4739880000000  0.4693300000000  0.5483090000000 1.0
C      1  0.4639770000000  0.4985860000000  0.5367290000000 1.0
C      1  0.4747410000000  0.5369840000000  0.5475370000000 1.0
C      1  0.5075120000000  0.5357500000000  0.5464980000000 1.0
C      1  0.5156530000000  0.5098500000000  0.5336410000000 1.0
C      1  0.4950700000000  0.6091720000000  0.5118460000000 1.0
C      1  0.5789720000000  0.5747030000000  0.5101300000000 1.0
C      1  0.6024930000000  0.4861360000000  0.5140200000000 1.0
C      1  0.5531970000000  0.4118400000000  0.5124550000000 1.0
C      1  0.4657520000000  0.4016930000000  0.5100850000000 1.0
C      1  0.3839260000000  0.4866860000000  0.4950690000000 1.0
C      1  0.4145730000000  0.5683440000000  0.5069090000000 1.0
C      1  0.5301690000000  0.4506140000000  0.5065060000000 1.0
C      1  0.4845230000000  0.4352040000000  0.5176410000000 1.0
C      1  0.4297190000000  0.4709500000000  0.5053350000000 1.0
C      1  0.4472600000000  0.5408980000000  0.4951570000000 1.0
C      1  0.4975540000000  0.5607090000000  0.5066730000000 1.0
C      1  0.5470530000000  0.5438950000000  0.5047020000000 1.0
C      1  0.5612720000000  0.5002080000000  0.5169430000000 1.0
C      1  0.4805250000000  0.4060980000000  0.4848170000000 1.0
C      1  0.4060450000000  0.4719520000000  0.4868410000000 1.0
C      1  0.4211810000000  0.5501460000000  0.4830820000000 1.0
C      1  0.4955590000000  0.5863900000000  0.4911770000000 1.0
C      1  0.5581410000000  0.5674940000000  0.4896080000000 1.0
C      1  0.5909540000000  0.5010200000000  0.4924670000000 1.0
C      1  0.5518890000000  0.4346090000000  0.4929810000000 1.0
C      1  0.6065300000000  0.5474560000000  0.5554810000000 1.0
C      1  0.6010450000000  0.4493640000000  0.5592070000000 1.0
C      1  0.5245380000000  0.3848140000000  0.5542540000000 1.0
C      1  0.4244680000000  0.4135000000000  0.5551210000000 1.0
C      1  0.4004490000000  0.5031750000000  0.5458600000000 1.0
C      1  0.4387980000000  0.5862510000000  0.5533550000000 1.0
C      1  0.5296780000000  0.6088560000000  0.5550140000000 1.0
C      1  0.4357520000000  0.5897170000000  0.5067980000000 1.0
C      1  0.5259590000000  0.6043970000000  0.5081360000000 1.0
C      1  0.5996240000000  0.5524110000000  0.5092570000000 1.0
C      1  0.5905510000000  0.4590540000000  0.5138100000000 1.0
C      1  0.5251400000000  0.3995400000000  0.5091550000000 1.0
C      1  0.4380700000000  0.4126000000000  0.5097390000000 1.0
C      1  0.3934110000000  0.5122950000000  0.5007570000000 1.0
C      1  0.4896180000000  0.5321790000000  0.4999980000000 1.0
C      1  0.5274180000000  0.5244670000000  0.4936740000000 1.0
C      1  0.5389040000000  0.4980170000000  0.4977390000000 1.0
C      1  0.5220820000000  0.4746040000000  0.4912170000000 1.0
C      1  0.4768910000000  0.4607080000000  0.5049010000000 1.0
C      1  0.4531940000000  0.4599050000000  0.4894660000000 1.0
C      1  0.4511150000000  0.5130990000000  0.4899360000000 1.0
C      1  0.5949050000000  0.5332450000000  0.5326130000000 1.0
C      1  0.5799950000000  0.4488630000000  0.5391420000000 1.0
C      1  0.5104900000000  0.4013070000000  0.5348860000000 1.0
C      1  0.4359460000000  0.4297040000000  0.5336780000000 1.0
C      1  0.4128750000000  0.5148910000000  0.5229000000000 1.0
C      1  0.4541120000000  0.5813870000000  0.5293280000000 1.0
C      1  0.5341670000000  0.5895370000000  0.5337410000000 1.0
C      1  0.4751670000000  0.5099790000000  0.6278010000000 1.0
C      1  0.4938690000000  0.5289640000000  0.6187570000000 1.0
C      1  0.5203140000000  0.5221340000000  0.6244210000000 1.0
C      1  0.5292890000000  0.5009730000000  0.6081830000000 1.0
C      1  0.5237100000000  0.4742110000000  0.6181940000000 1.0
C      1  0.4995170000000  0.4715440000000  0.6326010000000 1.0
C      1  0.4762600000000  0.4825590000000  0.6215620000000 1.0
C      1  0.4984780000000  0.5837330000000  0.4011310000000 1.0
C      1  0.5653710000000  0.5556890000000  0.4017360000000 1.0
C      1  0.5863470000000  0.4870720000000  0.4058470000000 1.0
C      1  0.5461620000000  0.4274240000000  0.4055630000000 1.0
C      1  0.4751730000000  0.4337220000000  0.3957550000000 1.0
C      1  0.4232420000000  0.4783460000000  0.4043640000000 1.0
C      1  0.4345070000000  0.5515580000000  0.3952160000000 1.0
C      1  0.5176310000000  0.4942380000000  0.3702780000000 1.0
C      1  0.5088430000000  0.4672680000000  0.3690140000000 1.0
C      1  0.4831660000000  0.4594010000000  0.3810530000000 1.0
C      1  0.4609460000000  0.4769130000000  0.3753060000000 1.0
C      1  0.4582590000000  0.5040430000000  0.3818460000000 1.0
C      1  0.4776920000000  0.5253140000000  0.3848260000000 1.0
C      1  0.5050200000000  0.5198080000000  0.3743580000000 1.0
C      1  0.5189130000000  0.4171270000000  0.4602070000000 1.0
C      1  0.4411110000000  0.4288790000000  0.4605040000000 1.0
C      1  0.4133520000000  0.5108870000000  0.4544520000000 1.0
C      1  0.4473080000000  0.5813460000000  0.4560170000000 1.0
C      1  0.5255730000000  0.5864900000000  0.4584060000000 1.0
C      1  0.5878310000000  0.5408600000000  0.4589130000000 1.0
C      1  0.5790080000000  0.4635870000000  0.4640540000000 1.0
C      1  0.5443850000000  0.5695770000000  0.4429660000000 1.0
C      1  0.5844640000000  0.5140210000000  0.4464700000000 1.0
C      1  0.5604630000000  0.4479050000000  0.4467640000000 1.0
C      1  0.4942340000000  0.4283200000000  0.4448300000000 1.0
C      1  0.4282570000000  0.4522170000000  0.4457370000000 1.0
C      1  0.4223410000000  0.5348820000000  0.4378970000000 1.0
C      1  0.4732920000000  0.5811660000000  0.4424960000000 1.0
C      1  0.4641560000000  0.4843320000000  0.4137120000000 1.0
C      1  0.4643220000000  0.5066350000000  0.4343170000000 1.0
C      1  0.4790990000000  0.5291850000000  0.4230220000000 1.0
C      1  0.5066270000000  0.5270970000000  0.4112030000000 1.0
C      1  0.5206740000000  0.5031570000000  0.4208810000000 1.0
C      1  0.5147360000000  0.4788780000000  0.4053420000000 1.0
C      1  0.4901180000000  0.4671530000000  0.4189110000000 1.0
C      1  0.6003830000000  0.5027570000000  0.5388160000000 1.0
C      1  0.5629090000000  0.4237590000000  0.5400410000000 1.0
C      1  0.4807740000000  0.3966420000000  0.5370200000000 1.0
C      1  0.4233300000000  0.4559900000000  0.5311790000000 1.0
C      1  0.4201680000000  0.5441240000000  0.5297590000000 1.0
C      1  0.4833160000000  0.5912580000000  0.5350170000000 1.0
C      1  0.5631070000000  0.5791040000000  0.5363620000000 1.0
C      1  0.4321250000000  0.4549090000000  0.4175510000000 1.0
C      1  0.4211280000000  0.5319050000000  0.4095220000000 1.0
C      1  0.4741220000000  0.5813460000000  0.4136110000000 1.0
C      1  0.5464810000000  0.5709260000000  0.4145040000000 1.0
C      1  0.5859710000000  0.5116520000000  0.4178580000000 1.0
C      1  0.5642760000000  0.4432410000000  0.4187970000000 1.0
C      1  0.4954360000000  0.4232580000000  0.4146240000000 1.0
C      1  0.4121730000000  0.4730150000000  0.4587950000000 1.0
C      1  0.4275350000000  0.5592350000000  0.4548650000000 1.0
C      1  0.4960860000000  0.5883820000000  0.4600560000000 1.0
C      1  0.5656910000000  0.5602630000000  0.4612310000000 1.0
C      1  0.5887230000000  0.4917060000000  0.4652340000000 1.0
C      1  0.5457180000000  0.4287380000000  0.4639470000000 1.0
C      1  0.4695860000000  0.4180930000000  0.4600190000000 1.0
C      1  0.5847960000000  0.5510150000000  0.5718950000000 1.0
C      1  0.5917030000000  0.4695180000000  0.5760750000000 1.0
C      1  0.5300740000000  0.4032050000000  0.5742020000000 1.0
C      1  0.4449350000000  0.4131420000000  0.5740130000000 1.0
C      1  0.4114310000000  0.4885320000000  0.5663090000000 1.0
C      1  0.4343460000000  0.5667630000000  0.5722810000000 1.0
C      1  0.5156830000000  0.5942790000000  0.5739470000000 1.0
C      1  0.5248060000000  0.5803150000000  0.4005540000000 1.0
C      1  0.5804370000000  0.5338480000000  0.4027140000000 1.0
C      1  0.5787510000000  0.4617270000000  0.4047430000000 1.0
C      1  0.5207140000000  0.4200410000000  0.4038530000000 1.0
C      1  0.4491910000000  0.4364710000000  0.4057160000000 1.0
C      1  0.4185900000000  0.5052270000000  0.4010320000000 1.0
C      1  0.4528010000000  0.5708040000000  0.3993370000000 1.0
C      1  0.5797880000000  0.4912260000000  0.5590230000000 1.0
C      1  0.5479100000000  0.4245170000000  0.5659370000000 1.0
C      1  0.4716520000000  0.4157210000000  0.5605650000000 1.0
C      1  0.4304780000000  0.4701630000000  0.5563150000000 1.0
C      1  0.4323060000000  0.5423340000000  0.5579190000000 1.0
C      1  0.4902730000000  0.5843360000000  0.5646950000000 1.0
C      1  0.5609750000000  0.5549570000000  0.5550780000000 1.0
C      1  0.4914880000000  0.5315910000000  0.5891240000000 1.0
C      1  0.5193360000000  0.5327780000000  0.5742560000000 1.0
C      1  0.5357310000000  0.5066430000000  0.5788930000000 1.0
C      1  0.5250780000000  0.4542620000000  0.5974170000000 1.0
C      1  0.4999540000000  0.4541800000000  0.5813110000000 1.0
C      1  0.4751760000000  0.4781210000000  0.5915160000000 1.0
C      1  0.4742470000000  0.5071850000000  0.5787120000000 1.0
C      1  0.4441880000000  0.5035730000000  0.4607560000000 1.0
C      1  0.4894090000000  0.5252120000000  0.4710110000000 1.0
C      1  0.5179850000000  0.5264950000000  0.4653250000000 1.0
C      1  0.5190670000000  0.4998390000000  0.4501460000000 1.0
C      1  0.5203990000000  0.4707160000000  0.4605260000000 1.0
C      1  0.4940070000000  0.4585620000000  0.4480260000000 1.0
C      1  0.4618950000000  0.4735670000000  0.4633430000000 1.0
C      1  0.5090510000000  0.4070190000000  0.4853880000000 1.0
C      1  0.4296160000000  0.4228980000000  0.4853490000000 1.0
C      1  0.4026280000000  0.5268250000000  0.4778490000000 1.0
C      1  0.4472790000000  0.5926680000000  0.4815460000000 1.0
C      1  0.5378850000000  0.5889180000000  0.4849080000000 1.0
C      1  0.6019960000000  0.5411670000000  0.4834500000000 1.0
C      1  0.5756530000000  0.4518750000000  0.4904660000000 1.0
C      1  0.4503640000000  0.4594820000000  0.5778950000000 1.0
C      1  0.4455290000000  0.5158400000000  0.5688070000000 1.0
C      1  0.4774520000000  0.5586790000000  0.5767630000000 1.0
C      1  0.5376030000000  0.5557720000000  0.5750470000000 1.0
C      1  0.5656440000000  0.5112550000000  0.5762530000000 1.0
C      1  0.5501320000000  0.4473980000000  0.5845900000000 1.0
C      1  0.4919270000000  0.4254050000000  0.5805540000000 1.0
C      1  0.5570380000000  0.4804800000000  0.5405760000000 1.0
C      1  0.5128850000000  0.4398220000000  0.5297600000000 1.0
C      1  0.4647030000000  0.4382610000000  0.5413500000000 1.0
C      1  0.4392600000000  0.4990710000000  0.5143070000000 1.0
C      1  0.4580390000000  0.5511680000000  0.5237230000000 1.0
C      1  0.5116380000000  0.5642970000000  0.5324630000000 1.0
C      1  0.5610760000000  0.5307990000000  0.5291280000000 1.0
C      1  0.5802040000000  0.5306390000000  0.5902750000000 1.0
C      1  0.5738390000000  0.4587260000000  0.5942150000000 1.0
C      1  0.5095360000000  0.4073600000000  0.5925550000000 1.0
C      1  0.4428270000000  0.4348540000000  0.5913100000000 1.0
C      1  0.4248410000000  0.5032560000000  0.5857940000000 1.0
C      1  0.4535540000000  0.5650230000000  0.5922050000000 1.0
C      1  0.5307380000000  0.5779150000000  0.5905620000000 1.0
C      1  0.4907280000000  0.5058100000000  0.5180620000000 1.0
C      1  0.4942810000000  0.4833130000000  0.4979310000000 1.0
C      1  0.4862910000000  0.4948470000000  0.4711900000000 1.0
END
