TITL C-3578200-9634-368 -3.01253709352967e-06 125000 -373.747357291864 0 0 61 (C1) n - 1
REM
REM in /home/bkarasulu/work/CARBON/AIRSS/Generating-Clusters/EDIP-Nigel-Params/with-SteepDescent/Higher-Symm/SD-CG/HFTN-CG
REM
REM
REM
REM
REM
REM ./C.cell (12c818d87b63d06a65506943cc24bca4)
REM
REM compiler GCC version 9.2.1 20190827 (Red Hat 9.2.1-1)
REM options -cpp -mtune=generic -march=x86-64 -g -O0 -fpre-include=/usr/include/finclude/math-vector-fortran.h
REM seed 646778216 826869060 72149771 1522815469 1262938146 -334473625 1224000781 2012862942 679396685 775350645 436640096 1838925775 1235764541 2128097872 1449281704 -1304795052 887341873 -1560196257 530691593 -590050228 1733873966 -676381032 -1611159765 -937211353 1097562654 -1109471901 -1982177377 -1428464446 -678380368 -81679723 1380539252 579710514 -1166141841
REM
CELL 1.54180   50.00000   50.00000   50.00000   90.00000   90.00000   90.00000
LATT -1
SFAC C  
C      1  0.5566510000000  0.5117390000000  0.5107580000000 1.0
C      1  0.4643910000000  0.5008620000000  0.5538230000000 1.0
C      1  0.4980410000000  0.5799680000000  0.4840470000000 1.0
C      1  0.4481760000000  0.5165670000000  0.4686150000000 1.0
C      1  0.4656470000000  0.5047280000000  0.4275490000000 1.0
C      1  0.5223690000000  0.4826160000000  0.5344530000000 1.0
C      1  0.4442320000000  0.5317860000000  0.4924030000000 1.0
C      1  0.5097600000000  0.4481800000000  0.4473870000000 1.0
C      1  0.4482740000000  0.4525810000000  0.4781200000000 1.0
C      1  0.5483660000000  0.4709930000000  0.4702230000000 1.0
C      1  0.4527570000000  0.5242590000000  0.5394510000000 1.0
C      1  0.4996500000000  0.4643550000000  0.4909030000000 1.0
C      1  0.5250100000000  0.5779210000000  0.4926450000000 1.0
C      1  0.5149490000000  0.4985640000000  0.5687380000000 1.0
C      1  0.4379780000000  0.5139570000000  0.5150820000000 1.0
C      1  0.4633680000000  0.5252890000000  0.4464630000000 1.0
C      1  0.5019370000000  0.5254420000000  0.5252630000000 1.0
C      1  0.4550450000000  0.4644950000000  0.4533190000000 1.0
C      1  0.5127920000000  0.5478920000000  0.5642810000000 1.0
C      1  0.4313870000000  0.4668890000000  0.4961200000000 1.0
C      1  0.5082110000000  0.5686190000000  0.5441600000000 1.0
C      1  0.5141210000000  0.5360860000000  0.4990640000000 1.0
C      1  0.4674200000000  0.4343010000000  0.4905920000000 1.0
C      1  0.5508000000000  0.5194050000000  0.4642270000000 1.0
C      1  0.4498130000000  0.4865440000000  0.5076450000000 1.0
C      1  0.4616550000000  0.4774030000000  0.5339890000000 1.0
C      1  0.5258770000000  0.4272200000000  0.4898520000000 1.0
C      1  0.4909240000000  0.5513680000000  0.4825780000000 1.0
C      1  0.4938390000000  0.4526080000000  0.5203400000000 1.0
C      1  0.4749230000000  0.5419510000000  0.5282360000000 1.0
C      1  0.5283250000000  0.5649070000000  0.5210480000000 1.0
C      1  0.4707100000000  0.4897150000000  0.4838040000000 1.0
C      1  0.5356570000000  0.4390230000000  0.5154390000000 1.0
C      1  0.4918410000000  0.4264910000000  0.4494590000000 1.0
C      1  0.4903950000000  0.4220300000000  0.4772330000000 1.0
C      1  0.5437620000000  0.4935940000000  0.4518520000000 1.0
C      1  0.4670900000000  0.5480170000000  0.5003130000000 1.0
C      1  0.5234390000000  0.4526170000000  0.4733680000000 1.0
C      1  0.5162900000000  0.4983430000000  0.4445560000000 1.0
C      1  0.5153100000000  0.4390150000000  0.5374130000000 1.0
C      1  0.4801580000000  0.5676220000000  0.5410790000000 1.0
C      1  0.5009750000000  0.4944980000000  0.4929690000000 1.0
C      1  0.4869620000000  0.5097980000000  0.5727090000000 1.0
C      1  0.5505200000000  0.5290020000000  0.5353480000000 1.0
C      1  0.5377680000000  0.4687730000000  0.5133610000000 1.0
C      1  0.5374170000000  0.5426730000000  0.4525140000000 1.0
C      1  0.5369780000000  0.5642780000000  0.4710290000000 1.0
C      1  0.4633090000000  0.4291040000000  0.5186890000000 1.0
C      1  0.4892980000000  0.5380320000000  0.5773290000000 1.0
C      1  0.5544490000000  0.5564460000000  0.5298100000000 1.0
C      1  0.5346430000000  0.5140040000000  0.4898370000000 1.0
C      1  0.5724850000000  0.4720600000000  0.4858150000000 1.0
C      1  0.5168610000000  0.4623280000000  0.5560050000000 1.0
C      1  0.4601810000000  0.4489600000000  0.5389840000000 1.0
C      1  0.5631570000000  0.4819980000000  0.5105260000000 1.0
C      1  0.5125560000000  0.5281790000000  0.4430560000000 1.0
C      1  0.4999970000000  0.4745110000000  0.4380590000000 1.0
C      1  0.4713280000000  0.4779330000000  0.4341950000000 1.0
C      1  0.4877950000000  0.5400070000000  0.4539800000000 1.0
C      1  0.5228120000000  0.5249140000000  0.5482120000000 1.0
C      1  0.4991680000000  0.4965410000000  0.5216830000000 1.0
END
