TITL C-3577081-279-481 3.4901005375947e-09 125000 -127.046521020881 0 0 22 (C1) n - 1
REM
REM in /home/bkarasulu/work/CARBON/AIRSS/Generating-Clusters/EDIP-Nigel-Params/with-SteepDescent/Higher-Symm/SD-CG/HFTN-CG
REM
REM
REM
REM
REM
REM ./C.cell (12c818d87b63d06a65506943cc24bca4)
REM
REM compiler GCC version 9.2.1 20190827 (Red Hat 9.2.1-1)
REM options -cpp -mtune=generic -march=x86-64 -g -O0 -fpre-include=/usr/include/finclude/math-vector-fortran.h
REM seed 204279136 -593028758 789144543 1589935786 -443532785 2071720353 960272204 -176913845 1342525208 305408074 -2135376910 1833828512 1581625584 -256917606 -1838944900 -1304339479 -1619137064 2119763334 -2118258496 -1107188744 1307335130 -2002374795 -252342497 -1673463015 -223498821 -1206954737 1429032893 599186905 613505369 425062505 -1709146837 1668161421 572609756
REM
CELL 1.54180   50.00000   50.00000   50.00000   90.00000   90.00000   90.00000
LATT -1
SFAC C  
C      1  0.5568330000000  0.4854800000000  0.4791790000000 1.0
C      1  0.5162950000000  0.5258830000000  0.4712690000000 1.0
C      1  0.5121450000000  0.4978340000000  0.4629090000000 1.0
C      1  0.5289370000000  0.4788380000000  0.4786180000000 1.0
C      1  0.4832240000000  0.5625880000000  0.4778520000000 1.0
C      1  0.4749290000000  0.4941980000000  0.4869640000000 1.0
C      1  0.4630830000000  0.5191970000000  0.4895600000000 1.0
C      1  0.4890440000000  0.4815830000000  0.5107370000000 1.0
C      1  0.4772750000000  0.5051890000000  0.5630340000000 1.0
C      1  0.5193330000000  0.4802580000000  0.5065580000000 1.0
C      1  0.4559110000000  0.4553620000000  0.5448370000000 1.0
C      1  0.4827130000000  0.4967610000000  0.5362960000000 1.0
C      1  0.4854510000000  0.4888500000000  0.4615500000000 1.0
C      1  0.4788340000000  0.4540360000000  0.5145640000000 1.0
C      1  0.5600990000000  0.5283320000000  0.4983450000000 1.0
C      1  0.5585590000000  0.5006950000000  0.5032170000000 1.0
C      1  0.4626950000000  0.5439670000000  0.4775160000000 1.0
C      1  0.4639260000000  0.4814140000000  0.5545580000000 1.0
C      1  0.4522380000000  0.4477770000000  0.5184910000000 1.0
C      1  0.5394960000000  0.4922370000000  0.5225750000000 1.0
C      1  0.4975090000000  0.5451980000000  0.4616950000000 1.0
C      1  0.5414700000000  0.5343220000000  0.4796780000000 1.0
END
