TITL C-3577077-324-609 1.48796092639457e-07 125000 -726.969891757869 0 0 118 (C1) n - 1
REM
REM in /home/bkarasulu/work/CARBON/AIRSS/Generating-Clusters/EDIP-Nigel-Params/with-SteepDescent/Higher-Symm/SD-CG/HFTN-CG
REM
REM
REM
REM
REM
REM ./C.cell (12c818d87b63d06a65506943cc24bca4)
REM
REM compiler GCC version 9.2.1 20190827 (Red Hat 9.2.1-1)
REM options -cpp -mtune=generic -march=x86-64 -g -O0 -fpre-include=/usr/include/finclude/math-vector-fortran.h
REM seed -1624597089 754478090 -1064556532 1053857892 -1381194934 -1107954412 1530608911 698380227 2001563169 726002980 239965311 648352951 -2139144399 1586348780 485741776 1014775822 1281852414 590662989 2096674572 -1824939829 -780844366 613281138 -687734769 2096968713 878945300 -2086675803 1869848930 -555442389 -1667141161 -823841703 1519829863 1099945163 -1785259073
REM
CELL 1.54180   50.00000   50.00000   50.00000   90.00000   90.00000   90.00000
LATT -1
SFAC C  
C      1  0.5187330000000  0.4937980000000  0.4755280000000 1.0
C      1  0.5185180000000  0.5214140000000  0.4875180000000 1.0
C      1  0.5166370000000  0.5189660000000  0.5172790000000 1.0
C      1  0.5103760000000  0.4910990000000  0.5194980000000 1.0
C      1  0.5185110000000  0.4738970000000  0.4968160000000 1.0
C      1  0.5396710000000  0.4476630000000  0.5406060000000 1.0
C      1  0.5417930000000  0.4301100000000  0.4576400000000 1.0
C      1  0.5375950000000  0.5133950000000  0.4305010000000 1.0
C      1  0.5385110000000  0.5684520000000  0.5004230000000 1.0
C      1  0.5406820000000  0.5328240000000  0.5742750000000 1.0
C      1  0.4114370000000  0.5461680000000  0.5313450000000 1.0
C      1  0.4123530000000  0.4845220000000  0.5492320000000 1.0
C      1  0.4244060000000  0.4534780000000  0.5025170000000 1.0
C      1  0.4106450000000  0.4817220000000  0.4569440000000 1.0
C      1  0.4119400000000  0.5432350000000  0.4752350000000 1.0
C      1  0.4984470000000  0.4859930000000  0.4546480000000 1.0
C      1  0.5011730000000  0.5426750000000  0.4737560000000 1.0
C      1  0.4981350000000  0.5366030000000  0.5334050000000 1.0
C      1  0.4921210000000  0.4816950000000  0.5410000000000 1.0
C      1  0.5042490000000  0.4468000000000  0.4912030000000 1.0
C      1  0.5729370000000  0.4381870000000  0.4911920000000 1.0
C      1  0.5713620000000  0.4816310000000  0.4318410000000 1.0
C      1  0.5704240000000  0.5432850000000  0.4754860000000 1.0
C      1  0.5751410000000  0.5564790000000  0.5523430000000 1.0
C      1  0.5640320000000  0.4871070000000  0.5513710000000 1.0
C      1  0.4681400000000  0.5890350000000  0.4788160000000 1.0
C      1  0.4609970000000  0.5411390000000  0.5829910000000 1.0
C      1  0.4534220000000  0.4318630000000  0.5430820000000 1.0
C      1  0.4608230000000  0.4118760000000  0.4553690000000 1.0
C      1  0.4565270000000  0.5186020000000  0.4146470000000 1.0
C      1  0.5382970000000  0.4118640000000  0.4802760000000 1.0
C      1  0.5280510000000  0.4893880000000  0.4161940000000 1.0
C      1  0.5352930000000  0.5760830000000  0.4718130000000 1.0
C      1  0.5303440000000  0.5590880000000  0.5675510000000 1.0
C      1  0.5305970000000  0.4575340000000  0.5661940000000 1.0
C      1  0.4804260000000  0.4027750000000  0.5182830000000 1.0
C      1  0.4737660000000  0.4479500000000  0.4272490000000 1.0
C      1  0.4760760000000  0.5609680000000  0.4319130000000 1.0
C      1  0.4745340000000  0.5866770000000  0.5333880000000 1.0
C      1  0.4769970000000  0.4940760000000  0.5939930000000 1.0
C      1  0.4786730000000  0.4511530000000  0.5075580000000 1.0
C      1  0.4745850000000  0.4714790000000  0.4689150000000 1.0
C      1  0.4756870000000  0.5279600000000  0.4661520000000 1.0
C      1  0.4755050000000  0.5423010000000  0.5128350000000 1.0
C      1  0.4608460000000  0.4980540000000  0.5431070000000 1.0
C      1  0.5682330000000  0.4415940000000  0.4624700000000 1.0
C      1  0.5661500000000  0.5100670000000  0.4379820000000 1.0
C      1  0.5634290000000  0.5526850000000  0.5025760000000 1.0
C      1  0.5696320000000  0.5323610000000  0.5689410000000 1.0
C      1  0.5614190000000  0.4660370000000  0.5313380000000 1.0
C      1  0.4884620000000  0.4152390000000  0.4529530000000 1.0
C      1  0.4850340000000  0.5174730000000  0.4161250000000 1.0
C      1  0.4919780000000  0.5993850000000  0.4895200000000 1.0
C      1  0.4886510000000  0.5381940000000  0.5827910000000 1.0
C      1  0.4818270000000  0.4331190000000  0.5534990000000 1.0
C      1  0.5524750000000  0.4045160000000  0.5264150000000 1.0
C      1  0.5421540000000  0.4455210000000  0.4129320000000 1.0
C      1  0.5503970000000  0.5589980000000  0.4304010000000 1.0
C      1  0.5445720000000  0.5961280000000  0.5392990000000 1.0
C      1  0.5430720000000  0.4911650000000  0.5989790000000 1.0
C      1  0.5168570000000  0.4198600000000  0.4995430000000 1.0
C      1  0.5088320000000  0.4689720000000  0.4302050000000 1.0
C      1  0.5140260000000  0.5618430000000  0.4543130000000 1.0
C      1  0.5101600000000  0.5630000000000  0.5455150000000 1.0
C      1  0.5051370000000  0.4852340000000  0.5682010000000 1.0
C      1  0.4477060000000  0.5736000000000  0.4914090000000 1.0
C      1  0.4450680000000  0.5352320000000  0.5611690000000 1.0
C      1  0.4384990000000  0.4559030000000  0.5485800000000 1.0
C      1  0.4444200000000  0.4328490000000  0.4640350000000 1.0
C      1  0.4406630000000  0.5101090000000  0.4362830000000 1.0
C      1  0.4990070000000  0.5164440000000  0.5989580000000 1.0
C      1  0.4977900000000  0.4105190000000  0.5417690000000 1.0
C      1  0.5008830000000  0.4203350000000  0.4264950000000 1.0
C      1  0.4967970000000  0.5440180000000  0.4175600000000 1.0
C      1  0.4978990000000  0.5972310000000  0.5173190000000 1.0
C      1  0.5508460000000  0.4720200000000  0.4118430000000 1.0
C      1  0.5580360000000  0.5639170000000  0.4572200000000 1.0
C      1  0.5524540000000  0.5758570000000  0.5579460000000 1.0
C      1  0.5480450000000  0.4786350000000  0.5742520000000 1.0
C      1  0.5606100000000  0.4119280000000  0.4998110000000 1.0
C      1  0.4330360000000  0.4807520000000  0.5017910000000 1.0
C      1  0.4177620000000  0.4947680000000  0.4807940000000 1.0
C      1  0.4083630000000  0.5202700000000  0.4903470000000 1.0
C      1  0.4164020000000  0.5222600000000  0.5178140000000 1.0
C      1  0.4294570000000  0.4969360000000  0.5281520000000 1.0
C      1  0.4524850000000  0.4991910000000  0.5736870000000 1.0
C      1  0.4612480000000  0.4264410000000  0.5133870000000 1.0
C      1  0.4546650000000  0.4589420000000  0.4499010000000 1.0
C      1  0.4552800000000  0.5438780000000  0.4492220000000 1.0
C      1  0.4557330000000  0.5652270000000  0.5212140000000 1.0
C      1  0.4380920000000  0.4311470000000  0.4933010000000 1.0
C      1  0.4341660000000  0.4815660000000  0.4418290000000 1.0
C      1  0.4356310000000  0.5570740000000  0.4694960000000 1.0
C      1  0.4359080000000  0.5541150000000  0.5415580000000 1.0
C      1  0.4324350000000  0.4762260000000  0.5692990000000 1.0
C      1  0.4866940000000  0.4669650000000  0.4113890000000 1.0
C      1  0.4935540000000  0.5799640000000  0.4437430000000 1.0
C      1  0.4875330000000  0.5780360000000  0.5566850000000 1.0
C      1  0.4900250000000  0.4694670000000  0.5879920000000 1.0
C      1  0.4975070000000  0.3981580000000  0.4971120000000 1.0
C      1  0.5716450000000  0.4700390000000  0.4585720000000 1.0
C      1  0.5724790000000  0.5144020000000  0.4669090000000 1.0
C      1  0.5760500000000  0.5424240000000  0.5263330000000 1.0
C      1  0.5780640000000  0.5120590000000  0.5499580000000 1.0
C      1  0.5724790000000  0.4654190000000  0.5037160000000 1.0
C      1  0.4995500000000  0.4424320000000  0.4613520000000 1.0
C      1  0.4818370000000  0.5078740000000  0.4449950000000 1.0
C      1  0.4902640000000  0.5610360000000  0.4936010000000 1.0
C      1  0.4865600000000  0.5220570000000  0.5573620000000 1.0
C      1  0.4910120000000  0.4537850000000  0.5340960000000 1.0
C      1  0.5280690000000  0.5137740000000  0.5925230000000 1.0
C      1  0.5285090000000  0.4209420000000  0.5292840000000 1.0
C      1  0.5288950000000  0.4295720000000  0.4310990000000 1.0
C      1  0.5283700000000  0.5410020000000  0.4244190000000 1.0
C      1  0.5240670000000  0.5818680000000  0.5242280000000 1.0
C      1  0.5765420000000  0.4873540000000  0.4819160000000 1.0
C      1  0.4633570000000  0.4848400000000  0.4955780000000 1.0
C      1  0.4663420000000  0.5166010000000  0.4933340000000 1.0
END
