TITL C-3578206-1180-97 -9.98293945828206e-07 125000 -272.389765521888 0 0 45 (Cs) n - 1
REM
REM in /home/bkarasulu/work/CARBON/AIRSS/Generating-Clusters/EDIP-Nigel-Params/with-SteepDescent/Higher-Symm/SD-CG/HFTN-CG
REM
REM
REM
REM
REM
REM ./C.cell (12c818d87b63d06a65506943cc24bca4)
REM
REM compiler GCC version 9.2.1 20190827 (Red Hat 9.2.1-1)
REM options -cpp -mtune=generic -march=x86-64 -g -O0 -fpre-include=/usr/include/finclude/math-vector-fortran.h
REM seed -1725007678 1940011132 1557550386 -908528210 -25906317 -1945032088 -466598662 -1299518349 -553510290 432477439 -1305830048 1952863345 -2145560062 326182421 720979683 -1908404317 -1330259773 -1331058113 1496152295 741125896 -2044468061 1042073557 1703696592 -195525507 -859192360 1675861533 1079035349 1775703868 1798062358 912787700 -1646611546 -653422542 -10722128
REM
CELL 1.54180   50.00000   50.00000   50.00000   90.00000   90.00000   90.00000
LATT -1
SFAC C  
C      1  0.5491710000000  0.4674630000000  0.4803090000000 1.0
C      1  0.4885960000000  0.4743020000000  0.5431080000000 1.0
C      1  0.4642740000000  0.4666650000000  0.4640140000000 1.0
C      1  0.5490830000000  0.5293460000000  0.4802500000000 1.0
C      1  0.4886890000000  0.5225020000000  0.5431790000000 1.0
C      1  0.4641120000000  0.5299130000000  0.4642450000000 1.0
C      1  0.5359940000000  0.4739440000000  0.5061110000000 1.0
C      1  0.4929930000000  0.4741350000000  0.4596050000000 1.0
C      1  0.4597810000000  0.4675090000000  0.5398120000000 1.0
C      1  0.5358250000000  0.5230590000000  0.5060500000000 1.0
C      1  0.4928140000000  0.5224510000000  0.4596430000000 1.0
C      1  0.4598430000000  0.5291980000000  0.5400530000000 1.0
C      1  0.4537160000000  0.4617700000000  0.4888320000000 1.0
C      1  0.5377830000000  0.4501330000000  0.4619190000000 1.0
C      1  0.5049690000000  0.4518670000000  0.5367580000000 1.0
C      1  0.4537370000000  0.5349330000000  0.4891190000000 1.0
C      1  0.5376590000000  0.5463760000000  0.4615960000000 1.0
C      1  0.5049270000000  0.5449840000000  0.5366750000000 1.0
C      1  0.4493100000000  0.4634240000000  0.5148280000000 1.0
C      1  0.5232920000000  0.4511100000000  0.5174760000000 1.0
C      1  0.5110720000000  0.4523350000000  0.4632670000000 1.0
C      1  0.4492260000000  0.5330430000000  0.5150860000000 1.0
C      1  0.5229520000000  0.5459500000000  0.5171220000000 1.0
C      1  0.5109430000000  0.5442490000000  0.4630970000000 1.0
C      1  0.4445340000000  0.4791760000000  0.5610030000000 1.0
C      1  0.4941030000000  0.4827780000000  0.4303740000000 1.0
C      1  0.5586890000000  0.4831760000000  0.5239990000000 1.0
C      1  0.4448140000000  0.5174690000000  0.5613950000000 1.0
C      1  0.4937110000000  0.5137560000000  0.4304510000000 1.0
C      1  0.5584800000000  0.5141130000000  0.5241700000000 1.0
C      1  0.4481670000000  0.4791340000000  0.4438710000000 1.0
C      1  0.4914160000000  0.4827840000000  0.5722900000000 1.0
C      1  0.5752080000000  0.4794070000000  0.4784410000000 1.0
C      1  0.4478470000000  0.5174010000000  0.4442770000000 1.0
C      1  0.4917460000000  0.5140400000000  0.5723680000000 1.0
C      1  0.5752260000000  0.5175330000000  0.4786860000000 1.0
C      1  0.4640340000000  0.5131680000000  0.4202600000000 1.0
C      1  0.4645320000000  0.4826520000000  0.4198020000000 1.0
C      1  0.4627870000000  0.5139190000000  0.5843590000000 1.0
C      1  0.4623210000000  0.4834920000000  0.5839220000000 1.0
C      1  0.5844720000000  0.5140980000000  0.5063980000000 1.0
C      1  0.5844880000000  0.4837710000000  0.5059570000000 1.0
C      1  0.4960060000000  0.4984120000000  0.5264270000000 1.0
C      1  0.5008030000000  0.4983190000000  0.4762170000000 1.0
C      1  0.5158550000000  0.4984260000000  0.5031790000000 1.0
END
