TITL C-3577087-600-588 -1.082957902124e-06 125000 -1001.32486967512 0 0 159 (C1) n - 1
REM
REM in /home/bkarasulu/work/CARBON/AIRSS/Generating-Clusters/EDIP-Nigel-Params/with-SteepDescent/Higher-Symm/SD-CG/HFTN-CG
REM
REM
REM
REM
REM
REM ./C.cell (12c818d87b63d06a65506943cc24bca4)
REM
REM compiler GCC version 9.2.1 20190827 (Red Hat 9.2.1-1)
REM options -cpp -mtune=generic -march=x86-64 -g -O0 -fpre-include=/usr/include/finclude/math-vector-fortran.h
REM seed -531484645 -697657762 169166003 -996830429 -2136954326 -1212568433 -1167936464 -768018298 1037940397 1609029012 1385160058 -1719806667 287908488 -573141400 966547110 -1830067615 1057167740 767183179 1786691279 -19109376 519867289 -137652529 -1789429013 -2108402140 1879078477 -1151333150 829751338 -1848084187 -1476242942 -750786092 -2085977868 380812807 -1060673933
REM
CELL 1.54180   50.00000   50.00000   50.00000   90.00000   90.00000   90.00000
LATT -1
SFAC C  
C      1  0.5603260000000  0.5194100000000  0.4113170000000 1.0
C      1  0.5877280000000  0.4820840000000  0.5565870000000 1.0
C      1  0.4472500000000  0.5210600000000  0.5965360000000 1.0
C      1  0.4009460000000  0.4818600000000  0.4449880000000 1.0
C      1  0.5700850000000  0.4603680000000  0.5458830000000 1.0
C      1  0.4601650000000  0.5423530000000  0.5763010000000 1.0
C      1  0.4103870000000  0.4534970000000  0.4485160000000 1.0
C      1  0.5463800000000  0.5383760000000  0.4293650000000 1.0
C      1  0.5966350000000  0.4673470000000  0.4833670000000 1.0
C      1  0.5158040000000  0.5312280000000  0.5923610000000 1.0
C      1  0.4099740000000  0.4697280000000  0.5140720000000 1.0
C      1  0.4811580000000  0.5334100000000  0.4032270000000 1.0
C      1  0.3999650000000  0.4995050000000  0.4683670000000 1.0
C      1  0.5387030000000  0.4999500000000  0.4058690000000 1.0
C      1  0.6005800000000  0.4997660000000  0.5370470000000 1.0
C      1  0.4675770000000  0.5011680000000  0.6053450000000 1.0
C      1  0.5262180000000  0.4372090000000  0.5109160000000 1.0
C      1  0.4897290000000  0.5619020000000  0.5244890000000 1.0
C      1  0.4779170000000  0.4347430000000  0.4899520000000 1.0
C      1  0.5116600000000  0.5645660000000  0.4746220000000 1.0
C      1  0.5455680000000  0.4284920000000  0.5644130000000 1.0
C      1  0.4381610000000  0.5663930000000  0.5463480000000 1.0
C      1  0.4522650000000  0.4306060000000  0.4371820000000 1.0
C      1  0.5637000000000  0.5714700000000  0.4526010000000 1.0
C      1  0.4516430000000  0.4196580000000  0.5430310000000 1.0
C      1  0.4560710000000  0.5787360000000  0.4530660000000 1.0
C      1  0.5477100000000  0.4172540000000  0.4579620000000 1.0
C      1  0.5436380000000  0.5827580000000  0.5469990000000 1.0
C      1  0.4136180000000  0.5248900000000  0.5617880000000 1.0
C      1  0.4365860000000  0.4740900000000  0.4118700000000 1.0
C      1  0.5935040000000  0.5294070000000  0.4389980000000 1.0
C      1  0.5622460000000  0.4715600000000  0.5912950000000 1.0
C      1  0.5155320000000  0.4819250000000  0.4524410000000 1.0
C      1  0.5477440000000  0.5200420000000  0.5121440000000 1.0
C      1  0.4845100000000  0.4809240000000  0.5442960000000 1.0
C      1  0.4510790000000  0.5189080000000  0.4798640000000 1.0
C      1  0.5103240000000  0.4923540000000  0.5428150000000 1.0
C      1  0.4605760000000  0.5024290000000  0.5012400000000 1.0
C      1  0.4923240000000  0.4968650000000  0.4603720000000 1.0
C      1  0.5422640000000  0.5075090000000  0.4875230000000 1.0
C      1  0.5357630000000  0.5800350000000  0.4406780000000 1.0
C      1  0.5574610000000  0.4188520000000  0.5369120000000 1.0
C      1  0.4650700000000  0.5841430000000  0.5620400000000 1.0
C      1  0.4412940000000  0.4191820000000  0.4633980000000 1.0
C      1  0.5992380000000  0.4905960000000  0.5063420000000 1.0
C      1  0.4968250000000  0.5085380000000  0.6018610000000 1.0
C      1  0.3974960000000  0.4906260000000  0.4966400000000 1.0
C      1  0.5029790000000  0.5122500000000  0.3968420000000 1.0
C      1  0.5484490000000  0.5240510000000  0.5560820000000 1.0
C      1  0.4392160000000  0.4851010000000  0.5646740000000 1.0
C      1  0.4322190000000  0.5160660000000  0.4344480000000 1.0
C      1  0.5595700000000  0.4748810000000  0.4516120000000 1.0
C      1  0.4704360000000  0.5961010000000  0.4720850000000 1.0
C      1  0.5274250000000  0.4014900000000  0.4718010000000 1.0
C      1  0.5289800000000  0.5981720000000  0.5268470000000 1.0
C      1  0.4714820000000  0.4024090000000  0.5295060000000 1.0
C      1  0.5799590000000  0.4438040000000  0.4930070000000 1.0
C      1  0.5075700000000  0.5561550000000  0.5778710000000 1.0
C      1  0.4172280000000  0.4423460000000  0.5056480000000 1.0
C      1  0.4897980000000  0.5603370000000  0.4138870000000 1.0
C      1  0.5208150000000  0.5652390000000  0.4171930000000 1.0
C      1  0.5768320000000  0.4391110000000  0.5231490000000 1.0
C      1  0.4793260000000  0.5653470000000  0.5809990000000 1.0
C      1  0.4179510000000  0.4353460000000  0.4748870000000 1.0
C      1  0.4489850000000  0.4603230000000  0.5787710000000 1.0
C      1  0.4180070000000  0.5408650000000  0.4472470000000 1.0
C      1  0.5530420000000  0.4559740000000  0.4287950000000 1.0
C      1  0.5722400000000  0.5424930000000  0.5519120000000 1.0
C      1  0.5406750000000  0.4977840000000  0.4444700000000 1.0
C      1  0.5529170000000  0.4995800000000  0.5356500000000 1.0
C      1  0.4636550000000  0.5002810000000  0.5513780000000 1.0
C      1  0.4434180000000  0.4984590000000  0.4586000000000 1.0
C      1  0.5098980000000  0.4624060000000  0.4039850000000 1.0
C      1  0.5985650000000  0.5396120000000  0.5093200000000 1.0
C      1  0.4929250000000  0.4602170000000  0.6004000000000 1.0
C      1  0.3996240000000  0.5391100000000  0.4932700000000 1.0
C      1  0.5607800000000  0.5553290000000  0.4780240000000 1.0
C      1  0.5205530000000  0.4450890000000  0.5601090000000 1.0
C      1  0.4413320000000  0.5528440000000  0.5197770000000 1.0
C      1  0.4779690000000  0.4461610000000  0.4400590000000 1.0
C      1  0.4326740000000  0.5609960000000  0.4653340000000 1.0
C      1  0.5328570000000  0.4376020000000  0.4407150000000 1.0
C      1  0.5606290000000  0.5621250000000  0.5323900000000 1.0
C      1  0.4664500000000  0.4397390000000  0.5635630000000 1.0
C      1  0.5158350000000  0.5286360000000  0.4294120000000 1.0
C      1  0.5679920000000  0.4809320000000  0.5136140000000 1.0
C      1  0.4809750000000  0.5199380000000  0.5678410000000 1.0
C      1  0.4311710000000  0.4718460000000  0.4758440000000 1.0
C      1  0.4535240000000  0.3954450000000  0.4775550000000 1.0
C      1  0.5218300000000  0.6044130000000  0.4525850000000 1.0
C      1  0.5452450000000  0.3950080000000  0.5219100000000 1.0
C      1  0.4804710000000  0.6046590000000  0.5466980000000 1.0
C      1  0.5874460000000  0.5134800000000  0.4164130000000 1.0
C      1  0.5849540000000  0.4871710000000  0.5842340000000 1.0
C      1  0.4258280000000  0.5064040000000  0.5820950000000 1.0
C      1  0.4155860000000  0.4938900000000  0.4222140000000 1.0
C      1  0.5271560000000  0.5737580000000  0.5680530000000 1.0
C      1  0.4312140000000  0.4277730000000  0.5252900000000 1.0
C      1  0.4703530000000  0.5732900000000  0.4294610000000 1.0
C      1  0.5691200000000  0.4257880000000  0.4742810000000 1.0
C      1  0.4511890000000  0.4747640000000  0.4992920000000 1.0
C      1  0.4970960000000  0.5243910000000  0.4519600000000 1.0
C      1  0.5492470000000  0.4787110000000  0.4889290000000 1.0
C      1  0.5098280000000  0.5215910000000  0.5505060000000 1.0
C      1  0.4686260000000  0.4834500000000  0.4466770000000 1.0
C      1  0.5574770000000  0.5237000000000  0.4680820000000 1.0
C      1  0.5307420000000  0.4754650000000  0.5562620000000 1.0
C      1  0.4503920000000  0.5158610000000  0.5274160000000 1.0
C      1  0.5071640000000  0.4357920000000  0.5348850000000 1.0
C      1  0.4657330000000  0.5632330000000  0.5065570000000 1.0
C      1  0.4925810000000  0.4353970000000  0.4646260000000 1.0
C      1  0.5356780000000  0.5651290000000  0.4917830000000 1.0
C      1  0.4755950000000  0.4581640000000  0.5062820000000 1.0
C      1  0.4948490000000  0.5412200000000  0.4756000000000 1.0
C      1  0.5244350000000  0.4606460000000  0.4927050000000 1.0
C      1  0.5079590000000  0.5389630000000  0.5243360000000 1.0
C      1  0.5963920000000  0.5296550000000  0.5377980000000 1.0
C      1  0.4649390000000  0.4710480000000  0.6016620000000 1.0
C      1  0.3975980000000  0.5287230000000  0.4651990000000 1.0
C      1  0.5390960000000  0.4699720000000  0.4057490000000 1.0
C      1  0.5644010000000  0.4443100000000  0.5803180000000 1.0
C      1  0.4243710000000  0.5513280000000  0.5660420000000 1.0
C      1  0.4305250000000  0.4483780000000  0.4268740000000 1.0
C      1  0.5806420000000  0.5555780000000  0.4351660000000 1.0
C      1  0.4656970000000  0.5464940000000  0.4799870000000 1.0
C      1  0.5177010000000  0.4537700000000  0.4636900000000 1.0
C      1  0.5367740000000  0.5474840000000  0.5173860000000 1.0
C      1  0.4802450000000  0.4527570000000  0.5360920000000 1.0
C      1  0.3993560000000  0.5156810000000  0.5118500000000 1.0
C      1  0.4907760000000  0.4854110000000  0.4010040000000 1.0
C      1  0.6007350000000  0.5165040000000  0.4907850000000 1.0
C      1  0.5120730000000  0.4828800000000  0.6016950000000 1.0
C      1  0.5322750000000  0.6138490000000  0.4791560000000 1.0
C      1  0.5186620000000  0.3862390000000  0.5319660000000 1.0
C      1  0.4695290000000  0.6127060000000  0.5196640000000 1.0
C      1  0.4801140000000  0.3864410000000  0.4670720000000 1.0
C      1  0.5398750000000  0.5163950000000  0.5829910000000 1.0
C      1  0.4184080000000  0.4813290000000  0.5404220000000 1.0
C      1  0.4577910000000  0.5188720000000  0.4154240000000 1.0
C      1  0.5872290000000  0.4829960000000  0.4590280000000 1.0
C      1  0.4608750000000  0.5926180000000  0.4998590000000 1.0
C      1  0.5006420000000  0.4060930000000  0.4595770000000 1.0
C      1  0.5401390000000  0.5942650000000  0.4995800000000 1.0
C      1  0.4990980000000  0.4065530000000  0.5395660000000 1.0
C      1  0.4644600000000  0.4887390000000  0.4165430000000 1.0
C      1  0.5863290000000  0.5135510000000  0.4642790000000 1.0
C      1  0.5364900000000  0.4860900000000  0.5843030000000 1.0
C      1  0.4191620000000  0.5116720000000  0.5345470000000 1.0
C      1  0.4959740000000  0.4402470000000  0.5790060000000 1.0
C      1  0.4215990000000  0.5585980000000  0.4959230000000 1.0
C      1  0.5027830000000  0.4402200000000  0.4215610000000 1.0
C      1  0.5794030000000  0.5610140000000  0.5031520000000 1.0
C      1  0.5257050000000  0.4087880000000  0.5017010000000 1.0
C      1  0.4992660000000  0.5899200000000  0.5267530000000 1.0
C      1  0.4741080000000  0.4069950000000  0.4988620000000 1.0
C      1  0.5012770000000  0.5920970000000  0.4731700000000 1.0
C      1  0.5029100000000  0.5242840000000  0.4985450000000 1.0
C      1  0.5007160000000  0.4750160000000  0.5033940000000 1.0
C      1  0.4899640000000  0.4990710000000  0.4918550000000 1.0
END
