TITL C-3578195-8548-749 -2.06564583615792e-06 125000 -463.917201897056 0 0 77 (C1) n - 1
REM
REM in /home/bkarasulu/work/CARBON/AIRSS/Generating-Clusters/EDIP-Nigel-Params/with-SteepDescent/Higher-Symm/SD-CG/HFTN-CG
REM
REM
REM
REM
REM
REM ./C.cell (12c818d87b63d06a65506943cc24bca4)
REM
REM compiler GCC version 9.2.1 20190827 (Red Hat 9.2.1-1)
REM options -cpp -mtune=generic -march=x86-64 -g -O0 -fpre-include=/usr/include/finclude/math-vector-fortran.h
REM seed -1449587495 -589112466 1251737300 -841477463 1549708697 1603558653 1598925763 289484292 960290584 518998870 -2041571678 64854008 587304498 381897378 -51466839 -1745891692 1697986419 841078329 -59859803 1920227824 -26467868 -839623875 1474940237 -313303173 -1196438669 891250022 -273914741 -708733559 36197326 -1769366551 -66416423 -1878058648 -2104885492
REM
CELL 1.54180   50.00000   50.00000   50.00000   90.00000   90.00000   90.00000
LATT -1
SFAC C  
C      1  0.5035780000000  0.4490710000000  0.4379060000000 1.0
C      1  0.4758510000000  0.4580660000000  0.4415270000000 1.0
C      1  0.4539480000000  0.4781220000000  0.4438800000000 1.0
C      1  0.4566500000000  0.5050690000000  0.4342270000000 1.0
C      1  0.4575090000000  0.5334950000000  0.4354930000000 1.0
C      1  0.4837960000000  0.5466430000000  0.4416490000000 1.0
C      1  0.5051540000000  0.5268270000000  0.4512180000000 1.0
C      1  0.5336770000000  0.5353010000000  0.4468180000000 1.0
C      1  0.5498130000000  0.5112790000000  0.4451320000000 1.0
C      1  0.5370400000000  0.4867110000000  0.4388880000000 1.0
C      1  0.5297120000000  0.4600190000000  0.4466300000000 1.0
C      1  0.4833110000000  0.4107610000000  0.5066580000000 1.0
C      1  0.4417380000000  0.4321760000000  0.5101030000000 1.0
C      1  0.4216520000000  0.4745130000000  0.5160210000000 1.0
C      1  0.4188180000000  0.5267060000000  0.5165280000000 1.0
C      1  0.4462610000000  0.5694540000000  0.5082060000000 1.0
C      1  0.4914550000000  0.5834640000000  0.5132710000000 1.0
C      1  0.5393370000000  0.5742450000000  0.5133010000000 1.0
C      1  0.5780900000000  0.5471910000000  0.5104820000000 1.0
C      1  0.5881880000000  0.5003920000000  0.5142190000000 1.0
C      1  0.5669620000000  0.4553090000000  0.5177090000000 1.0
C      1  0.5305500000000  0.4197380000000  0.5127420000000 1.0
C      1  0.5519750000000  0.5325740000000  0.5345600000000 1.0
C      1  0.5585810000000  0.5049370000000  0.5204560000000 1.0
C      1  0.5475360000000  0.4769210000000  0.5288690000000 1.0
C      1  0.5184450000000  0.4441320000000  0.5244970000000 1.0
C      1  0.4895960000000  0.4375600000000  0.5335460000000 1.0
C      1  0.4648530000000  0.4515180000000  0.5178250000000 1.0
C      1  0.4494730000000  0.4762310000000  0.5269190000000 1.0
C      1  0.4477250000000  0.5248260000000  0.5279230000000 1.0
C      1  0.4607060000000  0.5513170000000  0.5262100000000 1.0
C      1  0.4910230000000  0.5559600000000  0.5297120000000 1.0
C      1  0.5279970000000  0.5471080000000  0.5200620000000 1.0
C      1  0.4380190000000  0.5445970000000  0.4673940000000 1.0
C      1  0.4873970000000  0.5646180000000  0.4686940000000 1.0
C      1  0.5159790000000  0.5749130000000  0.4721270000000 1.0
C      1  0.5381550000000  0.5540690000000  0.4723040000000 1.0
C      1  0.5721270000000  0.5196640000000  0.4751870000000 1.0
C      1  0.5682610000000  0.4722610000000  0.4751630000000 1.0
C      1  0.5488900000000  0.4474610000000  0.4715080000000 1.0
C      1  0.5092270000000  0.4291490000000  0.4707750000000 1.0
C      1  0.4611330000000  0.4378060000000  0.4707700000000 1.0
C      1  0.4356330000000  0.4732730000000  0.4691160000000 1.0
C      1  0.4239760000000  0.4995210000000  0.4791900000000 1.0
C      1  0.4229920000000  0.4512460000000  0.4975910000000 1.0
C      1  0.4083050000000  0.4999390000000  0.5045400000000 1.0
C      1  0.4254190000000  0.5517700000000  0.4939750000000 1.0
C      1  0.4682480000000  0.5836250000000  0.4941280000000 1.0
C      1  0.5173970000000  0.5880510000000  0.4988620000000 1.0
C      1  0.5615440000000  0.5657730000000  0.4951510000000 1.0
C      1  0.5912080000000  0.5249800000000  0.4966570000000 1.0
C      1  0.5852990000000  0.4723000000000  0.5004940000000 1.0
C      1  0.5540470000000  0.4337720000000  0.4998130000000 1.0
C      1  0.5093260000000  0.4099190000000  0.4930740000000 1.0
C      1  0.4585230000000  0.4160060000000  0.4915070000000 1.0
C      1  0.5027430000000  0.4557160000000  0.4814710000000 1.0
C      1  0.4745540000000  0.4576510000000  0.4891510000000 1.0
C      1  0.4692740000000  0.4851360000000  0.4845680000000 1.0
C      1  0.4506050000000  0.5055990000000  0.4940970000000 1.0
C      1  0.4595010000000  0.5279670000000  0.4786470000000 1.0
C      1  0.4825100000000  0.5421790000000  0.4887500000000 1.0
C      1  0.5036310000000  0.5239060000000  0.4816740000000 1.0
C      1  0.5286900000000  0.5334280000000  0.4927110000000 1.0
C      1  0.5489950000000  0.5114790000000  0.4924640000000 1.0
C      1  0.5399680000000  0.4864070000000  0.4804420000000 1.0
C      1  0.5232360000000  0.4654720000000  0.5004870000000 1.0
C      1  0.4947200000000  0.5470820000000  0.5587460000000 1.0
C      1  0.5204260000000  0.5425260000000  0.5678080000000 1.0
C      1  0.5431380000000  0.5277410000000  0.5624790000000 1.0
C      1  0.5425480000000  0.5010200000000  0.5694600000000 1.0
C      1  0.5405080000000  0.4761210000000  0.5577150000000 1.0
C      1  0.5195020000000  0.4595740000000  0.5654730000000 1.0
C      1  0.4933290000000  0.4512960000000  0.5603990000000 1.0
C      1  0.4743850000000  0.4702700000000  0.5669990000000 1.0
C      1  0.4550240000000  0.4850310000000  0.5537530000000 1.0
C      1  0.4549010000000  0.5138700000000  0.5546210000000 1.0
C      1  0.4757080000000  0.5281830000000  0.5668790000000 1.0
END
