TITL C-3578201-9217-246 -1.18370243718802e-06 125000 -464.555946546899 0 0 75 (C1) n - 1
REM
REM in /home/bkarasulu/work/CARBON/AIRSS/Generating-Clusters/EDIP-Nigel-Params/with-SteepDescent/Higher-Symm/SD-CG/HFTN-CG
REM
REM
REM
REM
REM
REM ./C.cell (12c818d87b63d06a65506943cc24bca4)
REM
REM compiler GCC version 9.2.1 20190827 (Red Hat 9.2.1-1)
REM options -cpp -mtune=generic -march=x86-64 -g -O0 -fpre-include=/usr/include/finclude/math-vector-fortran.h
REM seed -41685516 -718572198 -2032184553 364582463 -1278428903 846162643 2008269785 -1623492565 2062634935 1257807826 -1315146964 -1593200469 -480826685 -86582107 -495905002 717705439 370668899 -323525196 -183094866 -194229104 -1111001832 492788718 -1800964726 129880970 194755512 1349935008 1492618935 1775052611 -1478489896 1067021297 438856885 -1288853313 -303116589
REM
CELL 1.54180   50.00000   50.00000   50.00000   90.00000   90.00000   90.00000
LATT -1
SFAC C  
C      1  0.5787260000000  0.5099320000000  0.4851970000000 1.0
C      1  0.4462470000000  0.5067770000000  0.4330120000000 1.0
C      1  0.4743570000000  0.5108760000000  0.5779470000000 1.0
C      1  0.4248440000000  0.5099650000000  0.4868650000000 1.0
C      1  0.5505010000000  0.5033010000000  0.4376910000000 1.0
C      1  0.5290760000000  0.5042670000000  0.5752730000000 1.0
C      1  0.5246790000000  0.5069740000000  0.4992550000000 1.0
C      1  0.4863500000000  0.5032860000000  0.4768100000000 1.0
C      1  0.4866410000000  0.5039350000000  0.5261110000000 1.0
C      1  0.4737400000000  0.4969640000000  0.5012880000000 1.0
C      1  0.5124980000000  0.5166180000000  0.4739220000000 1.0
C      1  0.5139640000000  0.5173390000000  0.5249960000000 1.0
C      1  0.4696200000000  0.5586800000000  0.5009190000000 1.0
C      1  0.5130260000000  0.5491910000000  0.5241990000000 1.0
C      1  0.5115110000000  0.5482110000000  0.4749730000000 1.0
C      1  0.5262650000000  0.5580200000000  0.4991660000000 1.0
C      1  0.4851130000000  0.5598380000000  0.5251300000000 1.0
C      1  0.4831600000000  0.5569140000000  0.4753720000000 1.0
C      1  0.5176130000000  0.4500250000000  0.4765930000000 1.0
C      1  0.4678170000000  0.4486850000000  0.4929800000000 1.0
C      1  0.5120420000000  0.4507970000000  0.5288530000000 1.0
C      1  0.4877670000000  0.4535040000000  0.4680420000000 1.0
C      1  0.5304640000000  0.4553660000000  0.5042580000000 1.0
C      1  0.4825330000000  0.4558370000000  0.5281190000000 1.0
C      1  0.4393650000000  0.4590520000000  0.5469570000000 1.0
C      1  0.5719360000000  0.4657290000000  0.5347020000000 1.0
C      1  0.4962610000000  0.4639130000000  0.4178700000000 1.0
C      1  0.5537250000000  0.4520240000000  0.5551810000000 1.0
C      1  0.4316600000000  0.4595970000000  0.5181260000000 1.0
C      1  0.5224750000000  0.4511690000000  0.4266380000000 1.0
C      1  0.4701290000000  0.5591130000000  0.5487590000000 1.0
C      1  0.5540740000000  0.5555080000000  0.5018280000000 1.0
C      1  0.4715330000000  0.5531840000000  0.4501200000000 1.0
C      1  0.5295440000000  0.5584990000000  0.5465530000000 1.0
C      1  0.4418140000000  0.5599410000000  0.5046810000000 1.0
C      1  0.5233320000000  0.5576640000000  0.4498970000000 1.0
C      1  0.5302820000000  0.4620030000000  0.4528770000000 1.0
C      1  0.4515060000000  0.4748460000000  0.4987340000000 1.0
C      1  0.5262940000000  0.4621590000000  0.5518540000000 1.0
C      1  0.4800370000000  0.4825350000000  0.4574440000000 1.0
C      1  0.5430650000000  0.4843370000000  0.5026150000000 1.0
C      1  0.4754110000000  0.4820290000000  0.5428200000000 1.0
C      1  0.5573290000000  0.4295980000000  0.5367110000000 1.0
C      1  0.5055940000000  0.4278840000000  0.4302450000000 1.0
C      1  0.4486900000000  0.4327360000000  0.5134330000000 1.0
C      1  0.4615890000000  0.4375460000000  0.5414660000000 1.0
C      1  0.4827950000000  0.4379860000000  0.4431660000000 1.0
C      1  0.5556070000000  0.4403820000000  0.5106030000000 1.0
C      1  0.4290400000000  0.5137420000000  0.5166820000000 1.0
C      1  0.5380130000000  0.5113700000000  0.5462450000000 1.0
C      1  0.5203790000000  0.5104030000000  0.4424240000000 1.0
C      1  0.5776790000000  0.5144070000000  0.5147200000000 1.0
C      1  0.4494120000000  0.5165080000000  0.5622520000000 1.0
C      1  0.4738580000000  0.5122740000000  0.4217380000000 1.0
C      1  0.4321940000000  0.5418120000000  0.5245030000000 1.0
C      1  0.5501340000000  0.5389310000000  0.5466260000000 1.0
C      1  0.5140190000000  0.5379640000000  0.4317520000000 1.0
C      1  0.5676350000000  0.5414670000000  0.5226290000000 1.0
C      1  0.4465420000000  0.5435810000000  0.5505390000000 1.0
C      1  0.4843290000000  0.5396150000000  0.4283810000000 1.0
C      1  0.5143450000000  0.4789880000000  0.5732520000000 1.0
C      1  0.5539660000000  0.4790850000000  0.4537830000000 1.0
C      1  0.4343430000000  0.4842290000000  0.4764360000000 1.0
C      1  0.4851000000000  0.4846740000000  0.5704850000000 1.0
C      1  0.4503530000000  0.4838900000000  0.4512720000000 1.0
C      1  0.5631850000000  0.4857960000000  0.4808840000000 1.0
C      1  0.4168400000000  0.5287450000000  0.4674880000000 1.0
C      1  0.5149510000000  0.5228710000000  0.5909000000000 1.0
C      1  0.5712850000000  0.5214770000000  0.4430790000000 1.0
C      1  0.5893100000000  0.5244520000000  0.4632910000000 1.0
C      1  0.4886150000000  0.5267470000000  0.5964860000000 1.0
C      1  0.4288630000000  0.5266530000000  0.4432500000000 1.0
C      1  0.5590390000000  0.4930210000000  0.5274450000000 1.0
C      1  0.4943860000000  0.4914390000000  0.4321800000000 1.0
C      1  0.4395820000000  0.4963470000000  0.5410290000000 1.0
END
