TITL C-3577081-279-205 5.22548633501397e-06 125000 -668.774118706917 0 0 109 (C1) n - 1
REM
REM in /home/bkarasulu/work/CARBON/AIRSS/Generating-Clusters/EDIP-Nigel-Params/with-SteepDescent/Higher-Symm/SD-CG/HFTN-CG
REM
REM
REM
REM
REM
REM ./C.cell (12c818d87b63d06a65506943cc24bca4)
REM
REM compiler GCC version 9.2.1 20190827 (Red Hat 9.2.1-1)
REM options -cpp -mtune=generic -march=x86-64 -g -O0 -fpre-include=/usr/include/finclude/math-vector-fortran.h
REM seed -1315365831 -1768473436 1109374814 401956351 1417677649 -855476836 187975294 1739116911 -372870275 -1159678601 -1546623708 -204674204 -230304763 1983610048 1129602821 -650706504 1938798578 1580503463 -570602950 455618143 36217602 -1228030309 1744684396 -1324868302 -981949796 -48227881 188882230 -1042783817 1913757724 1080023898 1904914254 -312894804 464663047
REM
CELL 1.54180   50.00000   50.00000   50.00000   90.00000   90.00000   90.00000
LATT -1
SFAC C  
C      1  0.4270410000000  0.4856530000000  0.4480570000000 1.0
C      1  0.4255470000000  0.4484410000000  0.4974690000000 1.0
C      1  0.4296920000000  0.4829410000000  0.5443240000000 1.0
C      1  0.4255430000000  0.5367150000000  0.5294690000000 1.0
C      1  0.4245730000000  0.5436490000000  0.4686810000000 1.0
C      1  0.5749870000000  0.4862790000000  0.4502910000000 1.0
C      1  0.5757730000000  0.4489780000000  0.4986250000000 1.0
C      1  0.5741010000000  0.4854260000000  0.5459000000000 1.0
C      1  0.5774400000000  0.5390470000000  0.5312520000000 1.0
C      1  0.5794240000000  0.5428280000000  0.4707810000000 1.0
C      1  0.4833150000000  0.4839550000000  0.4062710000000 1.0
C      1  0.4860480000000  0.3917660000000  0.4953020000000 1.0
C      1  0.4891750000000  0.4575100000000  0.5860660000000 1.0
C      1  0.4884960000000  0.5818550000000  0.5620640000000 1.0
C      1  0.4877170000000  0.5833380000000  0.4551920000000 1.0
C      1  0.5123570000000  0.4839840000000  0.4042820000000 1.0
C      1  0.5152460000000  0.3956350000000  0.4941150000000 1.0
C      1  0.5186030000000  0.4593770000000  0.5860280000000 1.0
C      1  0.5177440000000  0.5839870000000  0.5611730000000 1.0
C      1  0.5172810000000  0.5832660000000  0.4553860000000 1.0
C      1  0.4630320000000  0.5525640000000  0.5602870000000 1.0
C      1  0.4706420000000  0.5594040000000  0.4748240000000 1.0
C      1  0.4691990000000  0.4973340000000  0.4316570000000 1.0
C      1  0.4655030000000  0.4191660000000  0.4846220000000 1.0
C      1  0.4694690000000  0.4623340000000  0.5549820000000 1.0
C      1  0.5369100000000  0.5564630000000  0.5605540000000 1.0
C      1  0.5332930000000  0.5600080000000  0.4748610000000 1.0
C      1  0.5336290000000  0.4975970000000  0.4324080000000 1.0
C      1  0.5390490000000  0.4206580000000  0.4770080000000 1.0
C      1  0.5328790000000  0.4650750000000  0.5577780000000 1.0
C      1  0.4848600000000  0.5166050000000  0.4512410000000 1.0
C      1  0.4881490000000  0.4331160000000  0.4722710000000 1.0
C      1  0.4863800000000  0.4611560000000  0.5309380000000 1.0
C      1  0.4855260000000  0.5328280000000  0.5638440000000 1.0
C      1  0.4873530000000  0.5427900000000  0.4929020000000 1.0
C      1  0.5201270000000  0.5162810000000  0.4526880000000 1.0
C      1  0.5164860000000  0.4378860000000  0.4816880000000 1.0
C      1  0.5147270000000  0.4664720000000  0.5341780000000 1.0
C      1  0.5164650000000  0.5347780000000  0.5635240000000 1.0
C      1  0.5162580000000  0.5439720000000  0.4932990000000 1.0
C      1  0.4795890000000  0.4849920000000  0.5914700000000 1.0
C      1  0.4793450000000  0.5849650000000  0.5347160000000 1.0
C      1  0.4801570000000  0.5658380000000  0.4316640000000 1.0
C      1  0.4773190000000  0.4560090000000  0.4170230000000 1.0
C      1  0.4785050000000  0.4008150000000  0.5227820000000 1.0
C      1  0.5237950000000  0.4884740000000  0.5944160000000 1.0
C      1  0.5234690000000  0.5877250000000  0.5318150000000 1.0
C      1  0.5244930000000  0.5655930000000  0.4314500000000 1.0
C      1  0.5213780000000  0.4583230000000  0.4156770000000 1.0
C      1  0.5228550000000  0.4048200000000  0.5205330000000 1.0
C      1  0.4720490000000  0.5050030000000  0.4755360000000 1.0
C      1  0.4819470000000  0.4625080000000  0.4709820000000 1.0
C      1  0.4724620000000  0.4735620000000  0.5075730000000 1.0
C      1  0.4862930000000  0.5147660000000  0.5382540000000 1.0
C      1  0.4724360000000  0.5334360000000  0.5168750000000 1.0
C      1  0.5338650000000  0.5063380000000  0.4779270000000 1.0
C      1  0.5164550000000  0.4667620000000  0.4707900000000 1.0
C      1  0.5312960000000  0.4679020000000  0.5102090000000 1.0
C      1  0.5173340000000  0.5154490000000  0.5383150000000 1.0
C      1  0.5312390000000  0.5335800000000  0.5165040000000 1.0
C      1  0.5627350000000  0.5635140000000  0.4859850000000 1.0
C      1  0.5632510000000  0.5066750000000  0.4327460000000 1.0
C      1  0.5633550000000  0.4374260000000  0.4728150000000 1.0
C      1  0.5622890000000  0.4581330000000  0.5497170000000 1.0
C      1  0.5660880000000  0.5348390000000  0.5580230000000 1.0
C      1  0.4411640000000  0.5628890000000  0.4852830000000 1.0
C      1  0.4399610000000  0.5068650000000  0.4311580000000 1.0
C      1  0.4385050000000  0.4376240000000  0.4731500000000 1.0
C      1  0.4405050000000  0.4553210000000  0.5476880000000 1.0
C      1  0.4365970000000  0.5328320000000  0.5571040000000 1.0
C      1  0.5624050000000  0.5210010000000  0.5122620000000 1.0
C      1  0.5844480000000  0.5217660000000  0.4909130000000 1.0
C      1  0.5561490000000  0.4851360000000  0.4749880000000 1.0
C      1  0.5750710000000  0.4788200000000  0.4969580000000 1.0
C      1  0.5604140000000  0.4909670000000  0.5200300000000 1.0
C      1  0.4433190000000  0.5196260000000  0.5114720000000 1.0
C      1  0.4208020000000  0.5214510000000  0.4884530000000 1.0
C      1  0.4425030000000  0.4930700000000  0.4731820000000 1.0
C      1  0.4258890000000  0.4783670000000  0.4971600000000 1.0
C      1  0.4440620000000  0.4886440000000  0.5183460000000 1.0
C      1  0.4392180000000  0.4377370000000  0.5225200000000 1.0
C      1  0.4400110000000  0.5027980000000  0.5641540000000 1.0
C      1  0.4360620000000  0.5633020000000  0.5164120000000 1.0
C      1  0.4398880000000  0.5358970000000  0.4430870000000 1.0
C      1  0.4389050000000  0.4569100000000  0.4483240000000 1.0
C      1  0.5626720000000  0.4401870000000  0.5247560000000 1.0
C      1  0.5636940000000  0.5055210000000  0.5656600000000 1.0
C      1  0.5668830000000  0.5649280000000  0.5173470000000 1.0
C      1  0.5644610000000  0.5354440000000  0.4441560000000 1.0
C      1  0.5613130000000  0.4574890000000  0.4475640000000 1.0
C      1  0.4670130000000  0.4666150000000  0.4439870000000 1.0
C      1  0.4651210000000  0.4258340000000  0.5145140000000 1.0
C      1  0.4684210000000  0.4924620000000  0.5641730000000 1.0
C      1  0.4634290000000  0.5601160000000  0.5302200000000 1.0
C      1  0.4688740000000  0.5434610000000  0.4483350000000 1.0
C      1  0.5322350000000  0.4672250000000  0.4421550000000 1.0
C      1  0.5361170000000  0.4304200000000  0.5201760000000 1.0
C      1  0.5352550000000  0.4953910000000  0.5662770000000 1.0
C      1  0.5389310000000  0.5613300000000  0.5291060000000 1.0
C      1  0.5355710000000  0.5432290000000  0.4487620000000 1.0
C      1  0.4999310000000  0.5919810000000  0.5171470000000 1.0
C      1  0.5022130000000  0.5600470000000  0.4155630000000 1.0
C      1  0.5016300000000  0.4020310000000  0.5388890000000 1.0
C      1  0.4999430000000  0.5007760000000  0.6027020000000 1.0
C      1  0.5003040000000  0.4399270000000  0.4166060000000 1.0
C      1  0.5974340000000  0.4960680000000  0.4874450000000 1.0
C      1  0.4029460000000  0.4970870000000  0.4921070000000 1.0
C      1  0.5180410000000  0.4946410000000  0.4996410000000 1.0
C      1  0.4880870000000  0.4963060000000  0.4980650000000 1.0
END
