TITL C-3578207-9274-601 -1.51405430492688e-06 125000 -938.504644843744 0 0 151 (C1) n - 1
REM
REM in /home/bkarasulu/work/CARBON/AIRSS/Generating-Clusters/EDIP-Nigel-Params/with-SteepDescent/Higher-Symm/SD-CG/HFTN-CG
REM
REM
REM
REM
REM
REM ./C.cell (12c818d87b63d06a65506943cc24bca4)
REM
REM compiler GCC version 9.2.1 20190827 (Red Hat 9.2.1-1)
REM options -cpp -mtune=generic -march=x86-64 -g -O0 -fpre-include=/usr/include/finclude/math-vector-fortran.h
REM seed -38614915 1660650037 -1561575801 1248005938 2051121588 -1227368043 1189417148 1006509453 -1339845312 -1758109618 435819615 -362244758 -1480062583 -124499163 -1390684668 -1590786812 324757636 227563827 1248080935 -248868299 592203640 -1094065815 -1472031616 1465475604 -437868806 1156421042 -2001766286 1154631633 -2094817594 -103254274 1827718738 426259703 3461619
REM
CELL 1.54180   50.00000   50.00000   50.00000   90.00000   90.00000   90.00000
LATT -1
SFAC C  
C      1  0.4562170000000  0.6160130000000  0.5140610000000 1.0
C      1  0.4591100000000  0.3791360000000  0.4867460000000 1.0
C      1  0.4559080000000  0.6159330000000  0.4867740000000 1.0
C      1  0.4591640000000  0.3789980000000  0.5140660000000 1.0
C      1  0.4865890000000  0.5169410000000  0.5148100000000 1.0
C      1  0.4900240000000  0.4808910000000  0.4862470000000 1.0
C      1  0.4866640000000  0.5196410000000  0.4846680000000 1.0
C      1  0.4897550000000  0.4867490000000  0.5139260000000 1.0
C      1  0.4051870000000  0.4873300000000  0.5213890000000 1.0
C      1  0.4129790000000  0.5118080000000  0.4646100000000 1.0
C      1  0.4046730000000  0.4859870000000  0.4721120000000 1.0
C      1  0.4147440000000  0.5106240000000  0.5319500000000 1.0
C      1  0.4498790000000  0.5309040000000  0.3988640000000 1.0
C      1  0.4498580000000  0.4712440000000  0.5977440000000 1.0
C      1  0.4502790000000  0.5308880000000  0.6017120000000 1.0
C      1  0.4496500000000  0.4713970000000  0.4029210000000 1.0
C      1  0.4967030000000  0.4695600000000  0.4050890000000 1.0
C      1  0.4974970000000  0.5306640000000  0.5972200000000 1.0
C      1  0.4967960000000  0.4694870000000  0.5951090000000 1.0
C      1  0.4971980000000  0.5308950000000  0.4028090000000 1.0
C      1  0.5258240000000  0.4854780000000  0.5981780000000 1.0
C      1  0.5259350000000  0.5152650000000  0.4010260000000 1.0
C      1  0.5256410000000  0.4854550000000  0.4018620000000 1.0
C      1  0.5261540000000  0.5152690000000  0.5987820000000 1.0
C      1  0.6096810000000  0.5130430000000  0.4750560000000 1.0
C      1  0.6101200000000  0.4860040000000  0.5249700000000 1.0
C      1  0.6095780000000  0.5129410000000  0.5248170000000 1.0
C      1  0.6102050000000  0.4860960000000  0.4748990000000 1.0
C      1  0.5142860000000  0.4853320000000  0.5536750000000 1.0
C      1  0.5146130000000  0.5161580000000  0.4454510000000 1.0
C      1  0.5145240000000  0.4852400000000  0.4465440000000 1.0
C      1  0.5143790000000  0.5162440000000  0.5543580000000 1.0
C      1  0.4966740000000  0.4082270000000  0.4852960000000 1.0
C      1  0.4961360000000  0.5903020000000  0.5152410000000 1.0
C      1  0.4965830000000  0.4082480000000  0.5153290000000 1.0
C      1  0.4958160000000  0.5902750000000  0.4849930000000 1.0
C      1  0.4892560000000  0.4414720000000  0.4501970000000 1.0
C      1  0.4918790000000  0.5588770000000  0.5525070000000 1.0
C      1  0.4890160000000  0.4412120000000  0.5504500000000 1.0
C      1  0.4909430000000  0.5589560000000  0.4479450000000 1.0
C      1  0.4645130000000  0.5568890000000  0.5391410000000 1.0
C      1  0.4608940000000  0.4428260000000  0.4641890000000 1.0
C      1  0.4632460000000  0.5568240000000  0.4616270000000 1.0
C      1  0.4603650000000  0.4416020000000  0.5370710000000 1.0
C      1  0.5839560000000  0.4245500000000  0.4814670000000 1.0
C      1  0.5856180000000  0.5748250000000  0.5184550000000 1.0
C      1  0.5838140000000  0.4245330000000  0.5189510000000 1.0
C      1  0.5854810000000  0.5749190000000  0.4810550000000 1.0
C      1  0.4736450000000  0.3971340000000  0.5303200000000 1.0
C      1  0.4718020000000  0.5994910000000  0.4701150000000 1.0
C      1  0.4736040000000  0.3972660000000  0.4704940000000 1.0
C      1  0.4724540000000  0.5996520000000  0.5304830000000 1.0
C      1  0.4638090000000  0.5147090000000  0.4418280000000 1.0
C      1  0.4618790000000  0.4836460000000  0.5573890000000 1.0
C      1  0.4631950000000  0.5147260000000  0.5584900000000 1.0
C      1  0.4625030000000  0.4839650000000  0.4429780000000 1.0
C      1  0.5818840000000  0.4408180000000  0.4576940000000 1.0
C      1  0.5833840000000  0.5586320000000  0.5422470000000 1.0
C      1  0.5816210000000  0.4410980000000  0.5424770000000 1.0
C      1  0.5830160000000  0.5585790000000  0.4574050000000 1.0
C      1  0.4326160000000  0.4887730000000  0.4184320000000 1.0
C      1  0.4395230000000  0.5170420000000  0.5774650000000 1.0
C      1  0.4325750000000  0.4886350000000  0.5825190000000 1.0
C      1  0.4396950000000  0.5171690000000  0.4234210000000 1.0
C      1  0.5417550000000  0.4479500000000  0.4254710000000 1.0
C      1  0.5429920000000  0.5528920000000  0.5747630000000 1.0
C      1  0.5414080000000  0.4478700000000  0.5746730000000 1.0
C      1  0.5426900000000  0.5529490000000  0.4250210000000 1.0
C      1  0.4393320000000  0.5651280000000  0.4487510000000 1.0
C      1  0.4384550000000  0.4261910000000  0.5480320000000 1.0
C      1  0.4404540000000  0.5662740000000  0.5513340000000 1.0
C      1  0.4388980000000  0.4270830000000  0.4537250000000 1.0
C      1  0.4599420000000  0.5606440000000  0.5969060000000 1.0
C      1  0.4585310000000  0.4429640000000  0.4108690000000 1.0
C      1  0.4591410000000  0.5607320000000  0.4033350000000 1.0
C      1  0.4586450000000  0.4425150000000  0.5903730000000 1.0
C      1  0.5106470000000  0.5704720000000  0.5308100000000 1.0
C      1  0.5089540000000  0.4302800000000  0.4709700000000 1.0
C      1  0.5101800000000  0.5704670000000  0.4693170000000 1.0
C      1  0.5086900000000  0.4304020000000  0.5294690000000 1.0
C      1  0.4597600000000  0.5289180000000  0.5316700000000 1.0
C      1  0.4509680000000  0.4702770000000  0.4681120000000 1.0
C      1  0.4610280000000  0.5284770000000  0.4688150000000 1.0
C      1  0.4495370000000  0.4683270000000  0.5331240000000 1.0
C      1  0.5382160000000  0.4759700000000  0.4286580000000 1.0
C      1  0.5386140000000  0.5249050000000  0.5718410000000 1.0
C      1  0.5380980000000  0.4759270000000  0.5713310000000 1.0
C      1  0.5386470000000  0.5249210000000  0.4278450000000 1.0
C      1  0.5897640000000  0.4680790000000  0.4835580000000 1.0
C      1  0.5891420000000  0.5310510000000  0.5163360000000 1.0
C      1  0.5897190000000  0.4679940000000  0.5162340000000 1.0
C      1  0.5892800000000  0.5312000000000  0.4835280000000 1.0
C      1  0.4739140000000  0.4855200000000  0.3940430000000 1.0
C      1  0.4748340000000  0.5152020000000  0.6092720000000 1.0
C      1  0.4741580000000  0.4854130000000  0.6063170000000 1.0
C      1  0.4744530000000  0.5153340000000  0.3910370000000 1.0
C      1  0.4911000000000  0.5288720000000  0.4328860000000 1.0
C      1  0.4901910000000  0.4706980000000  0.5643240000000 1.0
C      1  0.4909860000000  0.5287890000000  0.5672170000000 1.0
C      1  0.4904750000000  0.4707780000000  0.4359400000000 1.0
C      1  0.4498500000000  0.5795570000000  0.5742490000000 1.0
C      1  0.4491010000000  0.4194370000000  0.4285330000000 1.0
C      1  0.4488370000000  0.5791710000000  0.4262960000000 1.0
C      1  0.4491990000000  0.4185980000000  0.5730890000000 1.0
C      1  0.5390930000000  0.5359030000000  0.4843720000000 1.0
C      1  0.5391950000000  0.4647710000000  0.5151880000000 1.0
C      1  0.5389350000000  0.5357720000000  0.5153600000000 1.0
C      1  0.5394640000000  0.4648420000000  0.4845570000000 1.0
C      1  0.5634810000000  0.4804750000000  0.5260970000000 1.0
C      1  0.5629950000000  0.5189350000000  0.4734530000000 1.0
C      1  0.5636280000000  0.4806840000000  0.4737560000000 1.0
C      1  0.5628090000000  0.5186340000000  0.5262200000000 1.0
C      1  0.5626960000000  0.5144470000000  0.4428360000000 1.0
C      1  0.5625540000000  0.4859330000000  0.5565640000000 1.0
C      1  0.5625250000000  0.5142360000000  0.5568090000000 1.0
C      1  0.5626750000000  0.4861250000000  0.4433140000000 1.0
C      1  0.5129120000000  0.5263370000000  0.5268490000000 1.0
C      1  0.5157000000000  0.4786100000000  0.4744170000000 1.0
C      1  0.5133890000000  0.5263180000000  0.4727180000000 1.0
C      1  0.5154270000000  0.4790090000000  0.5257240000000 1.0
C      1  0.4222010000000  0.4629590000000  0.4734460000000 1.0
C      1  0.4307780000000  0.5319380000000  0.5246020000000 1.0
C      1  0.4217970000000  0.4641140000000  0.5225180000000 1.0
C      1  0.4333410000000  0.5242720000000  0.4810910000000 1.0
C      1  0.4707660000000  0.5972670000000  0.4378160000000 1.0
C      1  0.4724690000000  0.4014770000000  0.5623920000000 1.0
C      1  0.4718920000000  0.5972820000000  0.5628230000000 1.0
C      1  0.4721980000000  0.4018470000000  0.4385860000000 1.0
C      1  0.5555030000000  0.5624930000000  0.4475640000000 1.0
C      1  0.5539580000000  0.4380190000000  0.5522540000000 1.0
C      1  0.5558400000000  0.5622300000000  0.5521350000000 1.0
C      1  0.5542570000000  0.4376450000000  0.4476990000000 1.0
C      1  0.4870680000000  0.4386850000000  0.4033660000000 1.0
C      1  0.4896690000000  0.5619810000000  0.5998800000000 1.0
C      1  0.4873810000000  0.4386750000000  0.5973270000000 1.0
C      1  0.4888730000000  0.5622430000000  0.4004830000000 1.0
C      1  0.4935710000000  0.4212180000000  0.5731810000000 1.0
C      1  0.4932070000000  0.5791510000000  0.4254990000000 1.0
C      1  0.4934620000000  0.4212610000000  0.4274990000000 1.0
C      1  0.4942330000000  0.5789930000000  0.5749830000000 1.0
C      1  0.5383300000000  0.4364740000000  0.4728510000000 1.0
C      1  0.5398440000000  0.5641910000000  0.5272290000000 1.0
C      1  0.5380340000000  0.4365450000000  0.5271580000000 1.0
C      1  0.5395950000000  0.5643770000000  0.4725750000000 1.0
C      1  0.5577550000000  0.5845500000000  0.5139720000000 1.0
C      1  0.5558700000000  0.4156910000000  0.4860300000000 1.0
C      1  0.5576380000000  0.5846660000000  0.4857990000000 1.0
C      1  0.5557110000000  0.4156780000000  0.5141560000000 1.0
C      1  0.4190370000000  0.4492030000000  0.4984430000000 1.0
C      1  0.4246550000000  0.5444050000000  0.4999320000000 1.0
C      1  0.4318640000000  0.4980240000000  0.4964240000000 1.0
END
