TITL C-3577079-311-760 1.02692905655671e-06 125000 -277.832442085134 0 0 46 (C1) n - 1
REM
REM in /home/bkarasulu/work/CARBON/AIRSS/Generating-Clusters/EDIP-Nigel-Params/with-SteepDescent/Higher-Symm/SD-CG/HFTN-CG
REM
REM
REM
REM
REM
REM ./C.cell (12c818d87b63d06a65506943cc24bca4)
REM
REM compiler GCC version 9.2.1 20190827 (Red Hat 9.2.1-1)
REM options -cpp -mtune=generic -march=x86-64 -g -O0 -fpre-include=/usr/include/finclude/math-vector-fortran.h
REM seed 531099438 1866469191 130972408 1541112627 -1562123690 -1444696248 -2111553617 1756001838 2036583966 1069087813 1981563631 1033579409 -230322369 -1502330673 794208777 -788654399 1103365714 1166650484 1366905567 466553572 -1891022561 1969239684 -1590896793 -107847781 -1727016898 1594789571 1585914773 -1619728348 -1337588053 -1860897110 -1803385806 243594086 911956400
REM
CELL 1.54180   50.00000   50.00000   50.00000   90.00000   90.00000   90.00000
LATT -1
SFAC C  
C      1  0.5098880000000  0.4654690000000  0.5467980000000 1.0
C      1  0.5262700000000  0.5269440000000  0.5449330000000 1.0
C      1  0.4698920000000  0.5073510000000  0.5423260000000 1.0
C      1  0.4267260000000  0.4885630000000  0.4895540000000 1.0
C      1  0.5468830000000  0.4490150000000  0.4924540000000 1.0
C      1  0.5222310000000  0.5629370000000  0.4897640000000 1.0
C      1  0.5401430000000  0.4556670000000  0.4628740000000 1.0
C      1  0.5226720000000  0.5582020000000  0.4586650000000 1.0
C      1  0.4457350000000  0.4909600000000  0.4653800000000 1.0
C      1  0.4775430000000  0.4425790000000  0.5115400000000 1.0
C      1  0.5581960000000  0.5063450000000  0.5089560000000 1.0
C      1  0.4649370000000  0.5483800000000  0.5119140000000 1.0
C      1  0.5575370000000  0.4622300000000  0.5370010000000 1.0
C      1  0.5049570000000  0.5693680000000  0.5345880000000 1.0
C      1  0.4388940000000  0.4705570000000  0.5318670000000 1.0
C      1  0.5106820000000  0.4527910000000  0.4630840000000 1.0
C      1  0.5403030000000  0.5353590000000  0.4527610000000 1.0
C      1  0.4556910000000  0.5187150000000  0.4657330000000 1.0
C      1  0.5687160000000  0.4583030000000  0.5115830000000 1.0
C      1  0.5029320000000  0.5786600000000  0.5079830000000 1.0
C      1  0.4320430000000  0.4631670000000  0.5052020000000 1.0
C      1  0.4747880000000  0.4910770000000  0.5030510000000 1.0
C      1  0.5109590000000  0.4840570000000  0.5081930000000 1.0
C      1  0.5027890000000  0.5172580000000  0.5039490000000 1.0
C      1  0.4841000000000  0.4621760000000  0.5344260000000 1.0
C      1  0.5361370000000  0.5036880000000  0.5301560000000 1.0
C      1  0.4837380000000  0.5286470000000  0.5266160000000 1.0
C      1  0.4562980000000  0.4506420000000  0.4918370000000 1.0
C      1  0.5669370000000  0.4827410000000  0.4929840000000 1.0
C      1  0.4794250000000  0.5672210000000  0.4934320000000 1.0
C      1  0.5327750000000  0.5068020000000  0.4590550000000 1.0
C      1  0.4844500000000  0.5237580000000  0.4646740000000 1.0
C      1  0.4931790000000  0.4754700000000  0.4611440000000 1.0
C      1  0.4445370000000  0.5061470000000  0.5067820000000 1.0
C      1  0.5206210000000  0.4530040000000  0.5061430000000 1.0
C      1  0.5269440000000  0.5370490000000  0.5023260000000 1.0
C      1  0.5354530000000  0.4777150000000  0.5447340000000 1.0
C      1  0.5030940000000  0.5430110000000  0.5440480000000 1.0
C      1  0.4628240000000  0.4796040000000  0.5436750000000 1.0
C      1  0.4921030000000  0.5526460000000  0.4670990000000 1.0
C      1  0.4681890000000  0.4749630000000  0.4775690000000 1.0
C      1  0.5517200000000  0.4829230000000  0.4653240000000 1.0
C      1  0.5493530000000  0.5255890000000  0.4890050000000 1.0
C      1  0.4442990000000  0.5339230000000  0.4976780000000 1.0
C      1  0.5006200000000  0.4354450000000  0.4956250000000 1.0
C      1  0.5037500000000  0.5021880000000  0.4622860000000 1.0
END
