TITL C-3578199-7832-765 4.59342622924704e-06 125000 -787.440643306344 0 0 127 (C1) n - 1
REM
REM in /home/bkarasulu/work/CARBON/AIRSS/Generating-Clusters/EDIP-Nigel-Params/with-SteepDescent/Higher-Symm/SD-CG/HFTN-CG
REM
REM
REM
REM
REM
REM ./C.cell (12c818d87b63d06a65506943cc24bca4)
REM
REM compiler GCC version 9.2.1 20190827 (Red Hat 9.2.1-1)
REM options -cpp -mtune=generic -march=x86-64 -g -O0 -fpre-include=/usr/include/finclude/math-vector-fortran.h
REM seed 1072960927 -794089331 1714800168 -1755466220 -2128230508 2014458572 1372719140 594459192 1666681638 -1106636140 688429785 -560843562 952242675 -1781465642 1852015435 -1001058909 48263119 206255243 -59772720 -893433882 -1367673646 -22564857 -1192963893 -472672085 1783478657 -1169147629 144905471 -1925344479 -1997044927 -1183263727 -870626910 -1165949956 -1322015171
REM
CELL 1.54180   50.00000   50.00000   50.00000   90.00000   90.00000   90.00000
LATT -1
SFAC C  
C      1  0.4705480000000  0.4155500000000  0.5214810000000 1.0
C      1  0.5450130000000  0.4500840000000  0.4859490000000 1.0
C      1  0.4759870000000  0.4951910000000  0.5686060000000 1.0
C      1  0.4002070000000  0.4835180000000  0.5399100000000 1.0
C      1  0.5477070000000  0.5105220000000  0.4120110000000 1.0
C      1  0.4458980000000  0.5269520000000  0.5826560000000 1.0
C      1  0.4917540000000  0.5793520000000  0.5062490000000 1.0
C      1  0.5499060000000  0.5489840000000  0.4412160000000 1.0
C      1  0.5097380000000  0.5830100000000  0.4584720000000 1.0
C      1  0.5068000000000  0.5172140000000  0.5456690000000 1.0
C      1  0.5330180000000  0.4082880000000  0.4943760000000 1.0
C      1  0.4490230000000  0.4729590000000  0.4456850000000 1.0
C      1  0.5850180000000  0.4880770000000  0.4529470000000 1.0
C      1  0.5220400000000  0.4311840000000  0.5354090000000 1.0
C      1  0.4349070000000  0.5153970000000  0.4233680000000 1.0
C      1  0.5327870000000  0.4876290000000  0.5808250000000 1.0
C      1  0.5798890000000  0.5168150000000  0.4522970000000 1.0
C      1  0.4858940000000  0.5156240000000  0.4473960000000 1.0
C      1  0.5200270000000  0.4523260000000  0.5032230000000 1.0
C      1  0.4035960000000  0.5317460000000  0.5227310000000 1.0
C      1  0.4335860000000  0.4770650000000  0.5773340000000 1.0
C      1  0.5418260000000  0.5320020000000  0.5159000000000 1.0
C      1  0.5239900000000  0.4835030000000  0.4469480000000 1.0
C      1  0.4990220000000  0.4274100000000  0.4443770000000 1.0
C      1  0.5370910000000  0.5890170000000  0.4668390000000 1.0
C      1  0.5657920000000  0.5486250000000  0.5643920000000 1.0
C      1  0.5433530000000  0.5141020000000  0.4889120000000 1.0
C      1  0.5473080000000  0.5683430000000  0.5521810000000 1.0
C      1  0.4652590000000  0.5037910000000  0.5392430000000 1.0
C      1  0.5394880000000  0.4524120000000  0.5471880000000 1.0
C      1  0.5464840000000  0.5748290000000  0.5230260000000 1.0
C      1  0.5049260000000  0.4027360000000  0.4895730000000 1.0
C      1  0.4526800000000  0.4972600000000  0.5870310000000 1.0
C      1  0.4483830000000  0.4791960000000  0.4972960000000 1.0
C      1  0.4422070000000  0.5848480000000  0.4966770000000 1.0
C      1  0.4942690000000  0.4505490000000  0.4852960000000 1.0
C      1  0.5251650000000  0.4390680000000  0.4433410000000 1.0
C      1  0.4193560000000  0.5323800000000  0.4771470000000 1.0
C      1  0.5838380000000  0.5317070000000  0.5483070000000 1.0
C      1  0.5747350000000  0.5004280000000  0.4935630000000 1.0
C      1  0.5351600000000  0.4518430000000  0.4181920000000 1.0
C      1  0.5499680000000  0.5074590000000  0.5344270000000 1.0
C      1  0.4748240000000  0.5697460000000  0.5682960000000 1.0
C      1  0.5505060000000  0.5321450000000  0.5834380000000 1.0
C      1  0.4722450000000  0.5246700000000  0.4951770000000 1.0
C      1  0.4236860000000  0.5223110000000  0.5636970000000 1.0
C      1  0.4552860000000  0.5428130000000  0.5134010000000 1.0
C      1  0.4227880000000  0.5451910000000  0.5043620000000 1.0
C      1  0.4137380000000  0.5039650000000  0.4858780000000 1.0
C      1  0.4803420000000  0.4455350000000  0.4331590000000 1.0
C      1  0.4102280000000  0.5444070000000  0.5481910000000 1.0
C      1  0.5677010000000  0.4460770000000  0.5443170000000 1.0
C      1  0.5098470000000  0.5684800000000  0.5279530000000 1.0
C      1  0.4379520000000  0.4610700000000  0.5360360000000 1.0
C      1  0.5663610000000  0.4208480000000  0.5303230000000 1.0
C      1  0.5566360000000  0.5036130000000  0.5779810000000 1.0
C      1  0.5278070000000  0.5542090000000  0.4213890000000 1.0
C      1  0.5902620000000  0.5361980000000  0.4725870000000 1.0
C      1  0.5662480000000  0.5271720000000  0.4288710000000 1.0
C      1  0.5799450000000  0.5015090000000  0.5573170000000 1.0
C      1  0.4905140000000  0.3980240000000  0.5129480000000 1.0
C      1  0.4442830000000  0.4413280000000  0.4583620000000 1.0
C      1  0.5240050000000  0.4807370000000  0.4151360000000 1.0
C      1  0.5624480000000  0.4557060000000  0.4241190000000 1.0
C      1  0.4180380000000  0.5747020000000  0.5116630000000 1.0
C      1  0.4603180000000  0.5324310000000  0.5408440000000 1.0
C      1  0.4689620000000  0.4560790000000  0.5049350000000 1.0
C      1  0.5592450000000  0.5730720000000  0.4570740000000 1.0
C      1  0.4489370000000  0.4712070000000  0.4145640000000 1.0
C      1  0.4232180000000  0.4530190000000  0.4754970000000 1.0
C      1  0.5016220000000  0.5659890000000  0.4818090000000 1.0
C      1  0.5139460000000  0.4800650000000  0.5166110000000 1.0
C      1  0.4664960000000  0.4978580000000  0.4847020000000 1.0
C      1  0.4998420000000  0.4255190000000  0.5572870000000 1.0
C      1  0.4900100000000  0.4229020000000  0.4726720000000 1.0
C      1  0.4438820000000  0.5408300000000  0.4326560000000 1.0
C      1  0.4744540000000  0.4896650000000  0.4579120000000 1.0
C      1  0.5122720000000  0.5373100000000  0.5237550000000 1.0
C      1  0.5014340000000  0.5280650000000  0.4962970000000 1.0
C      1  0.5292640000000  0.4608700000000  0.5724450000000 1.0
C      1  0.5647540000000  0.4878760000000  0.5185440000000 1.0
C      1  0.5217300000000  0.5431660000000  0.5849160000000 1.0
C      1  0.5949950000000  0.4626390000000  0.4985150000000 1.0
C      1  0.5706420000000  0.4494720000000  0.4971320000000 1.0
C      1  0.4813030000000  0.4667220000000  0.5580430000000 1.0
C      1  0.4086710000000  0.4555300000000  0.5348660000000 1.0
C      1  0.5745350000000  0.5606860000000  0.4787780000000 1.0
C      1  0.4275110000000  0.4422570000000  0.5038100000000 1.0
C      1  0.4387080000000  0.5474650000000  0.4607140000000 1.0
C      1  0.4414800000000  0.4892580000000  0.5256420000000 1.0
C      1  0.5221380000000  0.5247140000000  0.4163760000000 1.0
C      1  0.4709160000000  0.4242570000000  0.5492650000000 1.0
C      1  0.5425490000000  0.4303720000000  0.4650130000000 1.0
C      1  0.4758030000000  0.4600480000000  0.4090950000000 1.0
C      1  0.4992620000000  0.5764480000000  0.5556750000000 1.0
C      1  0.4432670000000  0.5733790000000  0.4707120000000 1.0
C      1  0.5084350000000  0.5703020000000  0.4333940000000 1.0
C      1  0.6010610000000  0.4786000000000  0.4755250000000 1.0
C      1  0.5352690000000  0.5332460000000  0.4642260000000 1.0
C      1  0.5020660000000  0.4503870000000  0.5734160000000 1.0
C      1  0.4763230000000  0.5072620000000  0.3999850000000 1.0
C      1  0.4192390000000  0.4815030000000  0.4680450000000 1.0
C      1  0.5845850000000  0.5413920000000  0.5200740000000 1.0
C      1  0.4065410000000  0.5030710000000  0.5161980000000 1.0
C      1  0.4493440000000  0.4211890000000  0.5016180000000 1.0
C      1  0.4551700000000  0.4507340000000  0.5594370000000 1.0
C      1  0.4597420000000  0.4207010000000  0.4737030000000 1.0
C      1  0.4940370000000  0.4827930000000  0.4045110000000 1.0
C      1  0.4978430000000  0.5255460000000  0.5728410000000 1.0
C      1  0.4181860000000  0.5716430000000  0.5409000000000 1.0
C      1  0.4719780000000  0.5277150000000  0.4240830000000 1.0
C      1  0.4635120000000  0.5726080000000  0.5134710000000 1.0
C      1  0.5831290000000  0.4704330000000  0.5341650000000 1.0
C      1  0.5610340000000  0.4733220000000  0.4460590000000 1.0
C      1  0.5157430000000  0.5144650000000  0.4447590000000 1.0
C      1  0.4702570000000  0.5412860000000  0.5682490000000 1.0
C      1  0.4475960000000  0.4986410000000  0.4033860000000 1.0
C      1  0.5404800000000  0.4108240000000  0.5229390000000 1.0
C      1  0.5235090000000  0.5693350000000  0.5701200000000 1.0
C      1  0.5312210000000  0.5567480000000  0.4870010000000 1.0
C      1  0.5251670000000  0.4938850000000  0.5436870000000 1.0
C      1  0.5696590000000  0.5641380000000  0.5079000000000 1.0
C      1  0.5160320000000  0.5005020000000  0.4937690000000 1.0
C      1  0.4145840000000  0.4941940000000  0.5638990000000 1.0
C      1  0.4968920000000  0.4690340000000  0.4589550000000 1.0
C      1  0.5944430000000  0.5232960000000  0.4990940000000 1.0
C      1  0.4854320000000  0.4725830000000  0.5261680000000 1.0
END
