TITL C-3577086-586-647 3.64355187323667e-07 125000 -157.028623856521 0 0 27 (C1) n - 1
REM
REM in /home/bkarasulu/work/CARBON/AIRSS/Generating-Clusters/EDIP-Nigel-Params/with-SteepDescent/Higher-Symm/SD-CG/HFTN-CG
REM
REM
REM
REM
REM
REM ./C.cell (12c818d87b63d06a65506943cc24bca4)
REM
REM compiler GCC version 9.2.1 20190827 (Red Hat 9.2.1-1)
REM options -cpp -mtune=generic -march=x86-64 -g -O0 -fpre-include=/usr/include/finclude/math-vector-fortran.h
REM seed -742950234 -666775199 -1133391982 -1562664624 -2031890191 -1037889231 -1609744466 1230186430 933041670 -1775306282 43698294 1684381236 762113513 893882627 -1990324655 1582620517 -1109338038 -1787748342 1539422486 -650078523 -1730067626 1989260466 1100849371 707903629 1380181475 1487814046 -2094312921 1989984924 -506360236 -1990632288 -310770981 -583722348 -1619839116
REM
CELL 1.54180   50.00000   50.00000   50.00000   90.00000   90.00000   90.00000
LATT -1
SFAC C  
C      1  0.5670810000000  0.5321780000000  0.5131460000000 1.0
C      1  0.5148600000000  0.4282870000000  0.4914200000000 1.0
C      1  0.4340490000000  0.5314420000000  0.5037180000000 1.0
C      1  0.5424910000000  0.5090430000000  0.4661370000000 1.0
C      1  0.4751440000000  0.4592610000000  0.4684050000000 1.0
C      1  0.4733220000000  0.5312430000000  0.4610320000000 1.0
C      1  0.4791830000000  0.4336980000000  0.4771680000000 1.0
C      1  0.4543910000000  0.5462350000000  0.4741190000000 1.0
C      1  0.5627750000000  0.5064910000000  0.4844160000000 1.0
C      1  0.5311600000000  0.4478560000000  0.5030730000000 1.0
C      1  0.4390500000000  0.5088040000000  0.5192000000000 1.0
C      1  0.5484420000000  0.5512750000000  0.5215860000000 1.0
C      1  0.5277740000000  0.5092320000000  0.5189570000000 1.0
C      1  0.4868640000000  0.4504560000000  0.5227750000000 1.0
C      1  0.4782770000000  0.5344360000000  0.5153890000000 1.0
C      1  0.5172920000000  0.5126430000000  0.4583800000000 1.0
C      1  0.4795520000000  0.4842920000000  0.4608460000000 1.0
C      1  0.4899800000000  0.5094890000000  0.4579590000000 1.0
C      1  0.5142850000000  0.4596550000000  0.5224440000000 1.0
C      1  0.4657910000000  0.5112950000000  0.5273310000000 1.0
C      1  0.5253130000000  0.5365200000000  0.5273370000000 1.0
C      1  0.4885090000000  0.4281910000000  0.5040730000000 1.0
C      1  0.4567070000000  0.5494210000000  0.5026980000000 1.0
C      1  0.5559710000000  0.5052600000000  0.5125450000000 1.0
C      1  0.4999970000000  0.5475450000000  0.5268370000000 1.0
C      1  0.5102010000000  0.4877820000000  0.5274750000000 1.0
C      1  0.4815400000000  0.4879690000000  0.5315320000000 1.0
END
