TITL C-3578209-2550-234 -2.20862262062993e-06 125000 -1006.87422130602 0 0 157 (C1) n - 1
REM
REM in /home/bkarasulu/work/CARBON/AIRSS/Generating-Clusters/EDIP-Nigel-Params/with-SteepDescent/Higher-Symm/SD-CG/HFTN-CG
REM
REM
REM
REM
REM
REM ./C.cell (12c818d87b63d06a65506943cc24bca4)
REM
REM compiler GCC version 9.2.1 20190827 (Red Hat 9.2.1-1)
REM options -cpp -mtune=generic -march=x86-64 -g -O0 -fpre-include=/usr/include/finclude/math-vector-fortran.h
REM seed 440665129 1758386091 -605975779 469503247 -547949441 261876426 -425438566 1399295982 1008285879 -839451274 2530598 -1501659799 1621468495 -716084561 1406787261 -1711696810 -501330117 -575702436 537295326 -644425999 1886941065 -1030212382 -129059856 1752111658 -2119004258 -659540544 1233168476 1275023776 -2146317946 -1885469531 -108587416 948697303 2053389413
REM
CELL 1.54180   50.00000   50.00000   50.00000   90.00000   90.00000   90.00000
LATT -1
SFAC C  
C      1  0.5845650000000  0.4927350000000  0.5558060000000 1.0
C      1  0.5197760000000  0.4166360000000  0.5563650000000 1.0
C      1  0.4266170000000  0.4560560000000  0.5553780000000 1.0
C      1  0.4311060000000  0.5576780000000  0.5574420000000 1.0
C      1  0.5324040000000  0.5807560000000  0.5571240000000 1.0
C      1  0.5886590000000  0.4926220000000  0.4416870000000 1.0
C      1  0.5205080000000  0.4184970000000  0.4441900000000 1.0
C      1  0.4244660000000  0.4518360000000  0.4406440000000 1.0
C      1  0.4337030000000  0.5526380000000  0.4433530000000 1.0
C      1  0.5325810000000  0.5780620000000  0.4434940000000 1.0
C      1  0.4233630000000  0.4810650000000  0.5698820000000 1.0
C      1  0.4538570000000  0.5693350000000  0.5723780000000 1.0
C      1  0.5494750000000  0.5612570000000  0.5708040000000 1.0
C      1  0.5734280000000  0.4702100000000  0.5703840000000 1.0
C      1  0.4950420000000  0.4215160000000  0.5704570000000 1.0
C      1  0.4201550000000  0.4768490000000  0.4257580000000 1.0
C      1  0.4560580000000  0.5634450000000  0.4286260000000 1.0
C      1  0.5503870000000  0.5602240000000  0.4290280000000 1.0
C      1  0.5757080000000  0.4702940000000  0.4274740000000 1.0
C      1  0.4959700000000  0.4220450000000  0.4292940000000 1.0
C      1  0.4648160000000  0.4821190000000  0.5327420000000 1.0
C      1  0.4672300000000  0.5288640000000  0.5372330000000 1.0
C      1  0.5184240000000  0.5460320000000  0.5238860000000 1.0
C      1  0.5478920000000  0.4988710000000  0.5183110000000 1.0
C      1  0.5113160000000  0.4600150000000  0.5175860000000 1.0
C      1  0.4643710000000  0.4753090000000  0.4617320000000 1.0
C      1  0.4679190000000  0.5271580000000  0.4804060000000 1.0
C      1  0.5200980000000  0.5433660000000  0.4794610000000 1.0
C      1  0.5489890000000  0.4967340000000  0.4698430000000 1.0
C      1  0.5065490000000  0.4623700000000  0.4678660000000 1.0
C      1  0.4564780000000  0.4562980000000  0.5921220000000 1.0
C      1  0.4446790000000  0.5265550000000  0.5918980000000 1.0
C      1  0.5064240000000  0.5598920000000  0.5899110000000 1.0
C      1  0.5565100000000  0.5098520000000  0.5886490000000 1.0
C      1  0.5285560000000  0.4452950000000  0.5914920000000 1.0
C      1  0.4582850000000  0.4548060000000  0.4060580000000 1.0
C      1  0.4436920000000  0.5233650000000  0.4072900000000 1.0
C      1  0.5067610000000  0.5544880000000  0.4118000000000 1.0
C      1  0.5605700000000  0.5100820000000  0.4081620000000 1.0
C      1  0.5295900000000  0.4445730000000  0.4066940000000 1.0
C      1  0.4161930000000  0.5018430000000  0.4408770000000 1.0
C      1  0.4778330000000  0.5757660000000  0.4432600000000 1.0
C      1  0.5702920000000  0.5441000000000  0.4424070000000 1.0
C      1  0.5643860000000  0.4483250000000  0.4425640000000 1.0
C      1  0.4710410000000  0.4253470000000  0.4432410000000 1.0
C      1  0.4226690000000  0.5056680000000  0.5533970000000 1.0
C      1  0.4765360000000  0.5810580000000  0.5577050000000 1.0
C      1  0.5684230000000  0.5445110000000  0.5562590000000 1.0
C      1  0.5636370000000  0.4466540000000  0.5567680000000 1.0
C      1  0.4703920000000  0.4255810000000  0.5563230000000 1.0
C      1  0.4071060000000  0.4789920000000  0.5134480000000 1.0
C      1  0.4487020000000  0.5820510000000  0.5157540000000 1.0
C      1  0.5628720000000  0.5706950000000  0.5173680000000 1.0
C      1  0.5827250000000  0.4628570000000  0.5151230000000 1.0
C      1  0.4920010000000  0.4063900000000  0.5149000000000 1.0
C      1  0.4082130000000  0.4779770000000  0.4830360000000 1.0
C      1  0.4476380000000  0.5827610000000  0.4832670000000 1.0
C      1  0.5669380000000  0.5759480000000  0.4824450000000 1.0
C      1  0.5915810000000  0.4609500000000  0.4830060000000 1.0
C      1  0.4921860000000  0.4086270000000  0.4847190000000 1.0
C      1  0.4719600000000  0.5904860000000  0.4667830000000 1.0
C      1  0.5832730000000  0.5562150000000  0.4648550000000 1.0
C      1  0.5802100000000  0.4389190000000  0.4646620000000 1.0
C      1  0.4681210000000  0.4115170000000  0.4678590000000 1.0
C      1  0.4013650000000  0.5013090000000  0.4653560000000 1.0
C      1  0.4703920000000  0.5958830000000  0.5337920000000 1.0
C      1  0.5841690000000  0.5575490000000  0.5359770000000 1.0
C      1  0.5793390000000  0.4384660000000  0.5340720000000 1.0
C      1  0.4676780000000  0.4118270000000  0.5317230000000 1.0
C      1  0.4062490000000  0.5040580000000  0.5292480000000 1.0
C      1  0.5008300000000  0.4398030000000  0.4067030000000 1.0
C      1  0.4405610000000  0.4777140000000  0.4041860000000 1.0
C      1  0.4638310000000  0.5437390000000  0.4080540000000 1.0
C      1  0.5336150000000  0.5452350000000  0.4107120000000 1.0
C      1  0.5579870000000  0.4813550000000  0.4070790000000 1.0
C      1  0.5000240000000  0.4397570000000  0.5922280000000 1.0
C      1  0.4433040000000  0.4819820000000  0.5916370000000 1.0
C      1  0.4612390000000  0.5502110000000  0.5937590000000 1.0
C      1  0.5314850000000  0.5462980000000  0.5882310000000 1.0
C      1  0.5546430000000  0.4812020000000  0.5894690000000 1.0
C      1  0.5482950000000  0.5423110000000  0.4870380000000 1.0
C      1  0.5531610000000  0.4687640000000  0.4797550000000 1.0
C      1  0.4794060000000  0.4530720000000  0.4764680000000 1.0
C      1  0.4482890000000  0.4797520000000  0.4864390000000 1.0
C      1  0.4730520000000  0.5543630000000  0.4920700000000 1.0
C      1  0.5474860000000  0.5428890000000  0.5172400000000 1.0
C      1  0.5533020000000  0.4706600000000  0.5109450000000 1.0
C      1  0.4862200000000  0.4447160000000  0.5083650000000 1.0
C      1  0.4501340000000  0.5073380000000  0.5260990000000 1.0
C      1  0.4753130000000  0.5544060000000  0.5232690000000 1.0
C      1  0.4873140000000  0.5180950000000  0.5562800000000 1.0
C      1  0.5110370000000  0.5226820000000  0.5394430000000 1.0
C      1  0.5305750000000  0.5019890000000  0.5437090000000 1.0
C      1  0.5137560000000  0.4758610000000  0.5461280000000 1.0
C      1  0.4851710000000  0.4853890000000  0.5557550000000 1.0
C      1  0.4825400000000  0.5217070000000  0.4537630000000 1.0
C      1  0.5099680000000  0.5230160000000  0.4624690000000 1.0
C      1  0.5276100000000  0.5048280000000  0.4487360000000 1.0
C      1  0.5089980000000  0.4804790000000  0.4425710000000 1.0
C      1  0.4790240000000  0.4930860000000  0.4415080000000 1.0
C      1  0.5269760000000  0.4734180000000  0.5826600000000 1.0
C      1  0.4842450000000  0.4648850000000  0.5886710000000 1.0
C      1  0.4636470000000  0.5033220000000  0.5893190000000 1.0
C      1  0.4874340000000  0.5380600000000  0.5889590000000 1.0
C      1  0.5284490000000  0.5170310000000  0.5795160000000 1.0
C      1  0.5293430000000  0.4734450000000  0.4100980000000 1.0
C      1  0.4862790000000  0.4656860000000  0.4086870000000 1.0
C      1  0.4598590000000  0.4989400000000  0.4090390000000 1.0
C      1  0.4892140000000  0.5306520000000  0.4167090000000 1.0
C      1  0.5326900000000  0.5163370000000  0.4170720000000 1.0
C      1  0.5048430000000  0.5755910000000  0.4318950000000 1.0
C      1  0.5796860000000  0.5188290000000  0.4292620000000 1.0
C      1  0.5430810000000  0.4315950000000  0.4299880000000 1.0
C      1  0.4485490000000  0.4376340000000  0.4284710000000 1.0
C      1  0.4249390000000  0.5275340000000  0.4296590000000 1.0
C      1  0.5042710000000  0.5799730000000  0.5686610000000 1.0
C      1  0.5766150000000  0.5186830000000  0.5685750000000 1.0
C      1  0.5426540000000  0.4297820000000  0.5700550000000 1.0
C      1  0.4477060000000  0.4397010000000  0.5691600000000 1.0
C      1  0.4246580000000  0.5309890000000  0.5698730000000 1.0
C      1  0.4944450000000  0.6041570000000  0.4754950000000 1.0
C      1  0.6019210000000  0.5382200000000  0.4749120000000 1.0
C      1  0.5677460000000  0.4169540000000  0.4759920000000 1.0
C      1  0.4414050000000  0.4097780000000  0.4755280000000 1.0
C      1  0.3959580000000  0.5269900000000  0.4746590000000 1.0
C      1  0.4943690000000  0.6065480000000  0.5241400000000 1.0
C      1  0.6007460000000  0.5376250000000  0.5255570000000 1.0
C      1  0.5679870000000  0.4144590000000  0.5257950000000 1.0
C      1  0.4415440000000  0.4115880000000  0.5230570000000 1.0
C      1  0.3940400000000  0.5283570000000  0.5230630000000 1.0
C      1  0.5195950000000  0.5984760000000  0.4858220000000 1.0
C      1  0.6014160000000  0.5124220000000  0.4855980000000 1.0
C      1  0.5428090000000  0.4124860000000  0.4870670000000 1.0
C      1  0.4247750000000  0.4299570000000  0.4847260000000 1.0
C      1  0.4086110000000  0.5494490000000  0.4850440000000 1.0
C      1  0.5190360000000  0.5984960000000  0.5139190000000 1.0
C      1  0.5980250000000  0.5125250000000  0.5135810000000 1.0
C      1  0.5434290000000  0.4079330000000  0.5145650000000 1.0
C      1  0.4270720000000  0.4324720000000  0.5123950000000 1.0
C      1  0.4079780000000  0.5503590000000  0.5133410000000 1.0
C      1  0.5413820000000  0.5876900000000  0.4697550000000 1.0
C      1  0.5964520000000  0.4883190000000  0.4698350000000 1.0
C      1  0.5184240000000  0.4131130000000  0.4725040000000 1.0
C      1  0.4180630000000  0.4529680000000  0.4693650000000 1.0
C      1  0.4280530000000  0.5638570000000  0.4697300000000 1.0
C      1  0.5412460000000  0.5889430000000  0.5302240000000 1.0
C      1  0.5947300000000  0.4879140000000  0.5287690000000 1.0
C      1  0.5186700000000  0.4078640000000  0.5289400000000 1.0
C      1  0.4200280000000  0.4561120000000  0.5267940000000 1.0
C      1  0.4274280000000  0.5650830000000  0.5290530000000 1.0
C      1  0.5047120000000  0.5597800000000  0.4992840000000 1.0
C      1  0.4597200000000  0.4615940000000  0.5106420000000 1.0
C      1  0.4516300000000  0.5079730000000  0.4956490000000 1.0
C      1  0.5262770000000  0.4529060000000  0.4889390000000 1.0
C      1  0.5590400000000  0.5139740000000  0.4932520000000 1.0
C      1  0.5008910000000  0.4998750000000  0.4039330000000 1.0
C      1  0.5016150000000  0.4995320000000  0.5935760000000 1.0
END
