TITL C-3577090-796-510 -1.97668300856769e-06 125000 -1199.61500406245 0 0 195 (C1) n - 1
REM
REM in /home/bkarasulu/work/CARBON/AIRSS/Generating-Clusters/EDIP-Nigel-Params/with-SteepDescent/Higher-Symm/SD-CG/HFTN-CG
REM
REM
REM
REM
REM
REM ./C.cell (12c818d87b63d06a65506943cc24bca4)
REM
REM compiler GCC version 9.2.1 20190827 (Red Hat 9.2.1-1)
REM options -cpp -mtune=generic -march=x86-64 -g -O0 -fpre-include=/usr/include/finclude/math-vector-fortran.h
REM seed 2118192596 -1944195598 449615471 -1692656830 -1470161168 -464436954 125310585 -878742453 -1576791386 1672745565 -1057937304 2004008189 -795085896 -760085409 1301599303 2089874103 -1196345870 740771864 -1598775513 -1624465806 716153424 -1688986488 -706990589 -2067035117 -171559704 967489489 184855336 1484995022 -448117204 -74862901 1030772671 -1610008855 19669987
REM
CELL 1.54180   50.00000   50.00000   50.00000   90.00000   90.00000   90.00000
LATT -1
SFAC C  
C      1  0.5867680000000  0.4977770000000  0.4398800000000 1.0
C      1  0.4054960000000  0.4972270000000  0.4510110000000 1.0
C      1  0.5053860000000  0.4967100000000  0.6110000000000 1.0
C      1  0.5884430000000  0.5027530000000  0.5592110000000 1.0
C      1  0.4028950000000  0.5026100000000  0.5490220000000 1.0
C      1  0.5035630000000  0.5008070000000  0.3942190000000 1.0
C      1  0.5647190000000  0.5429020000000  0.4114600000000 1.0
C      1  0.3954250000000  0.5395800000000  0.4836170000000 1.0
C      1  0.5434020000000  0.5432670000000  0.6075280000000 1.0
C      1  0.5678700000000  0.4584980000000  0.5875780000000 1.0
C      1  0.3868250000000  0.4546090000000  0.5142190000000 1.0
C      1  0.5393350000000  0.4560560000000  0.3956260000000 1.0
C      1  0.5509770000000  0.4752250000000  0.4568590000000 1.0
C      1  0.4430520000000  0.4695820000000  0.4683070000000 1.0
C      1  0.5106470000000  0.4743190000000  0.5710140000000 1.0
C      1  0.5526670000000  0.5246600000000  0.5432250000000 1.0
C      1  0.4368650000000  0.5255020000000  0.5258540000000 1.0
C      1  0.5068410000000  0.5288750000000  0.4319250000000 1.0
C      1  0.4847090000000  0.5427350000000  0.5509540000000 1.0
C      1  0.5539200000000  0.5443060000000  0.4895090000000 1.0
C      1  0.4615050000000  0.5389850000000  0.4600670000000 1.0
C      1  0.4827250000000  0.4635950000000  0.4411210000000 1.0
C      1  0.5484540000000  0.4523580000000  0.5124520000000 1.0
C      1  0.4757170000000  0.4614250000000  0.5401590000000 1.0
C      1  0.5588270000000  0.4314430000000  0.5855900000000 1.0
C      1  0.5326950000000  0.4333070000000  0.4132040000000 1.0
C      1  0.4074480000000  0.4334060000000  0.5115740000000 1.0
C      1  0.5544190000000  0.5692520000000  0.4167450000000 1.0
C      1  0.5370670000000  0.5667860000000  0.5910930000000 1.0
C      1  0.4034080000000  0.5660950000000  0.4889970000000 1.0
C      1  0.4474620000000  0.5382440000000  0.4075870000000 1.0
C      1  0.4565900000000  0.5404520000000  0.5847260000000 1.0
C      1  0.5964380000000  0.5401800000000  0.5003120000000 1.0
C      1  0.4497540000000  0.4624910000000  0.5752730000000 1.0
C      1  0.4477140000000  0.4640850000000  0.4073640000000 1.0
C      1  0.5951620000000  0.4626400000000  0.5007230000000 1.0
C      1  0.4992040000000  0.5705890000000  0.5857770000000 1.0
C      1  0.5767930000000  0.5724190000000  0.4638770000000 1.0
C      1  0.4318220000000  0.5709350000000  0.4520000000000 1.0
C      1  0.4957610000000  0.4251400000000  0.4224050000000 1.0
C      1  0.5770330000000  0.4291470000000  0.5369140000000 1.0
C      1  0.4281370000000  0.4363590000000  0.5356650000000 1.0
C      1  0.5217110000000  0.5299060000000  0.6217280000000 1.0
C      1  0.5893530000000  0.5322580000000  0.4229630000000 1.0
C      1  0.3875790000000  0.5303480000000  0.4579730000000 1.0
C      1  0.5170820000000  0.4673450000000  0.3813770000000 1.0
C      1  0.5928140000000  0.4691160000000  0.5773110000000 1.0
C      1  0.3848820000000  0.4696950000000  0.5395710000000 1.0
C      1  0.4369350000000  0.5524950000000  0.4751740000000 1.0
C      1  0.5130430000000  0.5498540000000  0.5655500000000 1.0
C      1  0.5541860000000  0.5557850000000  0.4522600000000 1.0
C      1  0.4422130000000  0.4589090000000  0.5194890000000 1.0
C      1  0.5079410000000  0.4477840000000  0.4391480000000 1.0
C      1  0.5523390000000  0.4428380000000  0.5494150000000 1.0
C      1  0.5148410000000  0.5926830000000  0.4324110000000 1.0
C      1  0.4329370000000  0.5925820000000  0.5174420000000 1.0
C      1  0.5516540000000  0.5951680000000  0.5530110000000 1.0
C      1  0.5206200000000  0.4041890000000  0.5701190000000 1.0
C      1  0.4402900000000  0.4147460000000  0.4770910000000 1.0
C      1  0.5491830000000  0.4059520000000  0.4507910000000 1.0
C      1  0.5578760000000  0.5223390000000  0.5918460000000 1.0
C      1  0.5454470000000  0.5219550000000  0.4031550000000 1.0
C      1  0.3961170000000  0.5186140000000  0.5044950000000 1.0
C      1  0.5544270000000  0.4784180000000  0.4091570000000 1.0
C      1  0.5490720000000  0.4789560000000  0.5976760000000 1.0
C      1  0.3940720000000  0.4751380000000  0.4937780000000 1.0
C      1  0.5311040000000  0.5326010000000  0.5236530000000 1.0
C      1  0.5054360000000  0.5365560000000  0.4624010000000 1.0
C      1  0.4623570000000  0.5372550000000  0.5148030000000 1.0
C      1  0.5293320000000  0.4680680000000  0.4757470000000 1.0
C      1  0.5064430000000  0.4648800000000  0.5429500000000 1.0
C      1  0.4725990000000  0.4722230000000  0.4872460000000 1.0
C      1  0.4876390000000  0.6044090000000  0.4871110000000 1.0
C      1  0.4951890000000  0.6053900000000  0.5190810000000 1.0
C      1  0.5171230000000  0.6055390000000  0.4965500000000 1.0
C      1  0.4867780000000  0.3911800000000  0.5157080000000 1.0
C      1  0.5018760000000  0.3931250000000  0.4904620000000 1.0
C      1  0.5242300000000  0.3855220000000  0.5073880000000 1.0
C      1  0.5937710000000  0.5486600000000  0.4712410000000 1.0
C      1  0.4216320000000  0.5540550000000  0.4299600000000 1.0
C      1  0.4811560000000  0.5497310000000  0.5993740000000 1.0
C      1  0.5893250000000  0.4557180000000  0.5291410000000 1.0
C      1  0.4250880000000  0.4540360000000  0.5602410000000 1.0
C      1  0.4785540000000  0.4415770000000  0.4030460000000 1.0
C      1  0.5909630000000  0.5117430000000  0.5100780000000 1.0
C      1  0.4598980000000  0.5122170000000  0.4112640000000 1.0
C      1  0.4450430000000  0.5129780000000  0.5780970000000 1.0
C      1  0.5913400000000  0.4903590000000  0.4895980000000 1.0
C      1  0.4605320000000  0.4890750000000  0.5856560000000 1.0
C      1  0.4427050000000  0.4902730000000  0.4197190000000 1.0
C      1  0.4931920000000  0.5814280000000  0.4498090000000 1.0
C      1  0.4588210000000  0.5806820000000  0.5236810000000 1.0
C      1  0.5449920000000  0.5790440000000  0.5297880000000 1.0
C      1  0.4969460000000  0.4094850000000  0.5547530000000 1.0
C      1  0.4640920000000  0.4236890000000  0.4623840000000 1.0
C      1  0.5417170000000  0.4225760000000  0.4733720000000 1.0
C      1  0.4405580000000  0.4432130000000  0.4256590000000 1.0
C      1  0.4690310000000  0.4413860000000  0.5786120000000 1.0
C      1  0.5874410000000  0.4413580000000  0.4831090000000 1.0
C      1  0.4437080000000  0.5625180000000  0.5708470000000 1.0
C      1  0.4658970000000  0.5597450000000  0.4104620000000 1.0
C      1  0.5927010000000  0.5626270000000  0.5189570000000 1.0
C      1  0.4634520000000  0.5087530000000  0.4647960000000 1.0
C      1  0.4887120000000  0.5114390000000  0.5470130000000 1.0
C      1  0.5468750000000  0.5130650000000  0.4876010000000 1.0
C      1  0.4661190000000  0.4919360000000  0.5358620000000 1.0
C      1  0.4869330000000  0.4916230000000  0.4494670000000 1.0
C      1  0.5465680000000  0.4849070000000  0.5127560000000 1.0
C      1  0.4886220000000  0.5071340000000  0.4210580000000 1.0
C      1  0.4354660000000  0.5046600000000  0.5501320000000 1.0
C      1  0.5709660000000  0.5026450000000  0.5320410000000 1.0
C      1  0.4907710000000  0.4955540000000  0.5824620000000 1.0
C      1  0.4365360000000  0.4937970000000  0.4497130000000 1.0
C      1  0.5701060000000  0.4970240000000  0.4677780000000 1.0
C      1  0.5590790000000  0.5738040000000  0.5718500000000 1.0
C      1  0.5264860000000  0.5749060000000  0.4117560000000 1.0
C      1  0.4128190000000  0.5710590000000  0.5153260000000 1.0
C      1  0.5553190000000  0.4269830000000  0.4310830000000 1.0
C      1  0.5304230000000  0.4281290000000  0.5840890000000 1.0
C      1  0.4202310000000  0.4349930000000  0.4837460000000 1.0
C      1  0.4577250000000  0.4491730000000  0.4491680000000 1.0
C      1  0.4704610000000  0.4189140000000  0.5606900000000 1.0
C      1  0.5622450000000  0.4306350000000  0.4940080000000 1.0
C      1  0.4658170000000  0.5703990000000  0.5524020000000 1.0
C      1  0.4755710000000  0.5581770000000  0.4390780000000 1.0
C      1  0.5661780000000  0.5717690000000  0.5091580000000 1.0
C      1  0.5266370000000  0.3898270000000  0.4459840000000 1.0
C      1  0.4432250000000  0.3952610000000  0.4963770000000 1.0
C      1  0.5399530000000  0.3909110000000  0.5543010000000 1.0
C      1  0.5281460000000  0.6092790000000  0.5591090000000 1.0
C      1  0.4378680000000  0.6060810000000  0.4932750000000 1.0
C      1  0.5339950000000  0.6036530000000  0.4495680000000 1.0
C      1  0.5263030000000  0.5625740000000  0.4929740000000 1.0
C      1  0.4881210000000  0.5602610000000  0.4873380000000 1.0
C      1  0.4984020000000  0.5615900000000  0.5193890000000 1.0
C      1  0.5187870000000  0.4287430000000  0.5108830000000 1.0
C      1  0.4822990000000  0.4343040000000  0.5211920000000 1.0
C      1  0.4977250000000  0.4368890000000  0.4873580000000 1.0
C      1  0.4249600000000  0.4789120000000  0.4987420000000 1.0
C      1  0.5374110000000  0.4869510000000  0.5718510000000 1.0
C      1  0.5376600000000  0.4872390000000  0.4323990000000 1.0
C      1  0.4242560000000  0.5086600000000  0.5039330000000 1.0
C      1  0.5343150000000  0.5156330000000  0.4294540000000 1.0
C      1  0.5397050000000  0.5151550000000  0.5688430000000 1.0
C      1  0.4586680000000  0.5612140000000  0.4989210000000 1.0
C      1  0.5238170000000  0.5581440000000  0.5369650000000 1.0
C      1  0.5245040000000  0.5621320000000  0.4624890000000 1.0
C      1  0.4617810000000  0.4453550000000  0.5003380000000 1.0
C      1  0.5193980000000  0.4425100000000  0.4673430000000 1.0
C      1  0.5208060000000  0.4376030000000  0.5417360000000 1.0
C      1  0.5063930000000  0.4876440000000  0.4749440000000 1.0
C      1  0.4659530000000  0.4941080000000  0.5059260000000 1.0
C      1  0.5183530000000  0.4851540000000  0.5229670000000 1.0
C      1  0.5071550000000  0.5122810000000  0.5217920000000 1.0
C      1  0.4798130000000  0.5185160000000  0.4992930000000 1.0
C      1  0.5180540000000  0.5140870000000  0.4786770000000 1.0
C      1  0.5993410000000  0.5601970000000  0.5456750000000 1.0
C      1  0.4843240000000  0.5619130000000  0.3896300000000 1.0
C      1  0.4187920000000  0.5565560000000  0.5609700000000 1.0
C      1  0.5948200000000  0.4420720000000  0.4565430000000 1.0
C      1  0.4864740000000  0.4426750000000  0.6001160000000 1.0
C      1  0.4140310000000  0.4420220000000  0.4336610000000 1.0
C      1  0.5239670000000  0.4713850000000  0.6136900000000 1.0
C      1  0.5802200000000  0.4721970000000  0.4229750000000 1.0
C      1  0.3929940000000  0.4720340000000  0.4643570000000 1.0
C      1  0.5200190000000  0.5273280000000  0.3886830000000 1.0
C      1  0.5824320000000  0.5281990000000  0.5761790000000 1.0
C      1  0.3924000000000  0.5272740000000  0.5333220000000 1.0
C      1  0.4936580000000  0.5326290000000  0.6186080000000 1.0
C      1  0.6016410000000  0.5321380000000  0.4488240000000 1.0
C      1  0.4034180000000  0.5323750000000  0.4349230000000 1.0
C      1  0.4902730000000  0.4645300000000  0.3897870000000 1.0
C      1  0.6033260000000  0.4684670000000  0.5508270000000 1.0
C      1  0.4001440000000  0.4670290000000  0.5630710000000 1.0
C      1  0.4588160000000  0.3971920000000  0.5189730000000 1.0
C      1  0.5432580000000  0.3959050000000  0.5265020000000 1.0
C      1  0.5022270000000  0.3923360000000  0.4601760000000 1.0
C      1  0.4599930000000  0.6032280000000  0.4759840000000 1.0
C      1  0.5393860000000  0.6013380000000  0.4770580000000 1.0
C      1  0.5026250000000  0.6033920000000  0.5483650000000 1.0
C      1  0.5756120000000  0.5516730000000  0.5586270000000 1.0
C      1  0.5086480000000  0.5528670000000  0.4013690000000 1.0
C      1  0.4151550000000  0.5475510000000  0.5344460000000 1.0
C      1  0.5712950000000  0.4505330000000  0.4426890000000 1.0
C      1  0.5123640000000  0.4514370000000  0.5927770000000 1.0
C      1  0.4061350000000  0.4466190000000  0.4600960000000 1.0
C      1  0.4551400000000  0.5898260000000  0.4497940000000 1.0
C      1  0.4847010000000  0.5889350000000  0.5663710000000 1.0
C      1  0.5661850000000  0.5904670000000  0.4854090000000 1.0
C      1  0.4492110000000  0.4141800000000  0.5408630000000 1.0
C      1  0.4824720000000  0.4081230000000  0.4452950000000 1.0
C      1  0.5668200000000  0.4105150000000  0.5159670000000 1.0
C      1  0.5591730000000  0.4998830000000  0.3904790000000 1.0
C      1  0.5635510000000  0.5004940000000  0.6100760000000 1.0
C      1  0.3772490000000  0.4979660000000  0.4989320000000 1.0
END
