TITL C-3578203-1966-655 -4.19355115752736e-08 125000 -565.736278541064 0 0 92 (C1) n - 1
REM
REM in /home/bkarasulu/work/CARBON/AIRSS/Generating-Clusters/EDIP-Nigel-Params/with-SteepDescent/Higher-Symm/SD-CG/HFTN-CG
REM
REM
REM
REM
REM
REM ./C.cell (12c818d87b63d06a65506943cc24bca4)
REM
REM compiler GCC version 9.2.1 20190827 (Red Hat 9.2.1-1)
REM options -cpp -mtune=generic -march=x86-64 -g -O0 -fpre-include=/usr/include/finclude/math-vector-fortran.h
REM seed 62250974 -2047670781 -56790372 -306677461 976794789 -25074388 -504279077 1282574473 617819961 124007634 -1807265816 1152787085 1855162240 366487084 875037591 -1861422194 -1292052631 1203721796 -1512975467 931158193 1068151380 -1948876138 1821856282 -88820182 -1766079734 1853533608 -1117332401 -1711548939 -926316639 -528962344 1659785021 -1501414288 555603079
REM
CELL 1.54180   50.00000   50.00000   50.00000   90.00000   90.00000   90.00000
LATT -1
SFAC C  
C      1  0.5449420000000  0.5580820000000  0.4451340000000 1.0
C      1  0.4605980000000  0.4440620000000  0.4426570000000 1.0
C      1  0.5449820000000  0.5575540000000  0.5543400000000 1.0
C      1  0.4605810000000  0.4440440000000  0.5573290000000 1.0
C      1  0.5315230000000  0.4469410000000  0.4303450000000 1.0
C      1  0.4560910000000  0.5594480000000  0.4440850000000 1.0
C      1  0.5314200000000  0.4466890000000  0.5698890000000 1.0
C      1  0.4563750000000  0.5593590000000  0.5556190000000 1.0
C      1  0.5316880000000  0.4470450000000  0.4843250000000 1.0
C      1  0.4711830000000  0.5503300000000  0.4844180000000 1.0
C      1  0.5319000000000  0.4467430000000  0.5160650000000 1.0
C      1  0.4712880000000  0.5502730000000  0.5152070000000 1.0
C      1  0.5281450000000  0.5468840000000  0.4844190000000 1.0
C      1  0.4745560000000  0.4449810000000  0.4844400000000 1.0
C      1  0.5282390000000  0.5467690000000  0.5148460000000 1.0
C      1  0.4746040000000  0.4449740000000  0.5155710000000 1.0
C      1  0.4841800000000  0.5216010000000  0.4841290000000 1.0
C      1  0.5173570000000  0.4787300000000  0.4830620000000 1.0
C      1  0.4842730000000  0.5214810000000  0.5152590000000 1.0
C      1  0.5177640000000  0.4783430000000  0.5161640000000 1.0
C      1  0.4875540000000  0.4733550000000  0.4842030000000 1.0
C      1  0.5139680000000  0.5169310000000  0.4824780000000 1.0
C      1  0.4878810000000  0.4732750000000  0.5157070000000 1.0
C      1  0.5140800000000  0.5167630000000  0.5166870000000 1.0
C      1  0.5333360000000  0.4737870000000  0.5656890000000 1.0
C      1  0.4583930000000  0.5314550000000  0.5646550000000 1.0
C      1  0.5332930000000  0.4740320000000  0.4346310000000 1.0
C      1  0.4580620000000  0.5315180000000  0.4351540000000 1.0
C      1  0.5409550000000  0.5304660000000  0.5648100000000 1.0
C      1  0.4640530000000  0.4729160000000  0.5629300000000 1.0
C      1  0.5409300000000  0.5307520000000  0.4353400000000 1.0
C      1  0.4639310000000  0.4729420000000  0.4370860000000 1.0
C      1  0.5943580000000  0.4827520000000  0.4838250000000 1.0
C      1  0.4034900000000  0.5147790000000  0.4844410000000 1.0
C      1  0.5944440000000  0.4826440000000  0.5163700000000 1.0
C      1  0.4035690000000  0.5147810000000  0.5156480000000 1.0
C      1  0.5957370000000  0.5134870000000  0.4846000000000 1.0
C      1  0.4049750000000  0.4836160000000  0.4842300000000 1.0
C      1  0.5958240000000  0.5133810000000  0.5157790000000 1.0
C      1  0.4050320000000  0.4836270000000  0.5158630000000 1.0
C      1  0.4816980000000  0.5745640000000  0.5546460000000 1.0
C      1  0.5190720000000  0.4245080000000  0.5597400000000 1.0
C      1  0.4814360000000  0.5746150000000  0.4449340000000 1.0
C      1  0.5192290000000  0.4247300000000  0.4404800000000 1.0
C      1  0.4814870000000  0.4240970000000  0.5558570000000 1.0
C      1  0.5206150000000  0.5742880000000  0.5537430000000 1.0
C      1  0.4816210000000  0.4242430000000  0.4441840000000 1.0
C      1  0.5203310000000  0.5743940000000  0.4457010000000 1.0
C      1  0.5178910000000  0.5201290000000  0.5786590000000 1.0
C      1  0.4840570000000  0.4902670000000  0.5774870000000 1.0
C      1  0.5177600000000  0.5203310000000  0.4217060000000 1.0
C      1  0.4839990000000  0.4903660000000  0.4226830000000 1.0
C      1  0.5139020000000  0.4914510000000  0.5785480000000 1.0
C      1  0.4795490000000  0.5192840000000  0.5797500000000 1.0
C      1  0.5138460000000  0.4916500000000  0.4217800000000 1.0
C      1  0.4794240000000  0.5193680000000  0.4203380000000 1.0
C      1  0.4260690000000  0.5275670000000  0.4704910000000 1.0
C      1  0.5695540000000  0.4727030000000  0.4706830000000 1.0
C      1  0.4262380000000  0.5275350000000  0.5294890000000 1.0
C      1  0.5697250000000  0.4724540000000  0.5296320000000 1.0
C      1  0.4287260000000  0.4728460000000  0.4703140000000 1.0
C      1  0.5727360000000  0.5257140000000  0.4708620000000 1.0
C      1  0.4288330000000  0.4728840000000  0.5296910000000 1.0
C      1  0.5728190000000  0.5254490000000  0.5295500000000 1.0
C      1  0.5647280000000  0.5539550000000  0.4722990000000 1.0
C      1  0.4374380000000  0.4450250000000  0.4722390000000 1.0
C      1  0.5651940000000  0.5537430000000  0.5283720000000 1.0
C      1  0.4375010000000  0.4450590000000  0.5278110000000 1.0
C      1  0.5609530000000  0.4463910000000  0.4780000000000 1.0
C      1  0.4343810000000  0.5557680000000  0.4719370000000 1.0
C      1  0.5611760000000  0.4461260000000  0.5222340000000 1.0
C      1  0.4345780000000  0.5557270000000  0.5280460000000 1.0
C      1  0.5147470000000  0.5715820000000  0.5254660000000 1.0
C      1  0.4888310000000  0.4217460000000  0.5277200000000 1.0
C      1  0.5145770000000  0.5717110000000  0.4740180000000 1.0
C      1  0.4888480000000  0.4218170000000  0.4723340000000 1.0
C      1  0.5177820000000  0.4237280000000  0.5303410000000 1.0
C      1  0.4862230000000  0.5732200000000  0.5261620000000 1.0
C      1  0.5177920000000  0.4239650000000  0.4698950000000 1.0
C      1  0.4860500000000  0.5733040000000  0.4734160000000 1.0
C      1  0.5570290000000  0.4849040000000  0.5527420000000 1.0
C      1  0.4391050000000  0.5148370000000  0.5515830000000 1.0
C      1  0.5568980000000  0.4852170000000  0.4476270000000 1.0
C      1  0.4389010000000  0.5148470000000  0.4483840000000 1.0
C      1  0.5601360000000  0.5131970000000  0.5523000000000 1.0
C      1  0.4408700000000  0.4864140000000  0.5519770000000 1.0
C      1  0.5599100000000  0.5134980000000  0.4481860000000 1.0
C      1  0.4407100000000  0.4864060000000  0.4480070000000 1.0
C      1  0.4345970000000  0.5655640000000  0.4999970000000 1.0
C      1  0.5750510000000  0.4356420000000  0.4999920000000 1.0
C      1  0.5637830000000  0.5641470000000  0.5004930000000 1.0
C      1  0.4360340000000  0.4354310000000  0.5000400000000 1.0
END
