TITL C-3578209-2550-94 -2.1680015030039e-06 125000 -557.259277779486 0 0 91 (C1) n - 1
REM
REM in /home/bkarasulu/work/CARBON/AIRSS/Generating-Clusters/EDIP-Nigel-Params/with-SteepDescent/Higher-Symm/SD-CG/HFTN-CG
REM
REM
REM
REM
REM
REM ./C.cell (12c818d87b63d06a65506943cc24bca4)
REM
REM compiler GCC version 9.2.1 20190827 (Red Hat 9.2.1-1)
REM options -cpp -mtune=generic -march=x86-64 -g -O0 -fpre-include=/usr/include/finclude/math-vector-fortran.h
REM seed 1033347779 -199163747 -1609458604 -463928194 934517954 1870998266 381800760 -500514811 -331253230 -1378935626 794961555 2061614600 397265363 -745522499 610189051 1911196546 1750625729 -1739384925 -527986247 -2007789131 1706204425 -588415027 -1778351936 1838336405 -340347091 1599493852 1916546633 5917561 -59377626 -268835285 -1032725121 635266402 1278491972
REM
CELL 1.54180   50.00000   50.00000   50.00000   90.00000   90.00000   90.00000
LATT -1
SFAC C  
C      1  0.5319280000000  0.5783950000000  0.4825100000000 1.0
C      1  0.4379570000000  0.5600790000000  0.4985980000000 1.0
C      1  0.4435950000000  0.4499860000000  0.4837520000000 1.0
C      1  0.5110230000000  0.4239950000000  0.4859550000000 1.0
C      1  0.5830920000000  0.4888600000000  0.4839670000000 1.0
C      1  0.5299340000000  0.5791700000000  0.5143130000000 1.0
C      1  0.4281060000000  0.5455070000000  0.5204470000000 1.0
C      1  0.4391820000000  0.4481730000000  0.5130820000000 1.0
C      1  0.5113760000000  0.4209590000000  0.5177250000000 1.0
C      1  0.5826730000000  0.4898970000000  0.5151800000000 1.0
C      1  0.5538060000000  0.4414190000000  0.5207080000000 1.0
C      1  0.5760900000000  0.5373160000000  0.5173620000000 1.0
C      1  0.4815520000000  0.5869820000000  0.5162840000000 1.0
C      1  0.4095860000000  0.5050040000000  0.5378800000000 1.0
C      1  0.4679580000000  0.4228380000000  0.5405060000000 1.0
C      1  0.5534110000000  0.4424690000000  0.4817710000000 1.0
C      1  0.5767530000000  0.5365730000000  0.4786100000000 1.0
C      1  0.4835840000000  0.5836120000000  0.4778040000000 1.0
C      1  0.4255240000000  0.5210070000000  0.4729170000000 1.0
C      1  0.4754070000000  0.4238420000000  0.4605160000000 1.0
C      1  0.5144490000000  0.4798360000000  0.4294550000000 1.0
C      1  0.5270870000000  0.5064220000000  0.4330430000000 1.0
C      1  0.5060890000000  0.5272520000000  0.4305360000000 1.0
C      1  0.4809470000000  0.5131140000000  0.4292490000000 1.0
C      1  0.4859330000000  0.4846680000000  0.4244010000000 1.0
C      1  0.5129090000000  0.4824080000000  0.5695280000000 1.0
C      1  0.5237470000000  0.5088530000000  0.5623760000000 1.0
C      1  0.5016820000000  0.5291410000000  0.5649240000000 1.0
C      1  0.4763280000000  0.5153120000000  0.5719330000000 1.0
C      1  0.4843870000000  0.4866620000000  0.5758890000000 1.0
C      1  0.4312500000000  0.5108740000000  0.4457240000000 1.0
C      1  0.4785070000000  0.4362230000000  0.4348590000000 1.0
C      1  0.5479850000000  0.4472630000000  0.4531770000000 1.0
C      1  0.5661260000000  0.5340450000000  0.4516830000000 1.0
C      1  0.4826120000000  0.5653040000000  0.4553640000000 1.0
C      1  0.4314870000000  0.5002210000000  0.5546930000000 1.0
C      1  0.4748110000000  0.4366930000000  0.5647690000000 1.0
C      1  0.5495980000000  0.4491280000000  0.5487950000000 1.0
C      1  0.5641470000000  0.5355830000000  0.5435650000000 1.0
C      1  0.4793400000000  0.5712620000000  0.5403690000000 1.0
C      1  0.5193470000000  0.4521790000000  0.4426530000000 1.0
C      1  0.5554860000000  0.5071100000000  0.4433310000000 1.0
C      1  0.5085030000000  0.5549320000000  0.4423420000000 1.0
C      1  0.4554730000000  0.5264930000000  0.4359260000000 1.0
C      1  0.4665730000000  0.4641650000000  0.4342390000000 1.0
C      1  0.5210610000000  0.4539570000000  0.5591770000000 1.0
C      1  0.5529180000000  0.5098420000000  0.5535290000000 1.0
C      1  0.5016390000000  0.5547440000000  0.5493160000000 1.0
C      1  0.4554480000000  0.5181660000000  0.5499510000000 1.0
C      1  0.4637460000000  0.4643120000000  0.5727630000000 1.0
C      1  0.5563230000000  0.4889440000000  0.5306270000000 1.0
C      1  0.5262260000000  0.5548950000000  0.5327850000000 1.0
C      1  0.4435330000000  0.5454790000000  0.5451130000000 1.0
C      1  0.4559290000000  0.4627820000000  0.5340630000000 1.0
C      1  0.5040670000000  0.4456090000000  0.5340920000000 1.0
C      1  0.5569290000000  0.4876920000000  0.4687990000000 1.0
C      1  0.5283750000000  0.5529430000000  0.4657870000000 1.0
C      1  0.4476810000000  0.5388960000000  0.4809820000000 1.0
C      1  0.4539770000000  0.4732690000000  0.4662940000000 1.0
C      1  0.5025980000000  0.4498840000000  0.4679680000000 1.0
C      1  0.5029310000000  0.4338080000000  0.5713600000000 1.0
C      1  0.5636670000000  0.4725570000000  0.5546090000000 1.0
C      1  0.5482020000000  0.5564120000000  0.5513520000000 1.0
C      1  0.4550990000000  0.5693970000000  0.5534720000000 1.0
C      1  0.4378800000000  0.4722180000000  0.5574880000000 1.0
C      1  0.5054690000000  0.4331250000000  0.4253180000000 1.0
C      1  0.5633270000000  0.4693750000000  0.4453660000000 1.0
C      1  0.5476550000000  0.5537910000000  0.4443110000000 1.0
C      1  0.4580350000000  0.5494760000000  0.4545950000000 1.0
C      1  0.4346750000000  0.4823610000000  0.4448670000000 1.0
C      1  0.5094830000000  0.5212860000000  0.5227960000000 1.0
C      1  0.4733320000000  0.5101730000000  0.5243830000000 1.0
C      1  0.4758430000000  0.4812650000000  0.5218190000000 1.0
C      1  0.5029800000000  0.4719450000000  0.5208240000000 1.0
C      1  0.5247600000000  0.4935190000000  0.5157060000000 1.0
C      1  0.5209390000000  0.5260670000000  0.4801010000000 1.0
C      1  0.4717180000000  0.5191300000000  0.4933490000000 1.0
C      1  0.4750850000000  0.4920030000000  0.4786580000000 1.0
C      1  0.5015710000000  0.4793650000000  0.4773660000000 1.0
C      1  0.5266520000000  0.4958430000000  0.4848960000000 1.0
C      1  0.5966100000000  0.5178020000000  0.5140640000000 1.0
C      1  0.5068710000000  0.5997560000000  0.5117720000000 1.0
C      1  0.4135320000000  0.5210960000000  0.5156530000000 1.0
C      1  0.4514900000000  0.4221020000000  0.5173760000000 1.0
C      1  0.5421140000000  0.4158280000000  0.5158030000000 1.0
C      1  0.5969560000000  0.5169150000000  0.4836320000000 1.0
C      1  0.5081990000000  0.5983480000000  0.4811100000000 1.0
C      1  0.4042420000000  0.5145390000000  0.4900400000000 1.0
C      1  0.4545440000000  0.4236410000000  0.4796750000000 1.0
C      1  0.5410150000000  0.4174050000000  0.4854930000000 1.0
C      1  0.4987820000000  0.5331240000000  0.4969260000000 1.0
END
