TITL C-3578202-4305-418 -3.73299663345291e-06 125000 -1208.76603046735 0 0 196 (C1) n - 1
REM
REM in /home/bkarasulu/work/CARBON/AIRSS/Generating-Clusters/EDIP-Nigel-Params/with-SteepDescent/Higher-Symm/SD-CG/HFTN-CG
REM
REM
REM
REM
REM
REM ./C.cell (12c818d87b63d06a65506943cc24bca4)
REM
REM compiler GCC version 9.2.1 20190827 (Red Hat 9.2.1-1)
REM options -cpp -mtune=generic -march=x86-64 -g -O0 -fpre-include=/usr/include/finclude/math-vector-fortran.h
REM seed -45596644 1371756333 89622018 1711328279 -524142880 847545291 -3796613 1626226653 1683001404 -572070742 -790150948 2011548032 161213946 -788691949 1063087157 1915397251 -692469384 389815399 -1603933405 -1268501249 -1876274889 963818500 1542491653 130915376 -938367690 437973715 -2002232166 -1098583071 2106809423 -2087423183 1729861678 955995284 1495145561
REM
CELL 1.54180   50.00000   50.00000   50.00000   90.00000   90.00000   90.00000
LATT -1
SFAC C  
C      1  0.5865410000000  0.5484110000000  0.5652900000000 1.0
C      1  0.5402490000000  0.5622920000000  0.5798520000000 1.0
C      1  0.5622870000000  0.5844400000000  0.5413340000000 1.0
C      1  0.5856460000000  0.4529670000000  0.4369450000000 1.0
C      1  0.4141790000000  0.5465560000000  0.4369440000000 1.0
C      1  0.4178090000000  0.4581220000000  0.5606390000000 1.0
C      1  0.5461570000000  0.4313770000000  0.4141920000000 1.0
C      1  0.4580310000000  0.5627410000000  0.4186660000000 1.0
C      1  0.4549250000000  0.4346450000000  0.5824920000000 1.0
C      1  0.5666120000000  0.4114610000000  0.4559640000000 1.0
C      1  0.4374720000000  0.5845900000000  0.4593080000000 1.0
C      1  0.4315880000000  0.4115000000000  0.5456260000000 1.0
C      1  0.5866750000000  0.5690370000000  0.5448180000000 1.0
C      1  0.5450700000000  0.5866530000000  0.5641900000000 1.0
C      1  0.5615500000000  0.5427620000000  0.5796620000000 1.0
C      1  0.5877220000000  0.4315700000000  0.4560840000000 1.0
C      1  0.4162960000000  0.4364130000000  0.5416710000000 1.0
C      1  0.4163010000000  0.5642480000000  0.4593930000000 1.0
C      1  0.5449090000000  0.4133290000000  0.4367220000000 1.0
C      1  0.4523570000000  0.4109420000000  0.5659780000000 1.0
C      1  0.4570350000000  0.5846400000000  0.4383720000000 1.0
C      1  0.5659160000000  0.4522940000000  0.4156270000000 1.0
C      1  0.4327740000000  0.4526680000000  0.5850730000000 1.0
C      1  0.4369280000000  0.5432040000000  0.4184850000000 1.0
C      1  0.4977390000000  0.5513370000000  0.3899270000000 1.0
C      1  0.5512950000000  0.3947810000000  0.5031750000000 1.0
C      1  0.3932750000000  0.4989950000000  0.5469900000000 1.0
C      1  0.4973290000000  0.4517140000000  0.6054890000000 1.0
C      1  0.5010520000000  0.5470210000000  0.6071130000000 1.0
C      1  0.4998250000000  0.4483320000000  0.3938490000000 1.0
C      1  0.5451240000000  0.6089150000000  0.4995430000000 1.0
C      1  0.4431370000000  0.3950090000000  0.4992840000000 1.0
C      1  0.4539250000000  0.6067720000000  0.5013420000000 1.0
C      1  0.3929000000000  0.5024330000000  0.4507140000000 1.0
C      1  0.6021580000000  0.5034540000000  0.4565550000000 1.0
C      1  0.6060950000000  0.5022860000000  0.5547120000000 1.0
C      1  0.4996140000000  0.3933270000000  0.5549240000000 1.0
C      1  0.5443240000000  0.5007050000000  0.3974930000000 1.0
C      1  0.3933580000000  0.5496570000000  0.5015030000000 1.0
C      1  0.5000610000000  0.6081550000000  0.4497520000000 1.0
C      1  0.4995160000000  0.6031500000000  0.5494620000000 1.0
C      1  0.4951210000000  0.3955630000000  0.4486470000000 1.0
C      1  0.5499190000000  0.5024120000000  0.6088830000000 1.0
C      1  0.4480340000000  0.5028210000000  0.3907350000000 1.0
C      1  0.4509300000000  0.4970370000000  0.6032350000000 1.0
C      1  0.3909860000000  0.4541630000000  0.5007370000000 1.0
C      1  0.6064260000000  0.4504760000000  0.5022100000000 1.0
C      1  0.6050240000000  0.5566110000000  0.4992080000000 1.0
C      1  0.4760460000000  0.4051680000000  0.4291860000000 1.0
C      1  0.3979000000000  0.4347150000000  0.4803940000000 1.0
C      1  0.4266390000000  0.4856680000000  0.4001810000000 1.0
C      1  0.4831250000000  0.5946630000000  0.5715250000000 1.0
C      1  0.5184120000000  0.4044310000000  0.5738340000000 1.0
C      1  0.5155250000000  0.6009630000000  0.4266280000000 1.0
C      1  0.4043790000000  0.5703980000000  0.5182130000000 1.0
C      1  0.5971500000000  0.4330060000000  0.5231700000000 1.0
C      1  0.5926170000000  0.5743650000000  0.4802940000000 1.0
C      1  0.4301090000000  0.5150640000000  0.5951110000000 1.0
C      1  0.5709220000000  0.4835370000000  0.6030870000000 1.0
C      1  0.5577370000000  0.5251730000000  0.3973040000000 1.0
C      1  0.4773760000000  0.4316430000000  0.4006520000000 1.0
C      1  0.3995110000000  0.4859820000000  0.4280390000000 1.0
C      1  0.4252680000000  0.4071490000000  0.4803460000000 1.0
C      1  0.4821810000000  0.5673090000000  0.5991370000000 1.0
C      1  0.5152560000000  0.5720040000000  0.4006040000000 1.0
C      1  0.5179290000000  0.4316800000000  0.6016020000000 1.0
C      1  0.4025440000000  0.5167860000000  0.5677600000000 1.0
C      1  0.5997690000000  0.5270190000000  0.4414070000000 1.0
C      1  0.5975640000000  0.4835540000000  0.5747500000000 1.0
C      1  0.4332300000000  0.5965540000000  0.5187150000000 1.0
C      1  0.5654240000000  0.6022130000000  0.4799550000000 1.0
C      1  0.5692630000000  0.4057850000000  0.5227890000000 1.0
C      1  0.4389770000000  0.5820320000000  0.5431900000000 1.0
C      1  0.5816150000000  0.5473730000000  0.4356670000000 1.0
C      1  0.5443410000000  0.4365660000000  0.5902350000000 1.0
C      1  0.4322050000000  0.4210840000000  0.4560200000000 1.0
C      1  0.5590390000000  0.5881920000000  0.4550300000000 1.0
C      1  0.5621640000000  0.4200400000000  0.5468800000000 1.0
C      1  0.5848250000000  0.4580970000000  0.5697050000000 1.0
C      1  0.4177150000000  0.5408180000000  0.5613950000000 1.0
C      1  0.4114100000000  0.4600410000000  0.4329390000000 1.0
C      1  0.5410140000000  0.5671710000000  0.4136930000000 1.0
C      1  0.4531200000000  0.4401030000000  0.4145030000000 1.0
C      1  0.4577750000000  0.5607140000000  0.5844170000000 1.0
C      1  0.4371580000000  0.5401230000000  0.5823530000000 1.0
C      1  0.5823620000000  0.4404060000000  0.5469510000000 1.0
C      1  0.5413030000000  0.5889720000000  0.4320360000000 1.0
C      1  0.4316230000000  0.4597300000000  0.4125560000000 1.0
C      1  0.5640140000000  0.4585850000000  0.5893480000000 1.0
C      1  0.5615910000000  0.5467990000000  0.4142060000000 1.0
C      1  0.5799390000000  0.5687540000000  0.4549160000000 1.0
C      1  0.4171820000000  0.5635370000000  0.5433030000000 1.0
C      1  0.4125130000000  0.4418080000000  0.4559180000000 1.0
C      1  0.5446980000000  0.4161630000000  0.5698690000000 1.0
C      1  0.4514490000000  0.4194570000000  0.4343650000000 1.0
C      1  0.4580030000000  0.5817620000000  0.5651120000000 1.0
C      1  0.5434570000000  0.5228410000000  0.4920320000000 1.0
C      1  0.5249210000000  0.4909790000000  0.5441710000000 1.0
C      1  0.5013730000000  0.5358560000000  0.5183250000000 1.0
C      1  0.5435390000000  0.4750050000000  0.5046500000000 1.0
C      1  0.4547720000000  0.5295590000000  0.5106690000000 1.0
C      1  0.4531630000000  0.4678780000000  0.4884620000000 1.0
C      1  0.5326860000000  0.5092740000000  0.4462470000000 1.0
C      1  0.4692910000000  0.4867990000000  0.4502930000000 1.0
C      1  0.4819770000000  0.4985280000000  0.5371500000000 1.0
C      1  0.4875520000000  0.4466740000000  0.4651990000000 1.0
C      1  0.5072790000000  0.5428570000000  0.4725060000000 1.0
C      1  0.5157490000000  0.4460560000000  0.5341830000000 1.0
C      1  0.5483710000000  0.4873950000000  0.5293180000000 1.0
C      1  0.5328900000000  0.5483560000000  0.4846550000000 1.0
C      1  0.4904540000000  0.5254510000000  0.5427140000000 1.0
C      1  0.5531010000000  0.5103680000000  0.4664290000000 1.0
C      1  0.4593910000000  0.5025230000000  0.5204080000000 1.0
C      1  0.4602250000000  0.4944820000000  0.4766800000000 1.0
C      1  0.5216980000000  0.4558480000000  0.5072750000000 1.0
C      1  0.4776080000000  0.4538660000000  0.4927950000000 1.0
C      1  0.4771290000000  0.5452840000000  0.5051620000000 1.0
C      1  0.4955210000000  0.4729560000000  0.4548110000000 1.0
C      1  0.5150640000000  0.4658570000000  0.5549720000000 1.0
C      1  0.5077950000000  0.5229890000000  0.4524410000000 1.0
C      1  0.5632250000000  0.5320830000000  0.5126670000000 1.0
C      1  0.5338620000000  0.5127490000000  0.5624160000000 1.0
C      1  0.5165400000000  0.5588660000000  0.5303810000000 1.0
C      1  0.5660120000000  0.4699400000000  0.4882900000000 1.0
C      1  0.4381440000000  0.5372520000000  0.4868370000000 1.0
C      1  0.4387980000000  0.4609510000000  0.5135180000000 1.0
C      1  0.5403520000000  0.4809450000000  0.4361170000000 1.0
C      1  0.4623490000000  0.5120470000000  0.4358940000000 1.0
C      1  0.4690400000000  0.4834640000000  0.5590910000000 1.0
C      1  0.5138160000000  0.4328770000000  0.4606040000000 1.0
C      1  0.4874750000000  0.5612800000000  0.4610240000000 1.0
C      1  0.4891480000000  0.4329510000000  0.5374060000000 1.0
C      1  0.5625560000000  0.5122980000000  0.5358030000000 1.0
C      1  0.5390650000000  0.5631900000000  0.5103590000000 1.0
C      1  0.5124450000000  0.5343090000000  0.5612110000000 1.0
C      1  0.5645430000000  0.4822370000000  0.4611190000000 1.0
C      1  0.4397070000000  0.4851650000000  0.5330110000000 1.0
C      1  0.4387460000000  0.5137760000000  0.4675350000000 1.0
C      1  0.5252420000000  0.4325730000000  0.4886230000000 1.0
C      1  0.4687840000000  0.4347970000000  0.5140050000000 1.0
C      1  0.4669540000000  0.5629880000000  0.4835340000000 1.0
C      1  0.5149010000000  0.4639710000000  0.4348510000000 1.0
C      1  0.4864530000000  0.4589260000000  0.5641140000000 1.0
C      1  0.4860370000000  0.5322530000000  0.4349100000000 1.0
C      1  0.3908660000000  0.5308240000000  0.4452620000000 1.0
C      1  0.5244480000000  0.4352730000000  0.3968930000000 1.0
C      1  0.4324350000000  0.3928990000000  0.5249380000000 1.0
C      1  0.3921140000000  0.4710930000000  0.5548830000000 1.0
C      1  0.6060490000000  0.5285820000000  0.5639120000000 1.0
C      1  0.5986440000000  0.4782590000000  0.4427340000000 1.0
C      1  0.5288270000000  0.5561020000000  0.6064220000000 1.0
C      1  0.4701080000000  0.4421120000000  0.6063420000000 1.0
C      1  0.4694460000000  0.5576680000000  0.3920680000000 1.0
C      1  0.4456230000000  0.6088560000000  0.4737120000000 1.0
C      1  0.5630130000000  0.3945130000000  0.4777790000000 1.0
C      1  0.5542300000000  0.6090870000000  0.5271870000000 1.0
C      1  0.3909410000000  0.4442480000000  0.5282350000000 1.0
C      1  0.5218910000000  0.3975940000000  0.4399800000000 1.0
C      1  0.4418790000000  0.5312540000000  0.3920170000000 1.0
C      1  0.3917100000000  0.5570310000000  0.4736440000000 1.0
C      1  0.6057350000000  0.5678230000000  0.5246020000000 1.0
C      1  0.6048230000000  0.4366690000000  0.4777290000000 1.0
C      1  0.5274660000000  0.6081700000000  0.5549950000000 1.0
C      1  0.4715930000000  0.6091490000000  0.4453230000000 1.0
C      1  0.4734240000000  0.3928090000000  0.5644060000000 1.0
C      1  0.4428590000000  0.4695850000000  0.6069200000000 1.0
C      1  0.5600080000000  0.4772770000000  0.4026340000000 1.0
C      1  0.5567690000000  0.5306860000000  0.6061790000000 1.0
C      1  0.5225660000000  0.5890700000000  0.4986820000000 1.0
C      1  0.5905590000000  0.5011590000000  0.5289850000000 1.0
C      1  0.5000230000000  0.5240750000000  0.5878120000000 1.0
C      1  0.5225980000000  0.4059770000000  0.5024310000000 1.0
C      1  0.4783000000000  0.5890670000000  0.4996640000000 1.0
C      1  0.4708870000000  0.4067590000000  0.5009960000000 1.0
C      1  0.6017280000000  0.5033490000000  0.4862680000000 1.0
C      1  0.4121130000000  0.4986620000000  0.4734990000000 1.0
C      1  0.4122560000000  0.4999720000000  0.5237080000000 1.0
C      1  0.5001070000000  0.4738990000000  0.4096020000000 1.0
C      1  0.4988680000000  0.5255910000000  0.4058930000000 1.0
C      1  0.5002390000000  0.4802640000000  0.5941040000000 1.0
C      1  0.5277790000000  0.4977090000000  0.5895220000000 1.0
C      1  0.5928990000000  0.5289670000000  0.5021270000000 1.0
C      1  0.4973850000000  0.5840220000000  0.5266100000000 1.0
C      1  0.5149560000000  0.4993350000000  0.3988610000000 1.0
C      1  0.4751780000000  0.4983750000000  0.5854780000000 1.0
C      1  0.4720920000000  0.5003970000000  0.4084270000000 1.0
C      1  0.5918080000000  0.4777930000000  0.5015490000000 1.0
C      1  0.4112390000000  0.4763510000000  0.5002020000000 1.0
C      1  0.4118020000000  0.5260930000000  0.5007660000000 1.0
C      1  0.4931050000000  0.4047380000000  0.4775900000000 1.0
C      1  0.4993840000000  0.4054520000000  0.5276100000000 1.0
C      1  0.5033020000000  0.5870950000000  0.4706840000000 1.0
C      1  0.4972080000000  0.4732990000000  0.5042530000000 1.0
C      1  0.4873710000000  0.5069120000000  0.4873620000000 1.0
C      1  0.5105310000000  0.4869890000000  0.4775100000000 1.0
C      1  0.5188540000000  0.5111230000000  0.5066240000000 1.0
END
