TITL C-3577080-309-61 -6.1289710384598e-07 125000 -265.962504914431 0 0 44 (C1) n - 1
REM
REM in /home/bkarasulu/work/CARBON/AIRSS/Generating-Clusters/EDIP-Nigel-Params/with-SteepDescent/Higher-Symm/SD-CG/HFTN-CG
REM
REM
REM
REM
REM
REM ./C.cell (12c818d87b63d06a65506943cc24bca4)
REM
REM compiler GCC version 9.2.1 20190827 (Red Hat 9.2.1-1)
REM options -cpp -mtune=generic -march=x86-64 -g -O0 -fpre-include=/usr/include/finclude/math-vector-fortran.h
REM seed -1827911729 -1875184753 -383417249 1855650066 1497034803 256021875 1800575918 -1848526214 518688999 -274438834 -1160655855 -1903348661 659418028 1421119665 1194677251 1419911403 -533457722 -647110981 1245773580 -1700791294 -15264836 1261707903 -218045553 1058228473 -1909645250 -1068826666 -1216779715 -840471736 154515211 1190037749 153270942 1655292337 -1334800804
REM
CELL 1.54180   50.00000   50.00000   50.00000   90.00000   90.00000   90.00000
LATT -1
SFAC C  
C      1  0.5130440000000  0.4645110000000  0.5591760000000 1.0
C      1  0.5347730000000  0.5150540000000  0.5582470000000 1.0
C      1  0.4889370000000  0.5339710000000  0.5554620000000 1.0
C      1  0.4684630000000  0.4871480000000  0.5533630000000 1.0
C      1  0.5618490000000  0.4977080000000  0.4463350000000 1.0
C      1  0.5027540000000  0.5629030000000  0.4467240000000 1.0
C      1  0.4371870000000  0.5031100000000  0.4456870000000 1.0
C      1  0.4954430000000  0.4344840000000  0.4473540000000 1.0
C      1  0.5575370000000  0.5143940000000  0.4685680000000 1.0
C      1  0.4851050000000  0.5580000000000  0.4681700000000 1.0
C      1  0.4412840000000  0.4850180000000  0.4669330000000 1.0
C      1  0.5147540000000  0.4407430000000  0.4668790000000 1.0
C      1  0.5246210000000  0.5475450000000  0.4512770000000 1.0
C      1  0.4536200000000  0.5241490000000  0.4505810000000 1.0
C      1  0.4742580000000  0.4507100000000  0.4519490000000 1.0
C      1  0.5461980000000  0.4759040000000  0.4497550000000 1.0
C      1  0.4472040000000  0.4821720000000  0.5346210000000 1.0
C      1  0.5216790000000  0.4557220000000  0.5321850000000 1.0
C      1  0.5528640000000  0.5162570000000  0.5360020000000 1.0
C      1  0.4799820000000  0.5533190000000  0.5356960000000 1.0
C      1  0.4828480000000  0.5093870000000  0.5413630000000 1.0
C      1  0.4843130000000  0.4633210000000  0.5552560000000 1.0
C      1  0.5237860000000  0.4899780000000  0.5651830000000 1.0
C      1  0.5172170000000  0.5376410000000  0.5588960000000 1.0
C      1  0.4349860000000  0.4967030000000  0.4915430000000 1.0
C      1  0.5060110000000  0.4344900000000  0.4927210000000 1.0
C      1  0.5635260000000  0.5022030000000  0.4929450000000 1.0
C      1  0.4961120000000  0.5648630000000  0.4928590000000 1.0
C      1  0.5318220000000  0.5278960000000  0.4697330000000 1.0
C      1  0.4736900000000  0.5312020000000  0.4686660000000 1.0
C      1  0.4679050000000  0.4730970000000  0.4673140000000 1.0
C      1  0.5246060000000  0.4682550000000  0.4657150000000 1.0
C      1  0.4762490000000  0.4640410000000  0.5173080000000 1.0
C      1  0.5292690000000  0.4792090000000  0.5156640000000 1.0
C      1  0.5228190000000  0.5349440000000  0.5205620000000 1.0
C      1  0.4674870000000  0.5213400000000  0.5185520000000 1.0
C      1  0.5546640000000  0.4939870000000  0.5180920000000 1.0
C      1  0.5028300000000  0.5577450000000  0.5187820000000 1.0
C      1  0.4426170000000  0.5042920000000  0.5171000000000 1.0
C      1  0.4984030000000  0.4430220000000  0.5183040000000 1.0
C      1  0.5158950000000  0.5190930000000  0.4939700000000 1.0
C      1  0.4832580000000  0.5151520000000  0.4927030000000 1.0
C      1  0.4831590000000  0.4814360000000  0.4919050000000 1.0
C      1  0.5149720000000  0.4838790000000  0.4899010000000 1.0
END
