TITL C-3577087-600-752 -1.96028387152737e-06 125000 -425.075574814352 0 0 71 (C1) n - 1
REM
REM in /home/bkarasulu/work/CARBON/AIRSS/Generating-Clusters/EDIP-Nigel-Params/with-SteepDescent/Higher-Symm/SD-CG/HFTN-CG
REM
REM
REM
REM
REM
REM ./C.cell (12c818d87b63d06a65506943cc24bca4)
REM
REM compiler GCC version 9.2.1 20190827 (Red Hat 9.2.1-1)
REM options -cpp -mtune=generic -march=x86-64 -g -O0 -fpre-include=/usr/include/finclude/math-vector-fortran.h
REM seed -1071520332 -1546704672 1801926675 1952829183 -1614354452 -1781364054 -1668460869 1289888017 387725249 977327670 1841182119 537086302 -1508277922 -1571741208 -1088631236 1924804852 -343079176 2036076628 -1839052247 -1714666154 435831124 1505489305 2135258929 2097328687 -138165816 -2068026564 2095272468 -1204143924 1913352981 37487099 -1986126865 -513460385 -1812124371
REM
CELL 1.54180   50.00000   50.00000   50.00000   90.00000   90.00000   90.00000
LATT -1
SFAC C  
C      1  0.5448710000000  0.5619150000000  0.5192890000000 1.0
C      1  0.5209650000000  0.4382100000000  0.4544070000000 1.0
C      1  0.4548630000000  0.5617240000000  0.4797620000000 1.0
C      1  0.4811600000000  0.4378850000000  0.5443490000000 1.0
C      1  0.4977150000000  0.5395470000000  0.4751030000000 1.0
C      1  0.4773580000000  0.4585170000000  0.5019600000000 1.0
C      1  0.5025160000000  0.5411740000000  0.5228300000000 1.0
C      1  0.5251690000000  0.4606190000000  0.4972290000000 1.0
C      1  0.4601180000000  0.4787130000000  0.4329110000000 1.0
C      1  0.4340100000000  0.5207240000000  0.5405900000000 1.0
C      1  0.5401590000000  0.4798710000000  0.5672260000000 1.0
C      1  0.5679090000000  0.5208620000000  0.4596710000000 1.0
C      1  0.4339770000000  0.4618290000000  0.4749170000000 1.0
C      1  0.4763010000000  0.5367300000000  0.5662740000000 1.0
C      1  0.5669120000000  0.4617330000000  0.5264740000000 1.0
C      1  0.5266340000000  0.5390230000000  0.4331350000000 1.0
C      1  0.4395580000000  0.4387300000000  0.4900970000000 1.0
C      1  0.4913450000000  0.5600840000000  0.5612490000000 1.0
C      1  0.5601520000000  0.4377380000000  0.5131660000000 1.0
C      1  0.5133330000000  0.5629140000000  0.4402410000000 1.0
C      1  0.5131830000000  0.5184360000000  0.4197860000000 1.0
C      1  0.4197390000000  0.4829030000000  0.4864570000000 1.0
C      1  0.4865880000000  0.5163910000000  0.5823930000000 1.0
C      1  0.5804570000000  0.4823170000000  0.5132310000000 1.0
C      1  0.5623920000000  0.4914880000000  0.4695880000000 1.0
C      1  0.4696500000000  0.5082190000000  0.4377670000000 1.0
C      1  0.4384560000000  0.4913360000000  0.5302160000000 1.0
C      1  0.5297970000000  0.5090630000000  0.5618590000000 1.0
C      1  0.5010970000000  0.4998150000000  0.5649830000000 1.0
C      1  0.5647990000000  0.5003600000000  0.4984330000000 1.0
C      1  0.4985720000000  0.4999150000000  0.4350510000000 1.0
C      1  0.4354840000000  0.5004970000000  0.5016150000000 1.0
C      1  0.4735200000000  0.5360760000000  0.5157920000000 1.0
C      1  0.5172540000000  0.4641550000000  0.5264680000000 1.0
C      1  0.5270140000000  0.5360680000000  0.4828400000000 1.0
C      1  0.4844650000000  0.4635020000000  0.4729040000000 1.0
C      1  0.4446410000000  0.5403560000000  0.4641430000000 1.0
C      1  0.4644670000000  0.4585000000000  0.5543410000000 1.0
C      1  0.5549470000000  0.5411250000000  0.5357400000000 1.0
C      1  0.5362380000000  0.4597010000000  0.4440040000000 1.0
C      1  0.4494310000000  0.5532950000000  0.5075990000000 1.0
C      1  0.5084970000000  0.4472570000000  0.5505070000000 1.0
C      1  0.5510350000000  0.5529860000000  0.4918270000000 1.0
C      1  0.4932280000000  0.4466830000000  0.4487260000000 1.0
C      1  0.5418030000000  0.5153160000000  0.5333110000000 1.0
C      1  0.5339140000000  0.4853640000000  0.4575320000000 1.0
C      1  0.4580450000000  0.5145900000000  0.4662490000000 1.0
C      1  0.4669640000000  0.4844570000000  0.5414900000000 1.0
C      1  0.5717700000000  0.5299110000000  0.4891030000000 1.0
C      1  0.4896140000000  0.4700490000000  0.4283120000000 1.0
C      1  0.4289850000000  0.5300470000000  0.5113270000000 1.0
C      1  0.5110020000000  0.4702830000000  0.5713700000000 1.0
C      1  0.5431980000000  0.4766520000000  0.5366520000000 1.0
C      1  0.5372270000000  0.5240700000000  0.4566590000000 1.0
C      1  0.4578490000000  0.4757760000000  0.4636920000000 1.0
C      1  0.4648430000000  0.5232940000000  0.5423420000000 1.0
C      1  0.5119900000000  0.4802050000000  0.4793830000000 1.0
C      1  0.4799260000000  0.5197700000000  0.4881090000000 1.0
C      1  0.4889920000000  0.4793850000000  0.5197470000000 1.0
C      1  0.5202930000000  0.5203960000000  0.5110820000000 1.0
C      1  0.5141670000000  0.5678750000000  0.5210810000000 1.0
C      1  0.5227820000000  0.4343960000000  0.4857750000000 1.0
C      1  0.4861940000000  0.5657120000000  0.4778420000000 1.0
C      1  0.4794760000000  0.4318550000000  0.5136430000000 1.0
C      1  0.5431080000000  0.4202170000000  0.4996710000000 1.0
C      1  0.4999130000000  0.5801660000000  0.4576100000000 1.0
C      1  0.4541450000000  0.4208320000000  0.5047220000000 1.0
C      1  0.5053450000000  0.5784700000000  0.5466440000000 1.0
C      1  0.5018670000000  0.5813980000000  0.4965880000000 1.0
C      1  0.5041480000000  0.4185830000000  0.5014450000000 1.0
C      1  0.5002100000000  0.4999380000000  0.4997520000000 1.0
END
