TITL C-3578209-2550-617 -2.93208668627725e-06 125000 -442.130496778028 0 0 72 (C1) n - 1
REM
REM in /home/bkarasulu/work/CARBON/AIRSS/Generating-Clusters/EDIP-Nigel-Params/with-SteepDescent/Higher-Symm/SD-CG/HFTN-CG
REM
REM
REM
REM
REM
REM ./C.cell (12c818d87b63d06a65506943cc24bca4)
REM
REM compiler GCC version 9.2.1 20190827 (Red Hat 9.2.1-1)
REM options -cpp -mtune=generic -march=x86-64 -g -O0 -fpre-include=/usr/include/finclude/math-vector-fortran.h
REM seed -1514078775 492066647 -26186649 -1416790746 -841802323 2139977594 2137949560 694732256 -1631458319 -2134460283 -453949773 -1436320687 1545582718 1087000786 1440008292 -778937432 -910744870 -319027719 1589996273 995535833 1768777702 504430649 -1500696491 550445315 -1307636903 1296732229 -501336223 914725301 -1787151717 -234787578 972310755 2066119522 200906692
REM
CELL 1.54180   50.00000   50.00000   50.00000   90.00000   90.00000   90.00000
LATT -1
SFAC C  
C      1  0.4922400000000  0.5038740000000  0.4591060000000 1.0
C      1  0.4833330000000  0.4746090000000  0.4908160000000 1.0
C      1  0.4391060000000  0.4687830000000  0.5325780000000 1.0
C      1  0.4474310000000  0.4517810000000  0.5112840000000 1.0
C      1  0.4899950000000  0.4323550000000  0.4955670000000 1.0
C      1  0.4354140000000  0.5241210000000  0.4470580000000 1.0
C      1  0.4580650000000  0.5621480000000  0.5405580000000 1.0
C      1  0.5714510000000  0.4935820000000  0.5170650000000 1.0
C      1  0.5780550000000  0.5404410000000  0.5346900000000 1.0
C      1  0.4514850000000  0.5322340000000  0.4701000000000 1.0
C      1  0.4352950000000  0.5345120000000  0.4974480000000 1.0
C      1  0.4340360000000  0.4958960000000  0.4509880000000 1.0
C      1  0.5181990000000  0.4756180000000  0.5624050000000 1.0
C      1  0.5112020000000  0.5753370000000  0.4891860000000 1.0
C      1  0.5514350000000  0.5343190000000  0.5005640000000 1.0
C      1  0.5269130000000  0.4558830000000  0.4654300000000 1.0
C      1  0.5206410000000  0.5112640000000  0.5229170000000 1.0
C      1  0.5235470000000  0.5105490000000  0.4228090000000 1.0
C      1  0.4281500000000  0.4868070000000  0.4785200000000 1.0
C      1  0.5530750000000  0.5203970000000  0.4544810000000 1.0
C      1  0.5304510000000  0.5302780000000  0.5433250000000 1.0
C      1  0.4728330000000  0.5127970000000  0.5071620000000 1.0
C      1  0.5087660000000  0.5232090000000  0.4996960000000 1.0
C      1  0.5190980000000  0.5539350000000  0.4696250000000 1.0
C      1  0.5011330000000  0.4656070000000  0.4262600000000 1.0
C      1  0.5580550000000  0.4876500000000  0.5443420000000 1.0
C      1  0.4654580000000  0.5102180000000  0.5597550000000 1.0
C      1  0.4894710000000  0.4442220000000  0.5466860000000 1.0
C      1  0.4575110000000  0.4546150000000  0.4614450000000 1.0
C      1  0.5273060000000  0.4805620000000  0.4244600000000 1.0
C      1  0.5053650000000  0.5557470000000  0.5340010000000 1.0
C      1  0.4867190000000  0.5456490000000  0.5112690000000 1.0
C      1  0.4831350000000  0.5311150000000  0.5690320000000 1.0
C      1  0.5451780000000  0.5409230000000  0.4732150000000 1.0
C      1  0.4453230000000  0.5413270000000  0.5260370000000 1.0
C      1  0.5071910000000  0.5211680000000  0.5795410000000 1.0
C      1  0.5386120000000  0.4565160000000  0.5522580000000 1.0
C      1  0.5190210000000  0.4306130000000  0.5043470000000 1.0
C      1  0.4974750000000  0.5467780000000  0.4497680000000 1.0
C      1  0.5356920000000  0.4400120000000  0.5278600000000 1.0
C      1  0.4693070000000  0.4332520000000  0.5160920000000 1.0
C      1  0.4543340000000  0.4760320000000  0.4407880000000 1.0
C      1  0.4821500000000  0.4388780000000  0.4665850000000 1.0
C      1  0.5486030000000  0.5112600000000  0.5606060000000 1.0
C      1  0.5224970000000  0.5752100000000  0.5170430000000 1.0
C      1  0.5045580000000  0.4456030000000  0.4487030000000 1.0
C      1  0.5390090000000  0.4358680000000  0.4836270000000 1.0
C      1  0.5773410000000  0.5221040000000  0.5111090000000 1.0
C      1  0.4826370000000  0.5570500000000  0.5540040000000 1.0
C      1  0.4708150000000  0.4837730000000  0.5672040000000 1.0
C      1  0.5261710000000  0.5006660000000  0.5760650000000 1.0
C      1  0.4961660000000  0.5199400000000  0.4330060000000 1.0
C      1  0.5533920000000  0.4919860000000  0.4665500000000 1.0
C      1  0.4731960000000  0.4850870000000  0.5243800000000 1.0
C      1  0.4245910000000  0.5063720000000  0.5003950000000 1.0
C      1  0.5466170000000  0.5255480000000  0.4276690000000 1.0
C      1  0.4790520000000  0.4855900000000  0.4273580000000 1.0
C      1  0.4417300000000  0.4616080000000  0.4844420000000 1.0
C      1  0.4724110000000  0.5546140000000  0.4643940000000 1.0
C      1  0.5453710000000  0.4710220000000  0.4469290000000 1.0
C      1  0.5489150000000  0.5505590000000  0.5278260000000 1.0
C      1  0.5587440000000  0.4500200000000  0.4993800000000 1.0
C      1  0.5158260000000  0.4775870000000  0.4859280000000 1.0
C      1  0.4988440000000  0.4645870000000  0.5242830000000 1.0
C      1  0.4445670000000  0.5167690000000  0.5411840000000 1.0
C      1  0.4674360000000  0.5067590000000  0.4773530000000 1.0
C      1  0.4916230000000  0.4646930000000  0.5676690000000 1.0
C      1  0.5177380000000  0.5059920000000  0.4751370000000 1.0
C      1  0.5628010000000  0.4783390000000  0.4934130000000 1.0
C      1  0.4819230000000  0.5673300000000  0.4899630000000 1.0
C      1  0.5282880000000  0.4825250000000  0.5198890000000 1.0
C      1  0.4304820000000  0.4959230000000  0.5273680000000 1.0
END
