TITL C-3578203-1966-769 -3.05982797759175e-06 125000 -1197.35058835103 0 0 189 (C1) n - 1
REM
REM in /home/bkarasulu/work/CARBON/AIRSS/Generating-Clusters/EDIP-Nigel-Params/with-SteepDescent/Higher-Symm/SD-CG/HFTN-CG
REM
REM
REM
REM
REM
REM ./C.cell (12c818d87b63d06a65506943cc24bca4)
REM
REM compiler GCC version 9.2.1 20190827 (Red Hat 9.2.1-1)
REM options -cpp -mtune=generic -march=x86-64 -g -O0 -fpre-include=/usr/include/finclude/math-vector-fortran.h
REM seed 564026971 -201104367 -664928023 -255201611 1928446267 48020723 25747212 -696631743 -358120187 1034001079 -2092565697 -850229774 -1097761515 1332384899 896444992 -1634858213 266289881 1418521649 1990902298 -22276988 -1658251161 -1854798677 -433220420 -1928547802 -1870365548 208088812 -608248472 -1263451410 898494159 2106039522 1017259739 582568851 659935174
REM
CELL 1.54180   50.00000   50.00000   50.00000   90.00000   90.00000   90.00000
LATT -1
SFAC C  
C      1  0.4914020000000  0.4911330000000  0.5553550000000 1.0
C      1  0.4880040000000  0.5126060000000  0.4480230000000 1.0
C      1  0.5212600000000  0.4861810000000  0.5615790000000 1.0
C      1  0.5174920000000  0.5157730000000  0.4401980000000 1.0
C      1  0.5195050000000  0.5283750000000  0.5378550000000 1.0
C      1  0.5204190000000  0.4693390000000  0.4608620000000 1.0
C      1  0.4754990000000  0.5229780000000  0.5385420000000 1.0
C      1  0.4770510000000  0.4647600000000  0.4546230000000 1.0
C      1  0.5623380000000  0.5062650000000  0.5271880000000 1.0
C      1  0.5604320000000  0.4946550000000  0.4717350000000 1.0
C      1  0.4388530000000  0.4917840000000  0.5075050000000 1.0
C      1  0.4425880000000  0.4971140000000  0.4598030000000 1.0
C      1  0.4429990000000  0.4387360000000  0.4211420000000 1.0
C      1  0.4452600000000  0.5587260000000  0.5741940000000 1.0
C      1  0.5524950000000  0.4393630000000  0.4219180000000 1.0
C      1  0.5548480000000  0.5606560000000  0.5819050000000 1.0
C      1  0.4854310000000  0.5605150000000  0.4651950000000 1.0
C      1  0.4862680000000  0.4430210000000  0.5378820000000 1.0
C      1  0.5168390000000  0.5598820000000  0.4660730000000 1.0
C      1  0.5178270000000  0.4420460000000  0.5367370000000 1.0
C      1  0.4740860000000  0.4105520000000  0.5558220000000 1.0
C      1  0.4732170000000  0.5925710000000  0.4468710000000 1.0
C      1  0.5291120000000  0.4101250000000  0.5558300000000 1.0
C      1  0.5286160000000  0.5919960000000  0.4476430000000 1.0
C      1  0.5502200000000  0.4731340000000  0.4932560000000 1.0
C      1  0.5489890000000  0.5224430000000  0.5053390000000 1.0
C      1  0.4444360000000  0.4760190000000  0.4830330000000 1.0
C      1  0.4471510000000  0.5202350000000  0.5031180000000 1.0
C      1  0.4335760000000  0.4365410000000  0.5588320000000 1.0
C      1  0.4331880000000  0.5641160000000  0.4433120000000 1.0
C      1  0.5685780000000  0.4388500000000  0.5562020000000 1.0
C      1  0.5677710000000  0.5629110000000  0.4455420000000 1.0
C      1  0.4263330000000  0.5413180000000  0.5220110000000 1.0
C      1  0.4217720000000  0.4550360000000  0.4745090000000 1.0
C      1  0.5847660000000  0.5518840000000  0.5331290000000 1.0
C      1  0.5772380000000  0.4534820000000  0.4733760000000 1.0
C      1  0.4745910000000  0.4653120000000  0.4836590000000 1.0
C      1  0.4767930000000  0.5184230000000  0.5095510000000 1.0
C      1  0.5182420000000  0.4725140000000  0.4897420000000 1.0
C      1  0.5206470000000  0.5214370000000  0.5101000000000 1.0
C      1  0.5131380000000  0.5781100000000  0.5750710000000 1.0
C      1  0.5138890000000  0.4116360000000  0.4180290000000 1.0
C      1  0.4849570000000  0.5845510000000  0.5818270000000 1.0
C      1  0.4833000000000  0.4100670000000  0.4170340000000 1.0
C      1  0.5273560000000  0.5525460000000  0.4175520000000 1.0
C      1  0.5289230000000  0.4497750000000  0.5851830000000 1.0
C      1  0.4723980000000  0.5556420000000  0.4134080000000 1.0
C      1  0.4738090000000  0.4487780000000  0.5872690000000 1.0
C      1  0.3987680000000  0.4558750000000  0.4952470000000 1.0
C      1  0.4003020000000  0.5420790000000  0.5061580000000 1.0
C      1  0.6015940000000  0.4541850000000  0.4919060000000 1.0
C      1  0.6007420000000  0.5456630000000  0.5088020000000 1.0
C      1  0.5987720000000  0.5063710000000  0.5510770000000 1.0
C      1  0.5977060000000  0.4945210000000  0.4494660000000 1.0
C      1  0.4018630000000  0.5035400000000  0.5495030000000 1.0
C      1  0.4039680000000  0.4957810000000  0.4524870000000 1.0
C      1  0.4303800000000  0.4816190000000  0.4003500000000 1.0
C      1  0.4306510000000  0.5208290000000  0.5983910000000 1.0
C      1  0.5666510000000  0.4817200000000  0.4006440000000 1.0
C      1  0.5720490000000  0.5184260000000  0.6019080000000 1.0
C      1  0.4462740000000  0.5251240000000  0.4725200000000 1.0
C      1  0.4466010000000  0.4811250000000  0.5344800000000 1.0
C      1  0.5552690000000  0.5242370000000  0.4766780000000 1.0
C      1  0.5565840000000  0.4762580000000  0.5236490000000 1.0
C      1  0.4822450000000  0.3931130000000  0.5160070000000 1.0
C      1  0.4846300000000  0.6091400000000  0.4865920000000 1.0
C      1  0.5132840000000  0.3893630000000  0.5145110000000 1.0
C      1  0.5161800000000  0.6096280000000  0.4864640000000 1.0
C      1  0.4015950000000  0.5546370000000  0.4796220000000 1.0
C      1  0.4005890000000  0.4431550000000  0.5219110000000 1.0
C      1  0.5994500000000  0.5568220000000  0.4817910000000 1.0
C      1  0.5999660000000  0.4442720000000  0.5195340000000 1.0
C      1  0.6133440000000  0.5208100000000  0.5073410000000 1.0
C      1  0.6137400000000  0.4793740000000  0.4926670000000 1.0
C      1  0.3819880000000  0.5199800000000  0.5062760000000 1.0
C      1  0.3818540000000  0.4789210000000  0.4956270000000 1.0
C      1  0.4303830000000  0.4645510000000  0.4240140000000 1.0
C      1  0.4259260000000  0.5374710000000  0.5762150000000 1.0
C      1  0.5656010000000  0.4650100000000  0.4232790000000 1.0
C      1  0.5701360000000  0.5359900000000  0.5800240000000 1.0
C      1  0.5163990000000  0.6248770000000  0.5128100000000 1.0
C      1  0.5110610000000  0.3759870000000  0.4873480000000 1.0
C      1  0.4841790000000  0.6236760000000  0.5133920000000 1.0
C      1  0.4789160000000  0.3812670000000  0.4881260000000 1.0
C      1  0.5952620000000  0.4167050000000  0.5198390000000 1.0
C      1  0.5952490000000  0.5843990000000  0.4821590000000 1.0
C      1  0.4073160000000  0.4161180000000  0.5203440000000 1.0
C      1  0.4068630000000  0.5820840000000  0.4812690000000 1.0
C      1  0.5258820000000  0.5763440000000  0.5224930000000 1.0
C      1  0.5246910000000  0.4234060000000  0.4791570000000 1.0
C      1  0.4770850000000  0.5752120000000  0.5230950000000 1.0
C      1  0.4747720000000  0.4331180000000  0.4859490000000 1.0
C      1  0.3836380000000  0.5004870000000  0.5273330000000 1.0
C      1  0.3850150000000  0.4987770000000  0.4750380000000 1.0
C      1  0.6004690000000  0.5003780000000  0.5225820000000 1.0
C      1  0.5990770000000  0.4994160000000  0.4782900000000 1.0
C      1  0.5376880000000  0.4890030000000  0.4478460000000 1.0
C      1  0.5429360000000  0.5160740000000  0.5516930000000 1.0
C      1  0.4688380000000  0.4902510000000  0.4421010000000 1.0
C      1  0.4496150000000  0.5073690000000  0.5512580000000 1.0
C      1  0.5161190000000  0.4251530000000  0.5769360000000 1.0
C      1  0.5153010000000  0.5775150000000  0.4261350000000 1.0
C      1  0.4869880000000  0.4247840000000  0.5775270000000 1.0
C      1  0.4862090000000  0.5784140000000  0.4253300000000 1.0
C      1  0.5905310000000  0.4798620000000  0.5613390000000 1.0
C      1  0.5892280000000  0.5211380000000  0.4388550000000 1.0
C      1  0.4114390000000  0.4787900000000  0.5618020000000 1.0
C      1  0.4119620000000  0.5218640000000  0.4393790000000 1.0
C      1  0.5338110000000  0.5110250000000  0.5830330000000 1.0
C      1  0.5280590000000  0.4871170000000  0.4160520000000 1.0
C      1  0.4751960000000  0.5056660000000  0.5782970000000 1.0
C      1  0.4674550000000  0.4844900000000  0.4116000000000 1.0
C      1  0.4130560000000  0.4674840000000  0.4473680000000 1.0
C      1  0.4237920000000  0.5240740000000  0.5496790000000 1.0
C      1  0.5832320000000  0.4682410000000  0.4461000000000 1.0
C      1  0.5841600000000  0.5318080000000  0.5551260000000 1.0
C      1  0.4851080000000  0.5784410000000  0.4927380000000 1.0
C      1  0.4852420000000  0.4239600000000  0.5125070000000 1.0
C      1  0.5166530000000  0.5790410000000  0.4931110000000 1.0
C      1  0.5169220000000  0.4201180000000  0.5094730000000 1.0
C      1  0.5687660000000  0.5930370000000  0.4840230000000 1.0
C      1  0.5686830000000  0.4079230000000  0.5190070000000 1.0
C      1  0.4330100000000  0.5922350000000  0.4816550000000 1.0
C      1  0.4342160000000  0.4085040000000  0.5196400000000 1.0
C      1  0.4891820000000  0.4403380000000  0.4404360000000 1.0
C      1  0.4798550000000  0.5526750000000  0.5473840000000 1.0
C      1  0.5198610000000  0.4413530000000  0.4509970000000 1.0
C      1  0.5110000000000  0.5562770000000  0.5433700000000 1.0
C      1  0.5580460000000  0.4100310000000  0.4920550000000 1.0
C      1  0.5597270000000  0.5914400000000  0.5117020000000 1.0
C      1  0.4436280000000  0.4112860000000  0.4925210000000 1.0
C      1  0.4441160000000  0.5883890000000  0.5076220000000 1.0
C      1  0.4876900000000  0.5321810000000  0.5846580000000 1.0
C      1  0.4840520000000  0.4615080000000  0.4032530000000 1.0
C      1  0.5155370000000  0.5328430000000  0.5921700000000 1.0
C      1  0.5120440000000  0.4620190000000  0.4102700000000 1.0
C      1  0.4828610000000  0.4057660000000  0.4680930000000 1.0
C      1  0.4858370000000  0.6013570000000  0.5353410000000 1.0
C      1  0.5135030000000  0.3989830000000  0.4665930000000 1.0
C      1  0.5178200000000  0.6024120000000  0.5352710000000 1.0
C      1  0.5321080000000  0.5130840000000  0.3881660000000 1.0
C      1  0.5360720000000  0.4884620000000  0.6140900000000 1.0
C      1  0.4679870000000  0.5129740000000  0.3879500000000 1.0
C      1  0.4680740000000  0.4903520000000  0.6126960000000 1.0
C      1  0.4326920000000  0.5256210000000  0.4186820000000 1.0
C      1  0.4341570000000  0.4779590000000  0.5806550000000 1.0
C      1  0.5672200000000  0.5241050000000  0.4195010000000 1.0
C      1  0.5698140000000  0.4769570000000  0.5822170000000 1.0
C      1  0.5811440000000  0.5414600000000  0.4617220000000 1.0
C      1  0.5814050000000  0.4599350000000  0.5388730000000 1.0
C      1  0.4214640000000  0.5422170000000  0.4599040000000 1.0
C      1  0.4181610000000  0.4562550000000  0.5432090000000 1.0
C      1  0.5572550000000  0.4513930000000  0.5800150000000 1.0
C      1  0.5555850000000  0.5501160000000  0.4222350000000 1.0
C      1  0.4459430000000  0.4517820000000  0.5805080000000 1.0
C      1  0.4444260000000  0.5519110000000  0.4195590000000 1.0
C      1  0.5602870000000  0.5087830000000  0.3959860000000 1.0
C      1  0.5646020000000  0.4917860000000  0.6065540000000 1.0
C      1  0.4379000000000  0.5099460000000  0.3948950000000 1.0
C      1  0.4406010000000  0.4950550000000  0.6026800000000 1.0
C      1  0.5681130000000  0.5758140000000  0.5346060000000 1.0
C      1  0.5674340000000  0.4252130000000  0.4693420000000 1.0
C      1  0.4339440000000  0.5710400000000  0.5278570000000 1.0
C      1  0.4336560000000  0.4274350000000  0.4707690000000 1.0
C      1  0.5518840000000  0.4197990000000  0.4440590000000 1.0
C      1  0.5551460000000  0.5813110000000  0.5603930000000 1.0
C      1  0.4443830000000  0.4209950000000  0.4443130000000 1.0
C      1  0.4452640000000  0.5789840000000  0.5540070000000 1.0
C      1  0.5288410000000  0.5319340000000  0.4635170000000 1.0
C      1  0.5307330000000  0.4696150000000  0.5378410000000 1.0
C      1  0.4744310000000  0.5326750000000  0.4642140000000 1.0
C      1  0.4760590000000  0.4716610000000  0.5371140000000 1.0
C      1  0.5277070000000  0.5595920000000  0.5932440000000 1.0
C      1  0.5269180000000  0.4369660000000  0.4085770000000 1.0
C      1  0.4719970000000  0.5578690000000  0.5855760000000 1.0
C      1  0.4692050000000  0.4357930000000  0.4068850000000 1.0
C      1  0.4497270000000  0.4189550000000  0.5429900000000 1.0
C      1  0.4484480000000  0.5833410000000  0.4581390000000 1.0
C      1  0.5538580000000  0.4178950000000  0.5429420000000 1.0
C      1  0.5533630000000  0.5834040000000  0.4601010000000 1.0
C      1  0.5167780000000  0.4697480000000  0.6021660000000 1.0
C      1  0.5147950000000  0.5332430000000  0.4001600000000 1.0
C      1  0.4867110000000  0.4701820000000  0.6022620000000 1.0
C      1  0.4853090000000  0.5352750000000  0.3970150000000 1.0
C      1  0.4689300000000  0.5981790000000  0.5603610000000 1.0
C      1  0.4680510000000  0.4036160000000  0.4425180000000 1.0
C      1  0.5307570000000  0.5991410000000  0.5624460000000 1.0
C      1  0.5288860000000  0.3993060000000  0.4404480000000 1.0
C      1  0.4962310000000  0.4938200000000  0.4989920000000 1.0
END
