TITL C-3577083-591-758 -1.16162312609842e-06 125000 -546.66659184819 0 0 88 (C1) n - 1
REM
REM in /home/bkarasulu/work/CARBON/AIRSS/Generating-Clusters/EDIP-Nigel-Params/with-SteepDescent/Higher-Symm/SD-CG/HFTN-CG
REM
REM
REM
REM
REM
REM ./C.cell (12c818d87b63d06a65506943cc24bca4)
REM
REM compiler GCC version 9.2.1 20190827 (Red Hat 9.2.1-1)
REM options -cpp -mtune=generic -march=x86-64 -g -O0 -fpre-include=/usr/include/finclude/math-vector-fortran.h
REM seed 225749542 585962026 1859439105 -448513876 1251018332 -112661644 -455211505 1240673434 -1826769444 -578018944 -731716449 -2111892688 845839808 -877041250 -799337533 1981817958 -1976907859 -78006172 313132366 60461744 1272573217 -1886816812 654796267 -1561712000 -54575121 -162649096 -617804717 -650064006 -415073556 248854707 -631273237 1848258253 566416438
REM
CELL 1.54180   50.00000   50.00000   50.00000   90.00000   90.00000   90.00000
LATT -1
SFAC C  
C      1  0.4267800000000  0.5077050000000  0.5295960000000 1.0
C      1  0.5274460000000  0.4233890000000  0.5137250000000 1.0
C      1  0.5081100000000  0.5299860000000  0.4201650000000 1.0
C      1  0.5758000000000  0.4870150000000  0.5355970000000 1.0
C      1  0.5789270000000  0.5179180000000  0.4633050000000 1.0
C      1  0.4263290000000  0.4940900000000  0.4733690000000 1.0
C      1  0.4697650000000  0.5811620000000  0.5170360000000 1.0
C      1  0.4697340000000  0.4232480000000  0.4835410000000 1.0
C      1  0.5293810000000  0.5826910000000  0.4782490000000 1.0
C      1  0.4867890000000  0.4717710000000  0.4171280000000 1.0
C      1  0.4882580000000  0.5317890000000  0.5815380000000 1.0
C      1  0.5136790000000  0.4614630000000  0.5848580000000 1.0
C      1  0.5388600000000  0.4319520000000  0.4665450000000 1.0
C      1  0.4618340000000  0.5448360000000  0.4256770000000 1.0
C      1  0.4418670000000  0.4589720000000  0.5433280000000 1.0
C      1  0.4681140000000  0.5579910000000  0.4717980000000 1.0
C      1  0.4664740000000  0.4430990000000  0.5290620000000 1.0
C      1  0.5301920000000  0.5584050000000  0.5226700000000 1.0
C      1  0.5510060000000  0.4525190000000  0.4504870000000 1.0
C      1  0.5367120000000  0.5364980000000  0.5705730000000 1.0
C      1  0.4656310000000  0.4563180000000  0.5737440000000 1.0
C      1  0.5533950000000  0.5297940000000  0.5465020000000 1.0
C      1  0.5706740000000  0.4694040000000  0.4623130000000 1.0
C      1  0.4424550000000  0.5418420000000  0.4588010000000 1.0
C      1  0.4993610000000  0.4344870000000  0.4461840000000 1.0
C      1  0.4528990000000  0.5021150000000  0.4333710000000 1.0
C      1  0.4310900000000  0.4489960000000  0.4978990000000 1.0
C      1  0.4986640000000  0.5714900000000  0.4425780000000 1.0
C      1  0.4994040000000  0.4273160000000  0.5545380000000 1.0
C      1  0.5005570000000  0.5689120000000  0.5530080000000 1.0
C      1  0.5443500000000  0.4968620000000  0.4332000000000 1.0
C      1  0.5503890000000  0.4946420000000  0.5762820000000 1.0
C      1  0.4562250000000  0.4992770000000  0.5671320000000 1.0
C      1  0.5644280000000  0.5518970000000  0.4962380000000 1.0
C      1  0.5651280000000  0.4526680000000  0.5030600000000 1.0
C      1  0.4347080000000  0.5499600000000  0.5018580000000 1.0
C      1  0.4412330000000  0.5121350000000  0.4572190000000 1.0
C      1  0.4535180000000  0.4313320000000  0.5045270000000 1.0
C      1  0.5076740000000  0.4560850000000  0.4273890000000 1.0
C      1  0.5695920000000  0.4954240000000  0.4493460000000 1.0
C      1  0.5669560000000  0.5054840000000  0.5547130000000 1.0
C      1  0.4413660000000  0.4889570000000  0.5453120000000 1.0
C      1  0.5439120000000  0.5730420000000  0.4998540000000 1.0
C      1  0.5460920000000  0.4319140000000  0.4946960000000 1.0
C      1  0.4553550000000  0.5697340000000  0.4961320000000 1.0
C      1  0.4899820000000  0.5508060000000  0.4243530000000 1.0
C      1  0.4923990000000  0.4453420000000  0.5762160000000 1.0
C      1  0.5088330000000  0.5464570000000  0.5695270000000 1.0
C      1  0.5663550000000  0.5436200000000  0.5246310000000 1.0
C      1  0.5239700000000  0.5793460000000  0.5420540000000 1.0
C      1  0.5393380000000  0.5163600000000  0.5905610000000 1.0
C      1  0.4206020000000  0.4547300000000  0.5235450000000 1.0
C      1  0.4206020000000  0.5459510000000  0.4778030000000 1.0
C      1  0.5850110000000  0.4609130000000  0.4846910000000 1.0
C      1  0.4744430000000  0.4195390000000  0.5445000000000 1.0
C      1  0.4750910000000  0.5808110000000  0.4546100000000 1.0
C      1  0.5190020000000  0.4163070000000  0.4548860000000 1.0
C      1  0.4630770000000  0.4805490000000  0.5865610000000 1.0
C      1  0.4562150000000  0.5209740000000  0.4129920000000 1.0
C      1  0.5335580000000  0.4687300000000  0.4343000000000 1.0
C      1  0.4432380000000  0.4714430000000  0.4804460000000 1.0
C      1  0.4798510000000  0.4443520000000  0.4674030000000 1.0
C      1  0.4729050000000  0.4815050000000  0.4406160000000 1.0
C      1  0.5559890000000  0.5308600000000  0.4752350000000 1.0
C      1  0.5542970000000  0.4725010000000  0.5231590000000 1.0
C      1  0.4461160000000  0.5268650000000  0.5190620000000 1.0
C      1  0.5180780000000  0.5614460000000  0.4632480000000 1.0
C      1  0.5166360000000  0.4410750000000  0.5336690000000 1.0
C      1  0.4819910000000  0.5595710000000  0.5310080000000 1.0
C      1  0.5258880000000  0.5207190000000  0.4406060000000 1.0
C      1  0.5330720000000  0.4725250000000  0.5684170000000 1.0
C      1  0.4747320000000  0.5203170000000  0.5588170000000 1.0
C      1  0.5071320000000  0.4892140000000  0.5200710000000 1.0
C      1  0.5352680000000  0.5100370000000  0.4860380000000 1.0
C      1  0.5025670000000  0.5432480000000  0.5125640000000 1.0
C      1  0.4910720000000  0.5147450000000  0.5227970000000 1.0
C      1  0.4929650000000  0.4904450000000  0.4632140000000 1.0
C      1  0.5106370000000  0.5146780000000  0.4680910000000 1.0
C      1  0.4657540000000  0.4820330000000  0.4971920000000 1.0
C      1  0.4675970000000  0.5103650000000  0.5054690000000 1.0
C      1  0.5342800000000  0.4923530000000  0.5099540000000 1.0
C      1  0.4951690000000  0.4599260000000  0.5217880000000 1.0
C      1  0.4979290000000  0.5432910000000  0.4802730000000 1.0
C      1  0.4903950000000  0.4692430000000  0.4844950000000 1.0
C      1  0.5390740000000  0.4577880000000  0.5445160000000 1.0
C      1  0.4611940000000  0.5404180000000  0.5416660000000 1.0
C      1  0.5405690000000  0.5440730000000  0.4524540000000 1.0
C      1  0.4570690000000  0.4596740000000  0.4551540000000 1.0
END
