TITL C-3577091-527-445 -3.13086521737766e-06 125000 -153.799417039438 0 0 27 (C1) n - 1
REM
REM in /home/bkarasulu/work/CARBON/AIRSS/Generating-Clusters/EDIP-Nigel-Params/with-SteepDescent/Higher-Symm/SD-CG/HFTN-CG
REM
REM
REM
REM
REM
REM ./C.cell (12c818d87b63d06a65506943cc24bca4)
REM
REM compiler GCC version 9.2.1 20190827 (Red Hat 9.2.1-1)
REM options -cpp -mtune=generic -march=x86-64 -g -O0 -fpre-include=/usr/include/finclude/math-vector-fortran.h
REM seed 2126427160 1028712038 -677255356 1571998315 1690016206 1732572978 1781247381 589659203 -1820960769 -1319511038 -1592593582 -121002653 831350621 1848098115 -1405482748 1829501839 -404370409 2090160958 1310747077 -1540635840 -871113147 1075065536 2084631864 150294649 -738924459 -1866656118 -754578033 -1198246974 -1405030409 1886297318 -501592787 1624442510 767301598
REM
CELL 1.54180   50.00000   50.00000   50.00000   90.00000   90.00000   90.00000
LATT -1
SFAC C  
C      1  0.5242500000000  0.5052660000000  0.4500160000000 1.0
C      1  0.5376280000000  0.4819680000000  0.4587800000000 1.0
C      1  0.5310720000000  0.4605940000000  0.4760160000000 1.0
C      1  0.5429740000000  0.4578340000000  0.5013920000000 1.0
C      1  0.5332410000000  0.4617820000000  0.5275840000000 1.0
C      1  0.5407450000000  0.4851470000000  0.5411490000000 1.0
C      1  0.5281770000000  0.5073650000000  0.5531600000000 1.0
C      1  0.5296450000000  0.5326850000000  0.5376350000000 1.0
C      1  0.5259510000000  0.5263530000000  0.5071050000000 1.0
C      1  0.5256740000000  0.5449180000000  0.4819680000000 1.0
C      1  0.5331290000000  0.5306010000000  0.4587620000000 1.0
C      1  0.4880620000000  0.4772320000000  0.4636020000000 1.0
C      1  0.5021410000000  0.4569350000000  0.4777450000000 1.0
C      1  0.4941350000000  0.4467460000000  0.5032740000000 1.0
C      1  0.5036530000000  0.4561630000000  0.5294460000000 1.0
C      1  0.4866590000000  0.4831910000000  0.5377990000000 1.0
C      1  0.4990120000000  0.5047480000000  0.5532810000000 1.0
C      1  0.5005930000000  0.5396700000000  0.5367890000000 1.0
C      1  0.4892970000000  0.5455350000000  0.5110940000000 1.0
C      1  0.4959310000000  0.5471660000000  0.4833170000000 1.0
C      1  0.4853770000000  0.5265610000000  0.4665320000000 1.0
C      1  0.4952270000000  0.5030010000000  0.4539070000000 1.0
C      1  0.4405630000000  0.5086670000000  0.4935690000000 1.0
C      1  0.4657560000000  0.5003330000000  0.4965090000000 1.0
C      1  0.4157930000000  0.5148350000000  0.4918770000000 1.0
C      1  0.4894870000000  0.4876630000000  0.5069770000000 1.0
C      1  0.5149970000000  0.5005080000000  0.5009060000000 1.0
END
