TITL C-3578207-9274-446 -3.48380468594362e-06 125000 -898.799164514423 0 0 143 (C1) n - 1
REM
REM in /home/bkarasulu/work/CARBON/AIRSS/Generating-Clusters/EDIP-Nigel-Params/with-SteepDescent/Higher-Symm/SD-CG/HFTN-CG
REM
REM
REM
REM
REM
REM ./C.cell (12c818d87b63d06a65506943cc24bca4)
REM
REM compiler GCC version 9.2.1 20190827 (Red Hat 9.2.1-1)
REM options -cpp -mtune=generic -march=x86-64 -g -O0 -fpre-include=/usr/include/finclude/math-vector-fortran.h
REM seed 1332095462 1429257849 2064646566 1704053645 1779801386 256883581 -530903562 1282522109 -1494885828 -376199519 -553412525 1973044307 -622943488 -1306681516 1187948920 2039418344 -762618502 -1536658964 125366197 1218671767 1085818329 -1698510897 -1871106238 1667230921 2109485156 510931839 5380557 -1318909542 -249202498 569357157 -1245381608 -577743342 -274758621
REM
CELL 1.54180   50.00000   50.00000   50.00000   90.00000   90.00000   90.00000
LATT -1
SFAC C  
C      1  0.5029580000000  0.4899350000000  0.4402320000000 1.0
C      1  0.5043860000000  0.4504520000000  0.5292820000000 1.0
C      1  0.5072760000000  0.5576020000000  0.5215900000000 1.0
C      1  0.4923220000000  0.4920120000000  0.5557550000000 1.0
C      1  0.5030680000000  0.4611950000000  0.4523070000000 1.0
C      1  0.5011740000000  0.5567080000000  0.4912110000000 1.0
C      1  0.5738000000000  0.5188420000000  0.4449670000000 1.0
C      1  0.5761590000000  0.4421940000000  0.5128700000000 1.0
C      1  0.5714410000000  0.5521920000000  0.5464010000000 1.0
C      1  0.4292460000000  0.5170390000000  0.5645510000000 1.0
C      1  0.4095610000000  0.4411040000000  0.4827070000000 1.0
C      1  0.4197160000000  0.5406520000000  0.4457800000000 1.0
C      1  0.5352590000000  0.4463260000000  0.4093280000000 1.0
C      1  0.5346870000000  0.4509470000000  0.5906500000000 1.0
C      1  0.5359030000000  0.6018120000000  0.4976100000000 1.0
C      1  0.4614540000000  0.4481320000000  0.5873200000000 1.0
C      1  0.4628770000000  0.4541680000000  0.4093780000000 1.0
C      1  0.4636220000000  0.6005360000000  0.5048680000000 1.0
C      1  0.4829910000000  0.5416160000000  0.5467870000000 1.0
C      1  0.4755490000000  0.5232830000000  0.4450440000000 1.0
C      1  0.4878440000000  0.4299280000000  0.5184480000000 1.0
C      1  0.5235510000000  0.5382080000000  0.4363090000000 1.0
C      1  0.5214580000000  0.5243950000000  0.5589180000000 1.0
C      1  0.5283480000000  0.4209360000000  0.4953440000000 1.0
C      1  0.4606940000000  0.4208900000000  0.5801950000000 1.0
C      1  0.4636200000000  0.6072640000000  0.5323310000000 1.0
C      1  0.4616600000000  0.4751170000000  0.3903500000000 1.0
C      1  0.5346100000000  0.4194580000000  0.4185380000000 1.0
C      1  0.5348550000000  0.6057900000000  0.4696120000000 1.0
C      1  0.5337550000000  0.4731550000000  0.6081580000000 1.0
C      1  0.4715930000000  0.4196570000000  0.4547810000000 1.0
C      1  0.4701020000000  0.5056080000000  0.5954290000000 1.0
C      1  0.4683600000000  0.5770440000000  0.4500310000000 1.0
C      1  0.5337860000000  0.4091890000000  0.5447090000000 1.0
C      1  0.5311430000000  0.5056360000000  0.3999210000000 1.0
C      1  0.5299360000000  0.5836560000000  0.5528060000000 1.0
C      1  0.4511170000000  0.4591200000000  0.4355740000000 1.0
C      1  0.4487490000000  0.4660520000000  0.5684970000000 1.0
C      1  0.4606010000000  0.5723030000000  0.4986420000000 1.0
C      1  0.5390170000000  0.4585380000000  0.5631830000000 1.0
C      1  0.5419350000000  0.4643360000000  0.4311930000000 1.0
C      1  0.5446400000000  0.5750320000000  0.5050290000000 1.0
C      1  0.4604790000000  0.5237860000000  0.5100790000000 1.0
C      1  0.4570280000000  0.4902500000000  0.4738730000000 1.0
C      1  0.4601870000000  0.4748570000000  0.5194020000000 1.0
C      1  0.5375200000000  0.5262240000000  0.4889250000000 1.0
C      1  0.5390340000000  0.4927250000000  0.5274390000000 1.0
C      1  0.5390770000000  0.4756760000000  0.4797240000000 1.0
C      1  0.3958250000000  0.4852300000000  0.4623330000000 1.0
C      1  0.4031570000000  0.4779740000000  0.5340510000000 1.0
C      1  0.4051470000000  0.5430160000000  0.5008900000000 1.0
C      1  0.5896540000000  0.4865050000000  0.5376100000000 1.0
C      1  0.5952330000000  0.4783270000000  0.4695520000000 1.0
C      1  0.5944690000000  0.5449310000000  0.4983580000000 1.0
C      1  0.4463870000000  0.5424600000000  0.5714670000000 1.0
C      1  0.4403840000000  0.5390090000000  0.4232460000000 1.0
C      1  0.4496830000000  0.4182980000000  0.4998340000000 1.0
C      1  0.5656270000000  0.5315740000000  0.4210160000000 1.0
C      1  0.5535260000000  0.5446090000000  0.5706070000000 1.0
C      1  0.5695180000000  0.4150240000000  0.5145310000000 1.0
C      1  0.5783260000000  0.4843080000000  0.5624020000000 1.0
C      1  0.5770180000000  0.5550510000000  0.4793360000000 1.0
C      1  0.5790890000000  0.4569510000000  0.4613490000000 1.0
C      1  0.4159270000000  0.4887250000000  0.4435290000000 1.0
C      1  0.4222610000000  0.5581390000000  0.5162300000000 1.0
C      1  0.4197180000000  0.4554250000000  0.5349960000000 1.0
C      1  0.4532210000000  0.5355460000000  0.4640880000000 1.0
C      1  0.4385840000000  0.4417430000000  0.4830660000000 1.0
C      1  0.4704860000000  0.5114310000000  0.5518980000000 1.0
C      1  0.5316650000000  0.5397700000000  0.5336120000000 1.0
C      1  0.5320160000000  0.4457860000000  0.5170130000000 1.0
C      1  0.5289010000000  0.5080230000000  0.4454750000000 1.0
C      1  0.4730800000000  0.4085900000000  0.4824450000000 1.0
C      1  0.4708480000000  0.5347670000000  0.5887850000000 1.0
C      1  0.4624610000000  0.5605510000000  0.4254130000000 1.0
C      1  0.5438390000000  0.4028600000000  0.5159150000000 1.0
C      1  0.5390660000000  0.5340400000000  0.4100750000000 1.0
C      1  0.5293010000000  0.5640690000000  0.5746700000000 1.0
C      1  0.5392690000000  0.4266370000000  0.4663320000000 1.0
C      1  0.5400160000000  0.5083990000000  0.5764500000000 1.0
C      1  0.5359370000000  0.5610670000000  0.4540440000000 1.0
C      1  0.4607400000000  0.4255870000000  0.5310900000000 1.0
C      1  0.4580290000000  0.5085980000000  0.4253630000000 1.0
C      1  0.4603640000000  0.5609930000000  0.5470760000000 1.0
C      1  0.5445480000000  0.4928050000000  0.4246480000000 1.0
C      1  0.5441750000000  0.4373940000000  0.5433370000000 1.0
C      1  0.5521550000000  0.5731290000000  0.5347720000000 1.0
C      1  0.4464390000000  0.4952970000000  0.5784930000000 1.0
C      1  0.4489320000000  0.4375400000000  0.4549900000000 1.0
C      1  0.4545060000000  0.5642620000000  0.4716670000000 1.0
C      1  0.5218910000000  0.4168830000000  0.4436730000000 1.0
C      1  0.5218690000000  0.4959630000000  0.5970670000000 1.0
C      1  0.5205770000000  0.5861380000000  0.4556570000000 1.0
C      1  0.4751000000000  0.4141630000000  0.5574250000000 1.0
C      1  0.4747840000000  0.4964350000000  0.4023330000000 1.0
C      1  0.4769230000000  0.5874650000000  0.5466220000000 1.0
C      1  0.5506430000000  0.4548310000000  0.4593570000000 1.0
C      1  0.5500820000000  0.4860980000000  0.5577990000000 1.0
C      1  0.5488020000000  0.5548520000000  0.4815030000000 1.0
C      1  0.4477350000000  0.4546700000000  0.5394550000000 1.0
C      1  0.4443910000000  0.4867170000000  0.4437740000000 1.0
C      1  0.4499090000000  0.5542290000000  0.5187580000000 1.0
C      1  0.4941890000000  0.4881310000000  0.5863360000000 1.0
C      1  0.4953650000000  0.5812710000000  0.4714670000000 1.0
C      1  0.4960480000000  0.4332480000000  0.4411750000000 1.0
C      1  0.5032780000000  0.4873570000000  0.4089000000000 1.0
C      1  0.5054560000000  0.5855800000000  0.5342820000000 1.0
C      1  0.5040080000000  0.4257780000000  0.5591020000000 1.0
C      1  0.3870820000000  0.4777440000000  0.5091320000000 1.0
C      1  0.3944190000000  0.5238130000000  0.5202070000000 1.0
C      1  0.3876000000000  0.5109870000000  0.4736050000000 1.0
C      1  0.6084010000000  0.4761760000000  0.4958880000000 1.0
C      1  0.6072820000000  0.5226590000000  0.4840280000000 1.0
C      1  0.6026750000000  0.5113910000000  0.5305500000000 1.0
C      1  0.5055110000000  0.4960290000000  0.5285150000000 1.0
C      1  0.5068990000000  0.5281500000000  0.4862260000000 1.0
C      1  0.5081340000000  0.4701830000000  0.4798260000000 1.0
C      1  0.4886440000000  0.4954080000000  0.4761650000000 1.0
C      1  0.4919540000000  0.5181320000000  0.5109100000000 1.0
C      1  0.4919370000000  0.4738250000000  0.5149540000000 1.0
C      1  0.5102830000000  0.6068450000000  0.5117440000000 1.0
C      1  0.5089550000000  0.4570530000000  0.3995340000000 1.0
C      1  0.5085180000000  0.4376080000000  0.5875740000000 1.0
C      1  0.4890770000000  0.6055870000000  0.4906540000000 1.0
C      1  0.4881060000000  0.4583480000000  0.5941780000000 1.0
C      1  0.4884220000000  0.4392360000000  0.4115150000000 1.0
C      1  0.5449330000000  0.5198640000000  0.5166110000000 1.0
C      1  0.5467170000000  0.5048160000000  0.4697440000000 1.0
C      1  0.5488700000000  0.4699400000000  0.5080670000000 1.0
C      1  0.4481800000000  0.5160130000000  0.4848230000000 1.0
C      1  0.4517170000000  0.5031850000000  0.5292740000000 1.0
C      1  0.4486900000000  0.4690150000000  0.4927010000000 1.0
C      1  0.4137760000000  0.5065940000000  0.5376370000000 1.0
C      1  0.4086580000000  0.5317830000000  0.4726990000000 1.0
C      1  0.3999800000000  0.4673030000000  0.4849470000000 1.0
C      1  0.5903900000000  0.5069050000000  0.4653960000000 1.0
C      1  0.5854750000000  0.5352560000000  0.5252840000000 1.0
C      1  0.5919110000000  0.4656730000000  0.5175360000000 1.0
C      1  0.4982110000000  0.4162610000000  0.4959230000000 1.0
C      1  0.4941920000000  0.5417050000000  0.4321120000000 1.0
C      1  0.5006370000000  0.5450230000000  0.5744980000000 1.0
C      1  0.3792870000000  0.5057020000000  0.5023250000000 1.0
C      1  0.6169560000000  0.5039300000000  0.5049040000000 1.0
END
