TITL C-3578196-9646-559 -5.33243947040021e-07 125000 -177.202010113514 0 0 30 (Cs) n - 1
REM
REM in /home/bkarasulu/work/CARBON/AIRSS/Generating-Clusters/EDIP-Nigel-Params/with-SteepDescent/Higher-Symm/SD-CG/HFTN-CG
REM
REM
REM
REM
REM
REM ./C.cell (12c818d87b63d06a65506943cc24bca4)
REM
REM compiler GCC version 9.2.1 20190827 (Red Hat 9.2.1-1)
REM options -cpp -mtune=generic -march=x86-64 -g -O0 -fpre-include=/usr/include/finclude/math-vector-fortran.h
REM seed 161018068 179965489 883226865 875948354 720325072 2084553025 1259842023 1697608163 -1333932672 526029981 -433500118 -543264239 1810571089 -1475979438 878666552 1044638556 1736095562 397829204 355597291 566361228 1795925489 -2063025038 -1891648569 -674510990 1950362177 -169794683 -939456800 5452515 2053540162 -943036657 1733969414 -1274793583 2108289932
REM
CELL 1.54180   50.00000   50.00000   50.00000   90.00000   90.00000   90.00000
LATT -1
SFAC C  
C      1  0.4781430000000  0.4452980000000  0.5300430000000 1.0
C      1  0.5465840000000  0.4638240000000  0.5276610000000 1.0
C      1  0.5492690000000  0.5270600000000  0.5313260000000 1.0
C      1  0.4832970000000  0.5543700000000  0.5307380000000 1.0
C      1  0.4420740000000  0.5059280000000  0.5304520000000 1.0
C      1  0.5186040000000  0.4481220000000  0.4677330000000 1.0
C      1  0.4567870000000  0.4647060000000  0.4701750000000 1.0
C      1  0.4507670000000  0.5279690000000  0.4692240000000 1.0
C      1  0.5156720000000  0.5565480000000  0.4719030000000 1.0
C      1  0.5564240000000  0.5081560000000  0.4687760000000 1.0
C      1  0.5474170000000  0.5338960000000  0.4710950000000 1.0
C      1  0.4883390000000  0.5567400000000  0.4705080000000 1.0
C      1  0.4438360000000  0.5014740000000  0.4696350000000 1.0
C      1  0.4796630000000  0.4483820000000  0.4695930000000 1.0
C      1  0.5413830000000  0.4633070000000  0.4669180000000 1.0
C      1  0.4516140000000  0.5315920000000  0.5300770000000 1.0
C      1  0.5106390000000  0.5546260000000  0.5323080000000 1.0
C      1  0.5578510000000  0.5011710000000  0.5288410000000 1.0
C      1  0.5254350000000  0.4464440000000  0.5283310000000 1.0
C      1  0.4564020000000  0.4608120000000  0.5305960000000 1.0
C      1  0.4666370000000  0.5455630000000  0.4834400000000 1.0
C      1  0.4544930000000  0.4848700000000  0.4895750000000 1.0
C      1  0.5001210000000  0.4523110000000  0.4884140000000 1.0
C      1  0.5533410000000  0.4836930000000  0.4812340000000 1.0
C      1  0.5282020000000  0.5398560000000  0.4906190000000 1.0
C      1  0.5325440000000  0.5449470000000  0.5185160000000 1.0
C      1  0.5465070000000  0.4848270000000  0.5090940000000 1.0
C      1  0.5013510000000  0.4425120000000  0.5153720000000 1.0
C      1  0.4457400000000  0.4821950000000  0.5167870000000 1.0
C      1  0.4708660000000  0.5388020000000  0.5110180000000 1.0
END
