TITL C-3578198-8939-469 -3.14165518816104e-06 125000 -988.064987355838 0 0 160 (C1) n - 1
REM
REM in /home/bkarasulu/work/CARBON/AIRSS/Generating-Clusters/EDIP-Nigel-Params/with-SteepDescent/Higher-Symm/SD-CG/HFTN-CG
REM
REM
REM
REM
REM
REM ./C.cell (12c818d87b63d06a65506943cc24bca4)
REM
REM compiler GCC version 9.2.1 20190827 (Red Hat 9.2.1-1)
REM options -cpp -mtune=generic -march=x86-64 -g -O0 -fpre-include=/usr/include/finclude/math-vector-fortran.h
REM seed 757098902 1064262570 -863328042 -1431304534 -628397506 -1714937714 208250791 -174919670 -1294324106 -1111640230 -1434656670 -681828800 -1107239979 -1495330923 850695566 -483906099 -909372120 504101582 1617740112 971148801 -1679832109 -855546290 889740436 602260416 1289471721 742390728 1860692643 724782671 187013163 627957307 -333218723 -291809787 -87434899
REM
CELL 1.54180   50.00000   50.00000   50.00000   90.00000   90.00000   90.00000
LATT -1
SFAC C  
C      1  0.5163010000000  0.5619530000000  0.4038200000000 1.0
C      1  0.4161110000000  0.5537820000000  0.5349030000000 1.0
C      1  0.5766420000000  0.5605960000000  0.5606160000000 1.0
C      1  0.4882350000000  0.5558020000000  0.4105170000000 1.0
C      1  0.5843100000000  0.5554560000000  0.5326080000000 1.0
C      1  0.4396000000000  0.5494480000000  0.5545470000000 1.0
C      1  0.4690890000000  0.5621530000000  0.5008710000000 1.0
C      1  0.5174110000000  0.5629590000000  0.5255500000000 1.0
C      1  0.5141580000000  0.5641390000000  0.4723320000000 1.0
C      1  0.5297410000000  0.5653470000000  0.4987030000000 1.0
C      1  0.4872700000000  0.5666410000000  0.5244280000000 1.0
C      1  0.4843870000000  0.5658150000000  0.4749670000000 1.0
C      1  0.5749950000000  0.4518610000000  0.5354250000000 1.0
C      1  0.4931020000000  0.4505520000000  0.4159250000000 1.0
C      1  0.4309180000000  0.4517670000000  0.5475610000000 1.0
C      1  0.4253880000000  0.4500620000000  0.5170420000000 1.0
C      1  0.5218520000000  0.4503800000000  0.4276130000000 1.0
C      1  0.5513830000000  0.4501410000000  0.5552000000000 1.0
C      1  0.5888280000000  0.4976810000000  0.5166700000000 1.0
C      1  0.4710100000000  0.4959800000000  0.4140770000000 1.0
C      1  0.4397460000000  0.4962690000000  0.5725540000000 1.0
C      1  0.4097210000000  0.4976320000000  0.5205710000000 1.0
C      1  0.5288480000000  0.4983620000000  0.4127950000000 1.0
C      1  0.5626670000000  0.4955440000000  0.5668670000000 1.0
C      1  0.5162020000000  0.4387520000000  0.4734000000000 1.0
C      1  0.4684820000000  0.4388260000000  0.4988120000000 1.0
C      1  0.5142320000000  0.4418300000000  0.5253180000000 1.0
C      1  0.4843190000000  0.4407090000000  0.4730120000000 1.0
C      1  0.5317600000000  0.4436610000000  0.4992210000000 1.0
C      1  0.4832870000000  0.4439860000000  0.5250970000000 1.0
C      1  0.4321940000000  0.5447830000000  0.5827020000000 1.0
C      1  0.6070460000000  0.5446500000000  0.5174070000000 1.0
C      1  0.4640140000000  0.5445650000000  0.3983750000000 1.0
C      1  0.5731300000000  0.5402520000000  0.5793110000000 1.0
C      1  0.3960670000000  0.5449980000000  0.5154850000000 1.0
C      1  0.5352920000000  0.5424350000000  0.3972100000000 1.0
C      1  0.4185320000000  0.4772570000000  0.5606340000000 1.0
C      1  0.5920500000000  0.4771060000000  0.5385520000000 1.0
C      1  0.4896350000000  0.4771010000000  0.3986870000000 1.0
C      1  0.5908340000000  0.4917190000000  0.5622360000000 1.0
C      1  0.3995280000000  0.4931250000000  0.5471400000000 1.0
C      1  0.5111170000000  0.4930870000000  0.3908330000000 1.0
C      1  0.5172940000000  0.4445990000000  0.5986020000000 1.0
C      1  0.5719990000000  0.4455250000000  0.4446270000000 1.0
C      1  0.4060770000000  0.4453880000000  0.4661480000000 1.0
C      1  0.4879020000000  0.4485140000000  0.5987140000000 1.0
C      1  0.4226190000000  0.4486900000000  0.4420710000000 1.0
C      1  0.5926040000000  0.4478030000000  0.4652350000000 1.0
C      1  0.5657990000000  0.5170280000000  0.5210080000000 1.0
C      1  0.4857700000000  0.5112350000000  0.4355890000000 1.0
C      1  0.4535700000000  0.5081320000000  0.5472180000000 1.0
C      1  0.4387800000000  0.5089230000000  0.5217100000000 1.0
C      1  0.5144710000000  0.5118320000000  0.4372190000000 1.0
C      1  0.5461780000000  0.5069020000000  0.5392910000000 1.0
C      1  0.5415200000000  0.4224670000000  0.5642750000000 1.0
C      1  0.5363590000000  0.4230650000000  0.4308780000000 1.0
C      1  0.4214020000000  0.4223670000000  0.5034470000000 1.0
C      1  0.4548530000000  0.4341710000000  0.5574790000000 1.0
C      1  0.4719530000000  0.4315870000000  0.4317310000000 1.0
C      1  0.5731880000000  0.4347530000000  0.5106120000000 1.0
C      1  0.4699560000000  0.4339540000000  0.5818950000000 1.0
C      1  0.5913570000000  0.4341620000000  0.4895460000000 1.0
C      1  0.4432780000000  0.4312950000000  0.4332500000000 1.0
C      1  0.5315850000000  0.4217050000000  0.5905220000000 1.0
C      1  0.4029280000000  0.4224650000000  0.4822690000000 1.0
C      1  0.5647190000000  0.4229080000000  0.4295790000000 1.0
C      1  0.5280680000000  0.3998390000000  0.5025120000000 1.0
C      1  0.4879290000000  0.3967020000000  0.4710960000000 1.0
C      1  0.4818030000000  0.4000090000000  0.5208530000000 1.0
C      1  0.4701700000000  0.3952560000000  0.4947110000000 1.0
C      1  0.5166230000000  0.3949660000000  0.4757390000000 1.0
C      1  0.5105550000000  0.3979570000000  0.5251930000000 1.0
C      1  0.5569940000000  0.5798140000000  0.5637140000000 1.0
C      1  0.5274720000000  0.5818450000000  0.4195690000000 1.0
C      1  0.4170180000000  0.5778940000000  0.5192380000000 1.0
C      1  0.4468510000000  0.5759930000000  0.5653000000000 1.0
C      1  0.4707560000000  0.5771010000000  0.4186800000000 1.0
C      1  0.5868650000000  0.5778540000000  0.5147900000000 1.0
C      1  0.5409890000000  0.4710890000000  0.4172880000000 1.0
C      1  0.4058090000000  0.4705070000000  0.5078140000000 1.0
C      1  0.5541690000000  0.4690340000000  0.5781590000000 1.0
C      1  0.4564710000000  0.4727110000000  0.4271120000000 1.0
C      1  0.5791640000000  0.4762340000000  0.4962180000000 1.0
C      1  0.4540290000000  0.4743030000000  0.5866510000000 1.0
C      1  0.5444930000000  0.5897090000000  0.4919100000000 1.0
C      1  0.4702310000000  0.5896800000000  0.4664180000000 1.0
C      1  0.4866180000000  0.5900290000000  0.5421060000000 1.0
C      1  0.4523290000000  0.5945300000000  0.4893210000000 1.0
C      1  0.5332450000000  0.5964570000000  0.4654930000000 1.0
C      1  0.5152320000000  0.5953480000000  0.5457300000000 1.0
C      1  0.5933180000000  0.5450710000000  0.4622080000000 1.0
C      1  0.4211350000000  0.5442000000000  0.4380180000000 1.0
C      1  0.4865850000000  0.5441790000000  0.5994090000000 1.0
C      1  0.4018650000000  0.5405240000000  0.4601870000000 1.0
C      1  0.5833470000000  0.5423340000000  0.4345040000000 1.0
C      1  0.5159190000000  0.5408250000000  0.6043900000000 1.0
C      1  0.4390840000000  0.4724820000000  0.4759200000000 1.0
C      1  0.5115570000000  0.4735610000000  0.5660790000000 1.0
C      1  0.5456440000000  0.4762380000000  0.4620630000000 1.0
C      1  0.5470540000000  0.4721570000000  0.4963060000000 1.0
C      1  0.4808790000000  0.4694940000000  0.5604280000000 1.0
C      1  0.4647350000000  0.4679930000000  0.4559520000000 1.0
C      1  0.6091400000000  0.5184160000000  0.5037050000000 1.0
C      1  0.4508500000000  0.5184910000000  0.4032620000000 1.0
C      1  0.4408790000000  0.5196490000000  0.5941250000000 1.0
C      1  0.3940080000000  0.5182950000000  0.5048420000000 1.0
C      1  0.5488410000000  0.5189990000000  0.4050920000000 1.0
C      1  0.5585520000000  0.5174610000000  0.5862600000000 1.0
C      1  0.4775880000000  0.4753860000000  0.6033660000000 1.0
C      1  0.5973550000000  0.4744390000000  0.4722930000000 1.0
C      1  0.4276820000000  0.4753190000000  0.4310280000000 1.0
C      1  0.5332180000000  0.4681000000000  0.5977950000000 1.0
C      1  0.4003700000000  0.4694600000000  0.4797920000000 1.0
C      1  0.5665740000000  0.4688250000000  0.4298330000000 1.0
C      1  0.4292830000000  0.5024060000000  0.4746520000000 1.0
C      1  0.5131410000000  0.5034570000000  0.5738450000000 1.0
C      1  0.5556670000000  0.5048100000000  0.4523380000000 1.0
C      1  0.5707800000000  0.5087930000000  0.4773710000000 1.0
C      1  0.4837500000000  0.5047430000000  0.5789530000000 1.0
C      1  0.4424790000000  0.5067910000000  0.4489310000000 1.0
C      1  0.5231610000000  0.5326660000000  0.5419920000000 1.0
C      1  0.5237780000000  0.5349090000000  0.4577770000000 1.0
C      1  0.4503790000000  0.5309320000000  0.5010290000000 1.0
C      1  0.4735960000000  0.5314180000000  0.5470780000000 1.0
C      1  0.4676680000000  0.5244800000000  0.4558840000000 1.0
C      1  0.5545080000000  0.5284670000000  0.4948580000000 1.0
C      1  0.4738210000000  0.4717620000000  0.5317620000000 1.0
C      1  0.5353300000000  0.4846230000000  0.5230180000000 1.0
C      1  0.4930570000000  0.4768030000000  0.4622490000000 1.0
C      1  0.5273680000000  0.4633990000000  0.5417390000000 1.0
C      1  0.4494040000000  0.4623680000000  0.5034410000000 1.0
C      1  0.5189490000000  0.4625270000000  0.4554470000000 1.0
C      1  0.4321920000000  0.5504670000000  0.4816120000000 1.0
C      1  0.5171290000000  0.5517830000000  0.5675800000000 1.0
C      1  0.5505560000000  0.5536650000000  0.4510650000000 1.0
C      1  0.5684360000000  0.5537950000000  0.4766200000000 1.0
C      1  0.4862980000000  0.5524930000000  0.5704840000000 1.0
C      1  0.4459050000000  0.5515090000000  0.4531200000000 1.0
C      1  0.5203350000000  0.4114970000000  0.5483380000000 1.0
C      1  0.5307600000000  0.4079980000000  0.4546300000000 1.0
C      1  0.4447630000000  0.4088530000000  0.4928260000000 1.0
C      1  0.4646290000000  0.4130470000000  0.5403970000000 1.0
C      1  0.4804560000000  0.4083720000000  0.4460310000000 1.0
C      1  0.5541560000000  0.4128410000000  0.5072780000000 1.0
C      1  0.5666290000000  0.5194420000000  0.4287560000000 1.0
C      1  0.4038610000000  0.5169360000000  0.4769210000000 1.0
C      1  0.5297410000000  0.5181550000000  0.5927150000000 1.0
C      1  0.4280040000000  0.5190120000000  0.4242390000000 1.0
C      1  0.5994760000000  0.5188950000000  0.4743880000000 1.0
C      1  0.4707640000000  0.5192060000000  0.6021940000000 1.0
C      1  0.4749790000000  0.5803900000000  0.5674040000000 1.0
C      1  0.5725450000000  0.5808620000000  0.4897820000000 1.0
C      1  0.4557020000000  0.5787370000000  0.4434620000000 1.0
C      1  0.5293040000000  0.5790050000000  0.5644200000000 1.0
C      1  0.4291850000000  0.5778730000000  0.4933510000000 1.0
C      1  0.5421190000000  0.5810470000000  0.4430830000000 1.0
C      1  0.5250080000000  0.5232570000000  0.4857200000000 1.0
C      1  0.4977380000000  0.5237650000000  0.5291950000000 1.0
C      1  0.4738820000000  0.5206150000000  0.4856870000000 1.0
C      1  0.4989780000000  0.5256720000000  0.4999050000000 1.0
END
