TITL C-3577080-309-707 1.52024493206748e-06 125000 -1201.84140928807 0 0 195 (C1) n - 1
REM
REM in /home/bkarasulu/work/CARBON/AIRSS/Generating-Clusters/EDIP-Nigel-Params/with-SteepDescent/Higher-Symm/SD-CG/HFTN-CG
REM
REM
REM
REM
REM
REM ./C.cell (12c818d87b63d06a65506943cc24bca4)
REM
REM compiler GCC version 9.2.1 20190827 (Red Hat 9.2.1-1)
REM options -cpp -mtune=generic -march=x86-64 -g -O0 -fpre-include=/usr/include/finclude/math-vector-fortran.h
REM seed -1359319629 850791585 -1942401356 -1264473858 -1827476368 -1838161155 -2022675301 1784612126 -2099440285 -775069014 2106400359 -1965987674 -1181161844 1488606062 -610479591 379974530 -366201199 1661122527 -882046799 -1554122629 -386685681 -1280004826 -314108280 -118501080 762607606 -1358794252 -149388913 741832721 -1276573177 -850470347 -67401432 -1126960310 -957091852
REM
CELL 1.54180   50.00000   50.00000   50.00000   90.00000   90.00000   90.00000
LATT -1
SFAC C  
C      1  0.4476970000000  0.4049030000000  0.4827210000000 1.0
C      1  0.3975410000000  0.4525390000000  0.4905990000000 1.0
C      1  0.3816970000000  0.5125780000000  0.4661960000000 1.0
C      1  0.4250200000000  0.5568320000000  0.4822380000000 1.0
C      1  0.4731040000000  0.5878400000000  0.4860050000000 1.0
C      1  0.5211510000000  0.6032650000000  0.4813000000000 1.0
C      1  0.5636510000000  0.5581100000000  0.4814710000000 1.0
C      1  0.5861640000000  0.5172230000000  0.4840060000000 1.0
C      1  0.5748120000000  0.4645630000000  0.4822330000000 1.0
C      1  0.5507020000000  0.4224590000000  0.4788530000000 1.0
C      1  0.4989480000000  0.4113120000000  0.4811460000000 1.0
C      1  0.4886330000000  0.6112770000000  0.5658450000000 1.0
C      1  0.5560250000000  0.6007570000000  0.5461360000000 1.0
C      1  0.6034610000000  0.5557060000000  0.5492480000000 1.0
C      1  0.6143840000000  0.4879280000000  0.5493680000000 1.0
C      1  0.5924790000000  0.4254190000000  0.5480300000000 1.0
C      1  0.5318980000000  0.3896560000000  0.5418520000000 1.0
C      1  0.4689220000000  0.3879800000000  0.5497210000000 1.0
C      1  0.4181150000000  0.4346560000000  0.5567070000000 1.0
C      1  0.3891140000000  0.4876440000000  0.5585880000000 1.0
C      1  0.3929640000000  0.5458240000000  0.5318460000000 1.0
C      1  0.4389120000000  0.5790290000000  0.5556700000000 1.0
C      1  0.4580690000000  0.5193060000000  0.5307580000000 1.0
C      1  0.4712250000000  0.5274600000000  0.5559270000000 1.0
C      1  0.4889490000000  0.5515660000000  0.5506750000000 1.0
C      1  0.5157510000000  0.5477340000000  0.5579770000000 1.0
C      1  0.5409110000000  0.5375220000000  0.5499500000000 1.0
C      1  0.5467880000000  0.5090680000000  0.5531230000000 1.0
C      1  0.5414270000000  0.4811810000000  0.5473650000000 1.0
C      1  0.5176620000000  0.4699670000000  0.5578730000000 1.0
C      1  0.4963880000000  0.4576130000000  0.5439400000000 1.0
C      1  0.4715240000000  0.4712400000000  0.5388210000000 1.0
C      1  0.4569970000000  0.4904540000000  0.5235090000000 1.0
C      1  0.4713910000000  0.4568400000000  0.4300320000000 1.0
C      1  0.4514230000000  0.4758150000000  0.4497250000000 1.0
C      1  0.4475520000000  0.5080360000000  0.4465930000000 1.0
C      1  0.4595420000000  0.5297420000000  0.4269350000000 1.0
C      1  0.4834880000000  0.5485030000000  0.4396980000000 1.0
C      1  0.5122580000000  0.5498650000000  0.4253420000000 1.0
C      1  0.5366080000000  0.5350010000000  0.4402570000000 1.0
C      1  0.5516510000000  0.5104670000000  0.4272130000000 1.0
C      1  0.5456050000000  0.4803450000000  0.4413650000000 1.0
C      1  0.5280740000000  0.4586550000000  0.4268670000000 1.0
C      1  0.5009570000000  0.4479390000000  0.4404530000000 1.0
C      1  0.5638440000000  0.5747610000000  0.5570780000000 1.0
C      1  0.5936690000000  0.5297960000000  0.5582350000000 1.0
C      1  0.6006590000000  0.4688530000000  0.5667020000000 1.0
C      1  0.5671020000000  0.4224450000000  0.5620350000000 1.0
C      1  0.5103210000000  0.4008120000000  0.5585950000000 1.0
C      1  0.4612330000000  0.4145280000000  0.5588470000000 1.0
C      1  0.4150890000000  0.4560570000000  0.5756570000000 1.0
C      1  0.3994900000000  0.5126510000000  0.5695500000000 1.0
C      1  0.4210120000000  0.5435290000000  0.5324130000000 1.0
C      1  0.4588230000000  0.5806970000000  0.5769590000000 1.0
C      1  0.5139590000000  0.6056760000000  0.5787030000000 1.0
C      1  0.5512270000000  0.5114280000000  0.3974110000000 1.0
C      1  0.5526440000000  0.4869500000000  0.3848270000000 1.0
C      1  0.5406800000000  0.4630650000000  0.3847080000000 1.0
C      1  0.5168550000000  0.4509040000000  0.3848040000000 1.0
C      1  0.4903900000000  0.4545350000000  0.3858970000000 1.0
C      1  0.4705780000000  0.4655620000000  0.4015930000000 1.0
C      1  0.4629230000000  0.4918190000000  0.3963900000000 1.0
C      1  0.4649860000000  0.5194100000000  0.3995600000000 1.0
C      1  0.4873620000000  0.5313260000000  0.3877370000000 1.0
C      1  0.5112640000000  0.5433220000000  0.3960940000000 1.0
C      1  0.5341530000000  0.5305910000000  0.3870520000000 1.0
C      1  0.3945850000000  0.5558680000000  0.4816350000000 1.0
C      1  0.4486920000000  0.5999850000000  0.4771250000000 1.0
C      1  0.5080170000000  0.6214970000000  0.5224240000000 1.0
C      1  0.5659980000000  0.5956890000000  0.4916110000000 1.0
C      1  0.6101010000000  0.5490660000000  0.4996750000000 1.0
C      1  0.6091370000000  0.4779140000000  0.4955190000000 1.0
C      1  0.5864760000000  0.4160880000000  0.4958720000000 1.0
C      1  0.5244820000000  0.3839680000000  0.4867410000000 1.0
C      1  0.4463370000000  0.3868450000000  0.5063860000000 1.0
C      1  0.4030350000000  0.4271670000000  0.4802050000000 1.0
C      1  0.3807700000000  0.4905750000000  0.5069540000000 1.0
C      1  0.5510070000000  0.4650910000000  0.5251450000000 1.0
C      1  0.5330850000000  0.4445950000000  0.5131720000000 1.0
C      1  0.5084110000000  0.4336920000000  0.5301330000000 1.0
C      1  0.4735820000000  0.4375580000000  0.5120580000000 1.0
C      1  0.4381350000000  0.4822740000000  0.5013470000000 1.0
C      1  0.4246320000000  0.5078890000000  0.4919540000000 1.0
C      1  0.4627570000000  0.5420590000000  0.5119040000000 1.0
C      1  0.4865720000000  0.5603510000000  0.5229980000000 1.0
C      1  0.5156990000000  0.5612090000000  0.5100010000000 1.0
C      1  0.5437380000000  0.5440750000000  0.5213430000000 1.0
C      1  0.5563610000000  0.5169700000000  0.5110960000000 1.0
C      1  0.5203540000000  0.5783680000000  0.4296740000000 1.0
C      1  0.5652570000000  0.5607790000000  0.4355330000000 1.0
C      1  0.5797190000000  0.5146750000000  0.4353640000000 1.0
C      1  0.5808760000000  0.4665830000000  0.4334670000000 1.0
C      1  0.5448220000000  0.4341020000000  0.4305210000000 1.0
C      1  0.5017570000000  0.4110840000000  0.4291470000000 1.0
C      1  0.4573090000000  0.4303940000000  0.4314240000000 1.0
C      1  0.4191100000000  0.4577940000000  0.4376870000000 1.0
C      1  0.4110460000000  0.5044120000000  0.4341610000000 1.0
C      1  0.4349690000000  0.5472780000000  0.4276300000000 1.0
C      1  0.4703060000000  0.5827730000000  0.4277590000000 1.0
C      1  0.3901210000000  0.4675410000000  0.5781660000000 1.0
C      1  0.3846430000000  0.5319060000000  0.5550650000000 1.0
C      1  0.4276500000000  0.5524030000000  0.5592160000000 1.0
C      1  0.4667740000000  0.6065510000000  0.5834360000000 1.0
C      1  0.5359900000000  0.6103240000000  0.5627560000000 1.0
C      1  0.5905080000000  0.5735680000000  0.5669890000000 1.0
C      1  0.6137390000000  0.5113900000000  0.5651640000000 1.0
C      1  0.6081080000000  0.4425310000000  0.5634190000000 1.0
C      1  0.5543160000000  0.3993620000000  0.5548440000000 1.0
C      1  0.4917700000000  0.3804180000000  0.5640520000000 1.0
C      1  0.4353660000000  0.4166120000000  0.5698630000000 1.0
C      1  0.5277250000000  0.4127280000000  0.4419920000000 1.0
C      1  0.4749000000000  0.4080290000000  0.4394690000000 1.0
C      1  0.4337040000000  0.4350590000000  0.4467880000000 1.0
C      1  0.4074040000000  0.4802910000000  0.4500140000000 1.0
C      1  0.4117800000000  0.5327760000000  0.4403200000000 1.0
C      1  0.4456820000000  0.5718180000000  0.4391260000000 1.0
C      1  0.4955870000000  0.5913010000000  0.4400810000000 1.0
C      1  0.5446870000000  0.5779280000000  0.4466460000000 1.0
C      1  0.5856440000000  0.5423820000000  0.4449380000000 1.0
C      1  0.5882460000000  0.4902250000000  0.4487720000000 1.0
C      1  0.5727430000000  0.4399500000000  0.4407140000000 1.0
C      1  0.5908640000000  0.5196010000000  0.5151950000000 1.0
C      1  0.5784820000000  0.4615620000000  0.5138030000000 1.0
C      1  0.5499180000000  0.4194220000000  0.5085050000000 1.0
C      1  0.4906890000000  0.4119010000000  0.5110860000000 1.0
C      1  0.4477030000000  0.4235020000000  0.5173410000000 1.0
C      1  0.4151050000000  0.4625210000000  0.5129700000000 1.0
C      1  0.3937820000000  0.5127180000000  0.4934670000000 1.0
C      1  0.4367910000000  0.5585650000000  0.5124760000000 1.0
C      1  0.4733570000000  0.5880880000000  0.5190360000000 1.0
C      1  0.5219750000000  0.5998010000000  0.5103090000000 1.0
C      1  0.5665740000000  0.5640140000000  0.5140320000000 1.0
C      1  0.5582000000000  0.5174200000000  0.5950850000000 1.0
C      1  0.5585200000000  0.4854580000000  0.5957620000000 1.0
C      1  0.5415560000000  0.4584190000000  0.5934120000000 1.0
C      1  0.5134860000000  0.4434550000000  0.5929270000000 1.0
C      1  0.4824310000000  0.4484440000000  0.5930910000000 1.0
C      1  0.4594120000000  0.4679800000000  0.5984160000000 1.0
C      1  0.4572070000000  0.4979020000000  0.5974860000000 1.0
C      1  0.4831520000000  0.5130000000000  0.6015280000000 1.0
C      1  0.4855980000000  0.5430070000000  0.6019540000000 1.0
C      1  0.5132450000000  0.5565880000000  0.6014280000000 1.0
C      1  0.5407690000000  0.5442540000000  0.5940770000000 1.0
C      1  0.4598420000000  0.5562080000000  0.5942930000000 1.0
C      1  0.5135040000000  0.5846670000000  0.5975800000000 1.0
C      1  0.5566810000000  0.5676730000000  0.5851890000000 1.0
C      1  0.5848160000000  0.5267060000000  0.5862720000000 1.0
C      1  0.5851290000000  0.4780490000000  0.5886310000000 1.0
C      1  0.5599110000000  0.4382330000000  0.5846200000000 1.0
C      1  0.5175970000000  0.4177410000000  0.5807600000000 1.0
C      1  0.4704270000000  0.4226980000000  0.5856930000000 1.0
C      1  0.4341030000000  0.4563420000000  0.5961640000000 1.0
C      1  0.4324310000000  0.5124180000000  0.5874590000000 1.0
C      1  0.4469330000000  0.5359640000000  0.5756630000000 1.0
C      1  0.4247790000000  0.4163590000000  0.4668810000000 1.0
C      1  0.3874780000000  0.4744120000000  0.4722340000000 1.0
C      1  0.3885850000000  0.5397740000000  0.4569670000000 1.0
C      1  0.4352660000000  0.5791040000000  0.4650550000000 1.0
C      1  0.4962600000000  0.5960240000000  0.4689080000000 1.0
C      1  0.5466250000000  0.5966480000000  0.4690050000000 1.0
C      1  0.5905440000000  0.5450790000000  0.4746100000000 1.0
C      1  0.6036520000000  0.4960180000000  0.4729090000000 1.0
C      1  0.5767370000000  0.4359790000000  0.4704090000000 1.0
C      1  0.5383070000000  0.3991220000000  0.4658340000000 1.0
C      1  0.4739640000000  0.4012140000000  0.4679540000000 1.0
C      1  0.4721660000000  0.3872550000000  0.5203440000000 1.0
C      1  0.4264800000000  0.4402430000000  0.5291500000000 1.0
C      1  0.3959510000000  0.4802420000000  0.5293680000000 1.0
C      1  0.3832520000000  0.5394310000000  0.5046750000000 1.0
C      1  0.4445940000000  0.5841940000000  0.5264940000000 1.0
C      1  0.4869130000000  0.6101610000000  0.5356250000000 1.0
C      1  0.5503290000000  0.6038000000000  0.5166940000000 1.0
C      1  0.5963030000000  0.5625340000000  0.5210860000000 1.0
C      1  0.6053050000000  0.4937950000000  0.5210710000000 1.0
C      1  0.5900670000000  0.4339500000000  0.5191680000000 1.0
C      1  0.5322300000000  0.3962200000000  0.5127460000000 1.0
C      1  0.5436440000000  0.5088390000000  0.4848730000000 1.0
C      1  0.5461590000000  0.4780870000000  0.4740360000000 1.0
C      1  0.5252660000000  0.4570630000000  0.4860760000000 1.0
C      1  0.5017270000000  0.4431950000000  0.4721950000000 1.0
C      1  0.4760240000000  0.4514570000000  0.4861730000000 1.0
C      1  0.4554230000000  0.4703340000000  0.4789580000000 1.0
C      1  0.4402160000000  0.5256810000000  0.4734680000000 1.0
C      1  0.4669980000000  0.5330630000000  0.4846220000000 1.0
C      1  0.4841760000000  0.5536520000000  0.4713300000000 1.0
C      1  0.5124730000000  0.5498280000000  0.4829820000000 1.0
C      1  0.5383440000000  0.5374290000000  0.4719460000000 1.0
C      1  0.5107880000000  0.5023920000000  0.4558810000000 1.0
C      1  0.5066900000000  0.5056650000000  0.5341790000000 1.0
C      1  0.5033770000000  0.5019240000000  0.5850300000000 1.0
C      1  0.5053820000000  0.4968870000000  0.4037300000000 1.0
C      1  0.5073610000000  0.4977180000000  0.4298190000000 1.0
C      1  0.4910770000000  0.5053410000000  0.5587620000000 1.0
C      1  0.5000540000000  0.5037530000000  0.4805650000000 1.0
C      1  0.5010110000000  0.5027360000000  0.5076000000000 1.0
END
