TITL C-3577085-527-520 -6.81589187571779e-06 125000 -1160.50086529899 0 0 185 (C1) n - 1
REM
REM in /home/bkarasulu/work/CARBON/AIRSS/Generating-Clusters/EDIP-Nigel-Params/with-SteepDescent/Higher-Symm/SD-CG/HFTN-CG
REM
REM
REM
REM
REM
REM ./C.cell (12c818d87b63d06a65506943cc24bca4)
REM
REM compiler GCC version 9.2.1 20190827 (Red Hat 9.2.1-1)
REM options -cpp -mtune=generic -march=x86-64 -g -O0 -fpre-include=/usr/include/finclude/math-vector-fortran.h
REM seed 144269800 1661871948 128778359 -638275963 -1281277066 -933017759 574721309 1270924155 19449410 -1212901622 1020121709 132646404 310103767 418696343 -510725228 996548087 -1375739612 456483098 -2076727243 -534866299 1260573179 -1080321672 680766626 -1393953293 869974803 -1235597512 -1134950858 1068420602 -481350022 1123074057 -326507182 723325388 34161201
REM
CELL 1.54180   50.00000   50.00000   50.00000   90.00000   90.00000   90.00000
LATT -1
SFAC C  
C      1  0.4844380000000  0.5160490000000  0.6129930000000 1.0
C      1  0.5035100000000  0.4679310000000  0.6133520000000 1.0
C      1  0.5270750000000  0.4723880000000  0.5923950000000 1.0
C      1  0.4653190000000  0.5235550000000  0.5908390000000 1.0
C      1  0.5847300000000  0.5584220000000  0.5611460000000 1.0
C      1  0.4209510000000  0.4326140000000  0.5590260000000 1.0
C      1  0.4872510000000  0.4245100000000  0.4246190000000 1.0
C      1  0.5156170000000  0.5752850000000  0.4226550000000 1.0
C      1  0.5528940000000  0.5646910000000  0.5072140000000 1.0
C      1  0.4546620000000  0.4384040000000  0.5095650000000 1.0
C      1  0.4637710000000  0.4575970000000  0.4001070000000 1.0
C      1  0.5494150000000  0.5441590000000  0.3954830000000 1.0
C      1  0.4372890000000  0.5041650000000  0.4617820000000 1.0
C      1  0.5595040000000  0.4948440000000  0.4603210000000 1.0
C      1  0.5231140000000  0.5238250000000  0.5455420000000 1.0
C      1  0.4732030000000  0.4746420000000  0.5413400000000 1.0
C      1  0.4701230000000  0.4118530000000  0.5534670000000 1.0
C      1  0.5329700000000  0.5877360000000  0.5524760000000 1.0
C      1  0.5343160000000  0.4002980000000  0.4761220000000 1.0
C      1  0.4670330000000  0.5994500000000  0.4773410000000 1.0
C      1  0.4420530000000  0.5508660000000  0.4955310000000 1.0
C      1  0.5582110000000  0.4521410000000  0.4940970000000 1.0
C      1  0.4686920000000  0.5552760000000  0.5828620000000 1.0
C      1  0.5316340000000  0.4441650000000  0.5822760000000 1.0
C      1  0.5289440000000  0.5976370000000  0.5245150000000 1.0
C      1  0.4733900000000  0.4019750000000  0.5259450000000 1.0
C      1  0.5854950000000  0.5321890000000  0.5782520000000 1.0
C      1  0.4161210000000  0.4640360000000  0.5760860000000 1.0
C      1  0.5483380000000  0.6031110000000  0.5043470000000 1.0
C      1  0.4525560000000  0.4001630000000  0.5067450000000 1.0
C      1  0.5513080000000  0.4600880000000  0.4650310000000 1.0
C      1  0.4478540000000  0.5408400000000  0.4656410000000 1.0
C      1  0.4404480000000  0.4737090000000  0.5908720000000 1.0
C      1  0.5591300000000  0.5239180000000  0.5894880000000 1.0
C      1  0.4867750000000  0.5643820000000  0.4814060000000 1.0
C      1  0.5155110000000  0.4341290000000  0.4829180000000 1.0
C      1  0.4076440000000  0.4949980000000  0.4547720000000 1.0
C      1  0.5900340000000  0.5009860000000  0.4543690000000 1.0
C      1  0.5672570000000  0.5277100000000  0.4093260000000 1.0
C      1  0.4391900000000  0.4685160000000  0.4101460000000 1.0
C      1  0.5009720000000  0.3977580000000  0.5181410000000 1.0
C      1  0.5012880000000  0.6030880000000  0.5175350000000 1.0
C      1  0.4020040000000  0.4527530000000  0.5246830000000 1.0
C      1  0.5937710000000  0.5524170000000  0.5281210000000 1.0
C      1  0.4514570000000  0.4545020000000  0.5355020000000 1.0
C      1  0.5464380000000  0.5453520000000  0.5366480000000 1.0
C      1  0.3910430000000  0.5090380000000  0.4369050000000 1.0
C      1  0.6046170000000  0.4858800000000  0.4359770000000 1.0
C      1  0.5823780000000  0.4837700000000  0.5820240000000 1.0
C      1  0.4138110000000  0.5143350000000  0.5816920000000 1.0
C      1  0.5892400000000  0.5715820000000  0.4822370000000 1.0
C      1  0.4173850000000  0.4287710000000  0.4906380000000 1.0
C      1  0.4873790000000  0.4421650000000  0.4902890000000 1.0
C      1  0.5164810000000  0.5616150000000  0.4856190000000 1.0
C      1  0.5504500000000  0.4497050000000  0.4157840000000 1.0
C      1  0.4451840000000  0.5490140000000  0.4221300000000 1.0
C      1  0.5974650000000  0.5432440000000  0.4796630000000 1.0
C      1  0.4019160000000  0.4525570000000  0.4795510000000 1.0
C      1  0.5071110000000  0.4281480000000  0.5868670000000 1.0
C      1  0.4966260000000  0.5652720000000  0.5817350000000 1.0
C      1  0.4904250000000  0.4972070000000  0.3996290000000 1.0
C      1  0.5141300000000  0.5126100000000  0.3934190000000 1.0
C      1  0.5214230000000  0.5340070000000  0.4376190000000 1.0
C      1  0.4755820000000  0.4578120000000  0.4410910000000 1.0
C      1  0.4872910000000  0.4447860000000  0.6026220000000 1.0
C      1  0.5170520000000  0.5493140000000  0.5946050000000 1.0
C      1  0.5337850000000  0.4384640000000  0.5074760000000 1.0
C      1  0.4678750000000  0.5663740000000  0.5065460000000 1.0
C      1  0.3961460000000  0.4973430000000  0.5127510000000 1.0
C      1  0.6039640000000  0.5040720000000  0.5156500000000 1.0
C      1  0.5551280000000  0.4932940000000  0.5920200000000 1.0
C      1  0.4402900000000  0.5042290000000  0.5910970000000 1.0
C      1  0.5264170000000  0.4894050000000  0.5044930000000 1.0
C      1  0.4744110000000  0.5172160000000  0.4932950000000 1.0
C      1  0.4671820000000  0.4409530000000  0.4660630000000 1.0
C      1  0.5318050000000  0.5575740000000  0.4564390000000 1.0
C      1  0.4696640000000  0.5864410000000  0.4497840000000 1.0
C      1  0.5315030000000  0.4125020000000  0.4483930000000 1.0
C      1  0.5716080000000  0.5313910000000  0.5294250000000 1.0
C      1  0.4248380000000  0.4684490000000  0.5331040000000 1.0
C      1  0.4598950000000  0.4207010000000  0.4235090000000 1.0
C      1  0.5437360000000  0.5793540000000  0.4224250000000 1.0
C      1  0.5106970000000  0.5251480000000  0.6076890000000 1.0
C      1  0.4866540000000  0.4893260000000  0.6202170000000 1.0
C      1  0.4677280000000  0.5043910000000  0.5402020000000 1.0
C      1  0.5297300000000  0.4940120000000  0.5364070000000 1.0
C      1  0.4900750000000  0.5308010000000  0.4422350000000 1.0
C      1  0.5076970000000  0.4604160000000  0.4391330000000 1.0
C      1  0.4090690000000  0.5155320000000  0.4936040000000 1.0
C      1  0.5931290000000  0.4856910000000  0.4955630000000 1.0
C      1  0.4375990000000  0.5873370000000  0.5200460000000 1.0
C      1  0.5626570000000  0.4146670000000  0.5178530000000 1.0
C      1  0.4482410000000  0.4838490000000  0.4826350000000 1.0
C      1  0.5518860000000  0.5157830000000  0.4800920000000 1.0
C      1  0.5606580000000  0.4059370000000  0.4887860000000 1.0
C      1  0.4403550000000  0.5961170000000  0.4909220000000 1.0
C      1  0.5003160000000  0.5859710000000  0.4456350000000 1.0
C      1  0.5014960000000  0.4128010000000  0.4464420000000 1.0
C      1  0.5941380000000  0.5302580000000  0.4528930000000 1.0
C      1  0.4075990000000  0.4654770000000  0.4526170000000 1.0
C      1  0.5849570000000  0.4562930000000  0.5684030000000 1.0
C      1  0.4139530000000  0.5423830000000  0.5683230000000 1.0
C      1  0.4017890000000  0.5660210000000  0.4947090000000 1.0
C      1  0.5984050000000  0.4360450000000  0.4931580000000 1.0
C      1  0.3896740000000  0.4682110000000  0.5020870000000 1.0
C      1  0.6090890000000  0.5327230000000  0.5060840000000 1.0
C      1  0.5529370000000  0.5638990000000  0.5604110000000 1.0
C      1  0.4518910000000  0.4354750000000  0.5602460000000 1.0
C      1  0.5875330000000  0.4321010000000  0.5203330000000 1.0
C      1  0.4125220000000  0.5695090000000  0.5220500000000 1.0
C      1  0.4668900000000  0.5123580000000  0.4032260000000 1.0
C      1  0.5341280000000  0.4914750000000  0.3939650000000 1.0
C      1  0.5943010000000  0.5063340000000  0.5655320000000 1.0
C      1  0.4038880000000  0.4911410000000  0.5649830000000 1.0
C      1  0.5227540000000  0.5404010000000  0.4063010000000 1.0
C      1  0.4898360000000  0.4683700000000  0.3955100000000 1.0
C      1  0.5774530000000  0.4253320000000  0.4732720000000 1.0
C      1  0.4216130000000  0.5786580000000  0.4756900000000 1.0
C      1  0.5170140000000  0.4012600000000  0.5427320000000 1.0
C      1  0.4852250000000  0.5979420000000  0.5424480000000 1.0
C      1  0.4295240000000  0.4551770000000  0.4351010000000 1.0
C      1  0.5747680000000  0.5421630000000  0.4338650000000 1.0
C      1  0.4356590000000  0.5423330000000  0.5470490000000 1.0
C      1  0.5640350000000  0.4577240000000  0.5466450000000 1.0
C      1  0.5966210000000  0.4678750000000  0.4179350000000 1.0
C      1  0.3986690000000  0.5287120000000  0.4201610000000 1.0
C      1  0.4264600000000  0.5265990000000  0.4174000000000 1.0
C      1  0.5693860000000  0.4720500000000  0.4131380000000 1.0
C      1  0.4719090000000  0.5373960000000  0.4176590000000 1.0
C      1  0.5232310000000  0.4632420000000  0.4036410000000 1.0
C      1  0.4960910000000  0.4673320000000  0.5255580000000 1.0
C      1  0.5018360000000  0.5340020000000  0.5263650000000 1.0
C      1  0.4368480000000  0.4271800000000  0.4379090000000 1.0
C      1  0.5674210000000  0.5709530000000  0.4357440000000 1.0
C      1  0.5224930000000  0.4560890000000  0.4647680000000 1.0
C      1  0.4776180000000  0.5386790000000  0.4697010000000 1.0
C      1  0.4391160000000  0.5152630000000  0.5334870000000 1.0
C      1  0.5601040000000  0.4847410000000  0.5332220000000 1.0
C      1  0.5260100000000  0.5140210000000  0.4900810000000 1.0
C      1  0.4763440000000  0.4908790000000  0.4818770000000 1.0
C      1  0.5394520000000  0.4416590000000  0.5530550000000 1.0
C      1  0.4601030000000  0.5597100000000  0.5538670000000 1.0
C      1  0.5441090000000  0.4137060000000  0.5429650000000 1.0
C      1  0.4559220000000  0.5888170000000  0.5452770000000 1.0
C      1  0.3951440000000  0.5395070000000  0.4888140000000 1.0
C      1  0.6074940000000  0.4622150000000  0.4895450000000 1.0
C      1  0.5553640000000  0.4993350000000  0.4125420000000 1.0
C      1  0.4404960000000  0.5007580000000  0.4092410000000 1.0
C      1  0.5640230000000  0.4801380000000  0.5029720000000 1.0
C      1  0.4375580000000  0.5208990000000  0.5036990000000 1.0
C      1  0.4958630000000  0.4718750000000  0.4962260000000 1.0
C      1  0.5181310000000  0.5380600000000  0.5028940000000 1.0
C      1  0.5123650000000  0.4892020000000  0.4372960000000 1.0
C      1  0.4881610000000  0.5020690000000  0.4465310000000 1.0
C      1  0.4831590000000  0.4719440000000  0.5676610000000 1.0
C      1  0.5080370000000  0.5134780000000  0.5711780000000 1.0
C      1  0.5115360000000  0.4833630000000  0.5687550000000 1.0
C      1  0.4793130000000  0.5160980000000  0.5655770000000 1.0
C      1  0.3995260000000  0.5557210000000  0.5449880000000 1.0
C      1  0.6001570000000  0.4447350000000  0.5442030000000 1.0
C      1  0.5818390000000  0.5745570000000  0.5108900000000 1.0
C      1  0.4122790000000  0.4259230000000  0.5287320000000 1.0
C      1  0.5537370000000  0.5462580000000  0.4779830000000 1.0
C      1  0.4454110000000  0.4545370000000  0.4832020000000 1.0
C      1  0.5047630000000  0.5857980000000  0.5620110000000 1.0
C      1  0.4980270000000  0.4135850000000  0.5623690000000 1.0
C      1  0.5075690000000  0.3919870000000  0.4898500000000 1.0
C      1  0.4941250000000  0.6073700000000  0.4888910000000 1.0
C      1  0.5826180000000  0.5055680000000  0.5375330000000 1.0
C      1  0.4152630000000  0.4954620000000  0.5370590000000 1.0
C      1  0.4445990000000  0.5661040000000  0.4472350000000 1.0
C      1  0.5540860000000  0.4348460000000  0.4435620000000 1.0
C      1  0.5427330000000  0.5955770000000  0.4770410000000 1.0
C      1  0.4588150000000  0.3999080000000  0.4784170000000 1.0
C      1  0.4810970000000  0.5551730000000  0.5314060000000 1.0
C      1  0.5199300000000  0.4511520000000  0.5316660000000 1.0
C      1  0.4644950000000  0.4552750000000  0.5834720000000 1.0
C      1  0.5431890000000  0.5478780000000  0.5835820000000 1.0
C      1  0.5144020000000  0.6011510000000  0.4675110000000 1.0
C      1  0.4876390000000  0.4022460000000  0.4706470000000 1.0
C      1  0.5395170000000  0.5036330000000  0.4382220000000 1.0
C      1  0.4604560000000  0.4895770000000  0.4408470000000 1.0
C      1  0.4360730000000  0.4156010000000  0.4662910000000 1.0
C      1  0.5674620000000  0.5825010000000  0.4634560000000 1.0
C      1  0.4857620000000  0.5126200000000  0.5193450000000 1.0
END
