TITL C-3577088-510-529 -1.99747433594387e-07 125000 -761.402144382197 0 0 122 (C1) n - 1
REM
REM in /home/bkarasulu/work/CARBON/AIRSS/Generating-Clusters/EDIP-Nigel-Params/with-SteepDescent/Higher-Symm/SD-CG/HFTN-CG
REM
REM
REM
REM
REM
REM ./C.cell (12c818d87b63d06a65506943cc24bca4)
REM
REM compiler GCC version 9.2.1 20190827 (Red Hat 9.2.1-1)
REM options -cpp -mtune=generic -march=x86-64 -g -O0 -fpre-include=/usr/include/finclude/math-vector-fortran.h
REM seed -322636646 673786860 -528980952 1260822645 714447631 -1424669027 1473812084 891330551 1532547573 273868392 1376391716 1275957634 -1070131589 1012170212 -1060507588 -92594709 -549589722 -521427599 2110098954 817202401 630019058 809627740 634953899 1988167934 1737656120 1737916141 80460005 -478562060 633818094 899304828 -1866513394 -629906550 -107195994
REM
CELL 1.54180   50.00000   50.00000   50.00000   90.00000   90.00000   90.00000
LATT -1
SFAC C  
C      1  0.4921600000000  0.5424910000000  0.5157550000000 1.0
C      1  0.5077150000000  0.5354260000000  0.4707460000000 1.0
C      1  0.4920770000000  0.4932750000000  0.4542400000000 1.0
C      1  0.5081840000000  0.4580210000000  0.4833610000000 1.0
C      1  0.4916810000000  0.4644220000000  0.5268120000000 1.0
C      1  0.5074020000000  0.5066720000000  0.5442010000000 1.0
C      1  0.4225270000000  0.5247660000000  0.5092550000000 1.0
C      1  0.5772530000000  0.5202610000000  0.4831500000000 1.0
C      1  0.4230020000000  0.4959780000000  0.4730550000000 1.0
C      1  0.5775970000000  0.4743730000000  0.4901840000000 1.0
C      1  0.4242840000000  0.4784790000000  0.5162830000000 1.0
C      1  0.5769590000000  0.5031980000000  0.5265800000000 1.0
C      1  0.5563570000000  0.5428120000000  0.4469930000000 1.0
C      1  0.4430790000000  0.4757920000000  0.4355430000000 1.0
C      1  0.5562490000000  0.4326060000000  0.4889450000000 1.0
C      1  0.4443030000000  0.4581660000000  0.5532200000000 1.0
C      1  0.5556160000000  0.5232500000000  0.5637580000000 1.0
C      1  0.4436530000000  0.5671460000000  0.5106400000000 1.0
C      1  0.5804670000000  0.4950210000000  0.4715670000000 1.0
C      1  0.4220640000000  0.4728790000000  0.4890650000000 1.0
C      1  0.5800430000000  0.4767710000000  0.5180130000000 1.0
C      1  0.4196850000000  0.5038090000000  0.5276200000000 1.0
C      1  0.5802420000000  0.5258770000000  0.5103930000000 1.0
C      1  0.4194330000000  0.5223170000000  0.4816120000000 1.0
C      1  0.4569360000000  0.5115200000000  0.5617220000000 1.0
C      1  0.5428150000000  0.5593810000000  0.5210220000000 1.0
C      1  0.4571170000000  0.5485900000000  0.4582390000000 1.0
C      1  0.5427300000000  0.4880810000000  0.4372970000000 1.0
C      1  0.4632760000000  0.4397160000000  0.4918510000000 1.0
C      1  0.5418920000000  0.4518590000000  0.5414280000000 1.0
C      1  0.5733950000000  0.5542350000000  0.5172200000000 1.0
C      1  0.4263990000000  0.5427470000000  0.4606750000000 1.0
C      1  0.5733900000000  0.4869300000000  0.4435750000000 1.0
C      1  0.4325320000000  0.4460700000000  0.4808630000000 1.0
C      1  0.5725930000000  0.4563740000000  0.5388470000000 1.0
C      1  0.4263610000000  0.5124130000000  0.5554990000000 1.0
C      1  0.4690020000000  0.5401120000000  0.5561570000000 1.0
C      1  0.5308600000000  0.5690070000000  0.4932540000000 1.0
C      1  0.4691970000000  0.5292410000000  0.4361440000000 1.0
C      1  0.5303050000000  0.4594640000000  0.4435730000000 1.0
C      1  0.4716590000000  0.4207330000000  0.5168950000000 1.0
C      1  0.5300820000000  0.4700650000000  0.5631950000000 1.0
C      1  0.5761070000000  0.5657230000000  0.4867910000000 1.0
C      1  0.4237440000000  0.5223690000000  0.4354080000000 1.0
C      1  0.5758730000000  0.4548490000000  0.4488000000000 1.0
C      1  0.4286510000000  0.4317260000000  0.5162220000000 1.0
C      1  0.5750650000000  0.4771790000000  0.5642930000000 1.0
C      1  0.4236750000000  0.5444420000000  0.5503720000000 1.0
C      1  0.4960780000000  0.4346580000000  0.5323040000000 1.0
C      1  0.4985020000000  0.4993750000000  0.5718430000000 1.0
C      1  0.5010770000000  0.5625660000000  0.5359950000000 1.0
C      1  0.4989450000000  0.5630250000000  0.4634320000000 1.0
C      1  0.5011200000000  0.5002890000000  0.4268260000000 1.0
C      1  0.4982340000000  0.4378420000000  0.4645750000000 1.0
C      1  0.5171400000000  0.5325920000000  0.4991430000000 1.0
C      1  0.4826240000000  0.5163460000000  0.4708950000000 1.0
C      1  0.5170270000000  0.4839720000000  0.4715370000000 1.0
C      1  0.4822680000000  0.4674970000000  0.4986150000000 1.0
C      1  0.5172000000000  0.4832690000000  0.5274270000000 1.0
C      1  0.4823030000000  0.5165630000000  0.5274280000000 1.0
C      1  0.4247690000000  0.4557910000000  0.5316260000000 1.0
C      1  0.5770790000000  0.5050180000000  0.5539420000000 1.0
C      1  0.4218160000000  0.5494870000000  0.5210980000000 1.0
C      1  0.5778820000000  0.5429100000000  0.4677510000000 1.0
C      1  0.4220980000000  0.4943870000000  0.4457130000000 1.0
C      1  0.5781020000000  0.4498100000000  0.4781190000000 1.0
C      1  0.4362810000000  0.5746960000000  0.4799490000000 1.0
C      1  0.5638260000000  0.5196320000000  0.4253830000000 1.0
C      1  0.4352390000000  0.4461640000000  0.4488400000000 1.0
C      1  0.5638010000000  0.4250610000000  0.5192010000000 1.0
C      1  0.4358880000000  0.4797380000000  0.5737910000000 1.0
C      1  0.5634790000000  0.5534950000000  0.5545350000000 1.0
C      1  0.4896240000000  0.5203940000000  0.5905810000000 1.0
C      1  0.5103090000000  0.5891560000000  0.5273550000000 1.0
C      1  0.4899650000000  0.5687610000000  0.4359830000000 1.0
C      1  0.5099510000000  0.4786710000000  0.4088010000000 1.0
C      1  0.4908430000000  0.4110340000000  0.4730280000000 1.0
C      1  0.5057250000000  0.4300240000000  0.5611340000000 1.0
C      1  0.5385170000000  0.5863250000000  0.5380050000000 1.0
C      1  0.4616930000000  0.5767020000000  0.4435300000000 1.0
C      1  0.5383800000000  0.4889850000000  0.4055710000000 1.0
C      1  0.4628940000000  0.4113240000000  0.4659050000000 1.0
C      1  0.5346340000000  0.4244070000000  0.5554620000000 1.0
C      1  0.4613500000000  0.5102270000000  0.5936240000000 1.0
C      1  0.4501740000000  0.5822490000000  0.5352380000000 1.0
C      1  0.5499490000000  0.5717140000000  0.4463870000000 1.0
C      1  0.4494840000000  0.4903690000000  0.4104280000000 1.0
C      1  0.5493610000000  0.4173460000000  0.4645260000000 1.0
C      1  0.4495230000000  0.4301170000000  0.5601710000000 1.0
C      1  0.5487080000000  0.5094740000000  0.5890810000000 1.0
C      1  0.4592040000000  0.4807210000000  0.5929920000000 1.0
C      1  0.5402740000000  0.5710340000000  0.5633440000000 1.0
C      1  0.4597010000000  0.5910330000000  0.4694250000000 1.0
C      1  0.5406060000000  0.5186290000000  0.4057430000000 1.0
C      1  0.4578660000000  0.4282210000000  0.4428430000000 1.0
C      1  0.5401940000000  0.4096820000000  0.5303520000000 1.0
C      1  0.5297260000000  0.4452490000000  0.4997590000000 1.0
C      1  0.4705230000000  0.4725860000000  0.5465660000000 1.0
C      1  0.5291160000000  0.5270380000000  0.5473450000000 1.0
C      1  0.4705200000000  0.5552360000000  0.4995270000000 1.0
C      1  0.5294450000000  0.5274390000000  0.4516870000000 1.0
C      1  0.4702070000000  0.4732960000000  0.4508860000000 1.0
C      1  0.5168490000000  0.5249150000000  0.4247360000000 1.0
C      1  0.4820970000000  0.4476500000000  0.4421250000000 1.0
C      1  0.5173590000000  0.4225250000000  0.5144380000000 1.0
C      1  0.4828410000000  0.4748830000000  0.5734920000000 1.0
C      1  0.5164740000000  0.5517090000000  0.5584930000000 1.0
C      1  0.4834000000000  0.5771820000000  0.4839300000000 1.0
C      1  0.4476830000000  0.5179980000000  0.4184410000000 1.0
C      1  0.5515800000000  0.4382560000000  0.4446520000000 1.0
C      1  0.4475430000000  0.4178790000000  0.5342040000000 1.0
C      1  0.5510460000000  0.4817540000000  0.5811890000000 1.0
C      1  0.4477240000000  0.5612660000000  0.5549680000000 1.0
C      1  0.5522800000000  0.5783690000000  0.4744110000000 1.0
C      1  0.4915110000000  0.5462340000000  0.5760830000000 1.0
C      1  0.5084660000000  0.5895040000000  0.4976950000000 1.0
C      1  0.4918370000000  0.5432170000000  0.4208300000000 1.0
C      1  0.5075760000000  0.4529630000000  0.4239800000000 1.0
C      1  0.5011080000000  0.4031750000000  0.4985720000000 1.0
C      1  0.5064340000000  0.4557680000000  0.5763790000000 1.0
C      1  0.5211190000000  0.5001300000000  0.4994930000000 1.0
C      1  0.4781380000000  0.5004660000000  0.4989730000000 1.0
END
