TITL C-3577089-586-476 -4.98593143778793e-06 125000 -265.512974089838 0 0 44 (C1) n - 1
REM
REM in /home/bkarasulu/work/CARBON/AIRSS/Generating-Clusters/EDIP-Nigel-Params/with-SteepDescent/Higher-Symm/SD-CG/HFTN-CG
REM
REM
REM
REM
REM
REM ./C.cell (12c818d87b63d06a65506943cc24bca4)
REM
REM compiler GCC version 9.2.1 20190827 (Red Hat 9.2.1-1)
REM options -cpp -mtune=generic -march=x86-64 -g -O0 -fpre-include=/usr/include/finclude/math-vector-fortran.h
REM seed -271006950 -1610934448 1528596917 1410630847 1435906765 664288961 -868741952 628659121 2109633703 -1704299264 190856275 -464979886 -1548975292 -1916500435 1220404949 -1829906311 562365008 778378929 541181506 793004141 1043021480 705407827 -1357603030 -656239241 -841880809 -551312092 -2050066324 191903844 -381841066 779608187 1869316473 -471236879 236687931
REM
CELL 1.54180   50.00000   50.00000   50.00000   90.00000   90.00000   90.00000
LATT -1
SFAC C  
C      1  0.4414670000000  0.5240880000000  0.4876330000000 1.0
C      1  0.4417390000000  0.5208930000000  0.5176560000000 1.0
C      1  0.4433560000000  0.4917780000000  0.5237290000000 1.0
C      1  0.4439970000000  0.4516280000000  0.4973600000000 1.0
C      1  0.4489500000000  0.4974800000000  0.4752120000000 1.0
C      1  0.4879720000000  0.4699990000000  0.4571190000000 1.0
C      1  0.4975370000000  0.5330180000000  0.4613580000000 1.0
C      1  0.4950220000000  0.5478180000000  0.5112920000000 1.0
C      1  0.4927450000000  0.4976950000000  0.5495700000000 1.0
C      1  0.4881300000000  0.4533710000000  0.5163470000000 1.0
C      1  0.5368510000000  0.5623820000000  0.4907740000000 1.0
C      1  0.5308320000000  0.5251370000000  0.5542030000000 1.0
C      1  0.5286990000000  0.4535700000000  0.5423370000000 1.0
C      1  0.5267910000000  0.4455730000000  0.4683660000000 1.0
C      1  0.5333230000000  0.5126670000000  0.4363220000000 1.0
C      1  0.4627260000000  0.5369010000000  0.5300590000000 1.0
C      1  0.4573670000000  0.4823530000000  0.5472130000000 1.0
C      1  0.4691120000000  0.4380050000000  0.4961200000000 1.0
C      1  0.4728410000000  0.4963390000000  0.4573790000000 1.0
C      1  0.4575970000000  0.5460130000000  0.4803170000000 1.0
C      1  0.5213850000000  0.4990570000000  0.5582260000000 1.0
C      1  0.5174450000000  0.4450750000000  0.5182110000000 1.0
C      1  0.5172120000000  0.4672590000000  0.4530470000000 1.0
C      1  0.5256040000000  0.5336910000000  0.4535580000000 1.0
C      1  0.5242670000000  0.5540430000000  0.5142440000000 1.0
C      1  0.5417430000000  0.5376450000000  0.5316730000000 1.0
C      1  0.5394970000000  0.4789660000000  0.5467220000000 1.0
C      1  0.5346380000000  0.4513470000000  0.4949020000000 1.0
C      1  0.5353410000000  0.4905070000000  0.4536390000000 1.0
C      1  0.5459120000000  0.5431670000000  0.4726830000000 1.0
C      1  0.5627420000000  0.5213580000000  0.4852370000000 1.0
C      1  0.5628830000000  0.5207100000000  0.5179910000000 1.0
C      1  0.5563100000000  0.4892180000000  0.5238010000000 1.0
C      1  0.5548540000000  0.4726840000000  0.4980640000000 1.0
C      1  0.5562660000000  0.4921540000000  0.4748960000000 1.0
C      1  0.4778200000000  0.4626780000000  0.5432700000000 1.0
C      1  0.4782760000000  0.4467540000000  0.4705520000000 1.0
C      1  0.4801290000000  0.5199140000000  0.4434270000000 1.0
C      1  0.4852880000000  0.5486680000000  0.4827510000000 1.0
C      1  0.4858040000000  0.5252990000000  0.5413250000000 1.0
C      1  0.5024790000000  0.5000860000000  0.5069540000000 1.0
C      1  0.4540810000000  0.4796770000000  0.4987460000000 1.0
C      1  0.4853570000000  0.4788410000000  0.5005360000000 1.0
C      1  0.5298870000000  0.5076890000000  0.5018760000000 1.0
END
