TITL C-3577090-796-736 1.82953659948918e-07 125000 -493.02612255738 0 0 80 (C1) n - 1
REM
REM in /home/bkarasulu/work/CARBON/AIRSS/Generating-Clusters/EDIP-Nigel-Params/with-SteepDescent/Higher-Symm/SD-CG/HFTN-CG
REM
REM
REM
REM
REM
REM ./C.cell (12c818d87b63d06a65506943cc24bca4)
REM
REM compiler GCC version 9.2.1 20190827 (Red Hat 9.2.1-1)
REM options -cpp -mtune=generic -march=x86-64 -g -O0 -fpre-include=/usr/include/finclude/math-vector-fortran.h
REM seed 1006057435 2047484780 -781041126 -1375610128 1760912269 -1554010441 1632104359 26422982 -88776974 51303174 -1331360266 -1211454976 -400346873 -113350464 -1365910955 549285480 1114982907 -891973398 200851490 1932391377 891760792 163926638 -1259213210 -84429338 -1874211286 -1355742940 -1029558277 -1525352251 399868361 1637936327 -1086127001 2094023861 1342110479
REM
CELL 1.54180   50.00000   50.00000   50.00000   90.00000   90.00000   90.00000
LATT -1
SFAC C  
C      1  0.5331400000000  0.5526470000000  0.4771370000000 1.0
C      1  0.5075850000000  0.5495960000000  0.4624000000000 1.0
C      1  0.5398730000000  0.5259270000000  0.4370970000000 1.0
C      1  0.4904810000000  0.5429780000000  0.5536220000000 1.0
C      1  0.4694730000000  0.4199450000000  0.4980020000000 1.0
C      1  0.5264000000000  0.4485890000000  0.4403510000000 1.0
C      1  0.4749780000000  0.4803040000000  0.5746890000000 1.0
C      1  0.5104730000000  0.5504930000000  0.5152690000000 1.0
C      1  0.5261530000000  0.4337280000000  0.5360970000000 1.0
C      1  0.5531830000000  0.4773360000000  0.5487670000000 1.0
C      1  0.5674200000000  0.5299780000000  0.5532500000000 1.0
C      1  0.4698160000000  0.5158790000000  0.4623130000000 1.0
C      1  0.5739290000000  0.4857010000000  0.4781730000000 1.0
C      1  0.4540380000000  0.4814210000000  0.5560290000000 1.0
C      1  0.5609870000000  0.4664740000000  0.4614470000000 1.0
C      1  0.4473780000000  0.4746540000000  0.4371740000000 1.0
C      1  0.4977070000000  0.4443990000000  0.5292030000000 1.0
C      1  0.4916040000000  0.5244590000000  0.4232320000000 1.0
C      1  0.4445330000000  0.5524640000000  0.5339260000000 1.0
C      1  0.4905170000000  0.4725820000000  0.4163620000000 1.0
C      1  0.5023410000000  0.4747310000000  0.5239250000000 1.0
C      1  0.4526680000000  0.5258950000000  0.5704250000000 1.0
C      1  0.4779290000000  0.4408730000000  0.4530750000000 1.0
C      1  0.5210750000000  0.5191830000000  0.5160280000000 1.0
C      1  0.5390820000000  0.5266000000000  0.5556070000000 1.0
C      1  0.4906930000000  0.5297140000000  0.4790950000000 1.0
C      1  0.4446430000000  0.5070980000000  0.4743510000000 1.0
C      1  0.4398320000000  0.5071300000000  0.5523880000000 1.0
C      1  0.5139660000000  0.5412050000000  0.4338300000000 1.0
C      1  0.5079410000000  0.4361490000000  0.4577160000000 1.0
C      1  0.4371360000000  0.4531250000000  0.4875410000000 1.0
C      1  0.5457420000000  0.5766260000000  0.5195660000000 1.0
C      1  0.4716910000000  0.4369880000000  0.5429210000000 1.0
C      1  0.4712550000000  0.5153330000000  0.5203030000000 1.0
C      1  0.5320650000000  0.5783030000000  0.4925710000000 1.0
C      1  0.5795100000000  0.4756760000000  0.5041410000000 1.0
C      1  0.4925210000000  0.4716080000000  0.4789430000000 1.0
C      1  0.5292740000000  0.4986530000000  0.4722730000000 1.0
C      1  0.5026320000000  0.4822020000000  0.5714440000000 1.0
C      1  0.4812020000000  0.5412940000000  0.5065050000000 1.0
C      1  0.4332810000000  0.5276430000000  0.4922820000000 1.0
C      1  0.5169930000000  0.4269550000000  0.4862000000000 1.0
C      1  0.4593410000000  0.5631780000000  0.5102860000000 1.0
C      1  0.5096920000000  0.5106620000000  0.4899150000000 1.0
C      1  0.5024300000000  0.5812290000000  0.4938700000000 1.0
C      1  0.4828230000000  0.5143840000000  0.5484770000000 1.0
C      1  0.5197750000000  0.5495350000000  0.5578930000000 1.0
C      1  0.4993520000000  0.4956620000000  0.4321380000000 1.0
C      1  0.5372070000000  0.4372250000000  0.5078930000000 1.0
C      1  0.5272530000000  0.5731270000000  0.5424010000000 1.0
C      1  0.5288490000000  0.4973890000000  0.4414910000000 1.0
C      1  0.4448440000000  0.5558290000000  0.4854920000000 1.0
C      1  0.5376010000000  0.4527580000000  0.5568230000000 1.0
C      1  0.5439150000000  0.4705670000000  0.4385170000000 1.0
C      1  0.4173490000000  0.4663130000000  0.4714770000000 1.0
C      1  0.5260880000000  0.4700110000000  0.4786200000000 1.0
C      1  0.5185080000000  0.4597260000000  0.5764790000000 1.0
C      1  0.5537890000000  0.5358210000000  0.4629470000000 1.0
C      1  0.5082330000000  0.4969160000000  0.5453900000000 1.0
C      1  0.4666800000000  0.5330230000000  0.4377550000000 1.0
C      1  0.5463160000000  0.5000570000000  0.5658750000000 1.0
C      1  0.4489630000000  0.4576890000000  0.5377610000000 1.0
C      1  0.5709740000000  0.5326770000000  0.5251750000000 1.0
C      1  0.4614670000000  0.5517310000000  0.5592350000000 1.0
C      1  0.4781550000000  0.4838820000000  0.5056860000000 1.0
C      1  0.5679200000000  0.5594370000000  0.5183790000000 1.0
C      1  0.5314050000000  0.4672700000000  0.5075620000000 1.0
C      1  0.4565940000000  0.4326220000000  0.4744350000000 1.0
C      1  0.4900840000000  0.5735480000000  0.4673520000000 1.0
C      1  0.4927240000000  0.4380600000000  0.4993210000000 1.0
C      1  0.4836460000000  0.4910540000000  0.4562490000000 1.0
C      1  0.5513480000000  0.5135400000000  0.5116230000000 1.0
C      1  0.4695210000000  0.4584150000000  0.4301170000000 1.0
C      1  0.4317100000000  0.4858340000000  0.4579780000000 1.0
C      1  0.4556500000000  0.4220730000000  0.5236720000000 1.0
C      1  0.4414750000000  0.5229050000000  0.5244840000000 1.0
C      1  0.4628640000000  0.5607600000000  0.4617620000000 1.0
C      1  0.5553860000000  0.4832200000000  0.5189240000000 1.0
C      1  0.4507270000000  0.4693450000000  0.5101210000000 1.0
C      1  0.5562050000000  0.5099870000000  0.4807580000000 1.0
END
