TITL C-3577091-527-378 -2.65472336743221e-06 125000 -1026.93524827783 0 0 164 (C1) n - 1
REM
REM in /home/bkarasulu/work/CARBON/AIRSS/Generating-Clusters/EDIP-Nigel-Params/with-SteepDescent/Higher-Symm/SD-CG/HFTN-CG
REM
REM
REM
REM
REM
REM ./C.cell (12c818d87b63d06a65506943cc24bca4)
REM
REM compiler GCC version 9.2.1 20190827 (Red Hat 9.2.1-1)
REM options -cpp -mtune=generic -march=x86-64 -g -O0 -fpre-include=/usr/include/finclude/math-vector-fortran.h
REM seed 20415123 303621243 1784311817 1922114494 1643365207 1927156992 1456932976 64725592 -323288102 -2059466108 -1688099604 -1105690324 -609494828 -662952715 1252465237 893085123 257804861 -1430968643 -887277280 1115141633 260247925 -462795615 -696269201 677351612 1486493103 -1050710909 -1478984796 720894618 -1614233312 -573149182 -1648771710 715179147 108126259
REM
CELL 1.54180   50.00000   50.00000   50.00000   90.00000   90.00000   90.00000
LATT -1
SFAC C  
C      1  0.4699940000000  0.4324680000000  0.4241150000000 1.0
C      1  0.4171200000000  0.4250070000000  0.4974310000000 1.0
C      1  0.4515360000000  0.4298800000000  0.5654210000000 1.0
C      1  0.5322600000000  0.4282610000000  0.5722600000000 1.0
C      1  0.5803480000000  0.4278380000000  0.5106320000000 1.0
C      1  0.5418650000000  0.4293310000000  0.4256150000000 1.0
C      1  0.4723040000000  0.5645310000000  0.4229410000000 1.0
C      1  0.4169320000000  0.5742010000000  0.4947480000000 1.0
C      1  0.4495840000000  0.5680490000000  0.5644620000000 1.0
C      1  0.5290400000000  0.5743240000000  0.5750320000000 1.0
C      1  0.5805800000000  0.5686640000000  0.5166160000000 1.0
C      1  0.5467510000000  0.5699210000000  0.4292260000000 1.0
C      1  0.5672390000000  0.5298330000000  0.4489950000000 1.0
C      1  0.5017580000000  0.5126190000000  0.4190830000000 1.0
C      1  0.4209620000000  0.5309110000000  0.4705360000000 1.0
C      1  0.4346550000000  0.5219860000000  0.5357680000000 1.0
C      1  0.5125860000000  0.5277760000000  0.5835170000000 1.0
C      1  0.5639200000000  0.5179230000000  0.5447110000000 1.0
C      1  0.5639110000000  0.4682360000000  0.4439130000000 1.0
C      1  0.5106100000000  0.4866940000000  0.4329860000000 1.0
C      1  0.4206330000000  0.4683800000000  0.4726670000000 1.0
C      1  0.4339110000000  0.4792140000000  0.5385720000000 1.0
C      1  0.5126150000000  0.4713220000000  0.5817430000000 1.0
C      1  0.5743460000000  0.4738780000000  0.5295700000000 1.0
C      1  0.5633070000000  0.4296330000000  0.4855060000000 1.0
C      1  0.5151500000000  0.4405990000000  0.4318940000000 1.0
C      1  0.4586470000000  0.4322520000000  0.4521500000000 1.0
C      1  0.4353030000000  0.4356140000000  0.5183400000000 1.0
C      1  0.4819560000000  0.4334670000000  0.5626490000000 1.0
C      1  0.5455710000000  0.4366730000000  0.5460640000000 1.0
C      1  0.5661970000000  0.5699140000000  0.4895130000000 1.0
C      1  0.5196140000000  0.5585260000000  0.4344210000000 1.0
C      1  0.4600670000000  0.5659670000000  0.4505640000000 1.0
C      1  0.4346140000000  0.5635190000000  0.5161750000000 1.0
C      1  0.4799830000000  0.5645600000000  0.5632270000000 1.0
C      1  0.5435240000000  0.5649740000000  0.5496210000000 1.0
C      1  0.5268550000000  0.3921550000000  0.5106810000000 1.0
C      1  0.5266400000000  0.3975370000000  0.4825110000000 1.0
C      1  0.5010850000000  0.3951560000000  0.4683670000000 1.0
C      1  0.4763650000000  0.3980370000000  0.4833400000000 1.0
C      1  0.4769070000000  0.3927020000000  0.5124050000000 1.0
C      1  0.5025100000000  0.3899460000000  0.5253130000000 1.0
C      1  0.5264110000000  0.6064970000000  0.5112410000000 1.0
C      1  0.5277080000000  0.6031850000000  0.4827960000000 1.0
C      1  0.5022920000000  0.6033360000000  0.4677500000000 1.0
C      1  0.4770540000000  0.6006290000000  0.4819690000000 1.0
C      1  0.4764360000000  0.6059100000000  0.5110930000000 1.0
C      1  0.5014040000000  0.6090380000000  0.5248710000000 1.0
C      1  0.5524650000000  0.4057160000000  0.4705920000000 1.0
C      1  0.4986130000000  0.3983270000000  0.4408700000000 1.0
C      1  0.4528610000000  0.4063220000000  0.4669280000000 1.0
C      1  0.4554280000000  0.3957620000000  0.5299350000000 1.0
C      1  0.5046050000000  0.3920800000000  0.5529290000000 1.0
C      1  0.5505490000000  0.3942100000000  0.5248940000000 1.0
C      1  0.5544520000000  0.5938550000000  0.4733450000000 1.0
C      1  0.5005860000000  0.5998940000000  0.4401540000000 1.0
C      1  0.4541140000000  0.5921970000000  0.4648350000000 1.0
C      1  0.4547730000000  0.6026740000000  0.5284870000000 1.0
C      1  0.5012650000000  0.6070190000000  0.5525530000000 1.0
C      1  0.5500620000000  0.6050700000000  0.5256290000000 1.0
C      1  0.4372030000000  0.5153800000000  0.4958990000000 1.0
C      1  0.4628900000000  0.5152490000000  0.5508380000000 1.0
C      1  0.5268350000000  0.5143520000000  0.5566670000000 1.0
C      1  0.5590550000000  0.5162090000000  0.5133810000000 1.0
C      1  0.5415120000000  0.5145100000000  0.4563740000000 1.0
C      1  0.4726170000000  0.5137800000000  0.4443670000000 1.0
C      1  0.4366240000000  0.4844960000000  0.4978470000000 1.0
C      1  0.4632500000000  0.4827660000000  0.5515600000000 1.0
C      1  0.5229460000000  0.4852460000000  0.5560750000000 1.0
C      1  0.5541130000000  0.4866120000000  0.5118390000000 1.0
C      1  0.5355920000000  0.4868500000000  0.4513090000000 1.0
C      1  0.4808170000000  0.4836370000000  0.4452610000000 1.0
C      1  0.4851520000000  0.5293430000000  0.5366040000000 1.0
C      1  0.5143560000000  0.5257900000000  0.5301110000000 1.0
C      1  0.5419160000000  0.5336170000000  0.4961060000000 1.0
C      1  0.5222860000000  0.5257700000000  0.4762580000000 1.0
C      1  0.4764310000000  0.5288740000000  0.4693440000000 1.0
C      1  0.4661380000000  0.5254670000000  0.4971520000000 1.0
C      1  0.4862150000000  0.4694630000000  0.5369670000000 1.0
C      1  0.5148390000000  0.4740210000000  0.5284960000000 1.0
C      1  0.5428280000000  0.4686930000000  0.4913780000000 1.0
C      1  0.5197780000000  0.4750550000000  0.4750650000000 1.0
C      1  0.4743260000000  0.4694620000000  0.4707660000000 1.0
C      1  0.4656890000000  0.4737900000000  0.4985210000000 1.0
C      1  0.5576140000000  0.4529260000000  0.4188890000000 1.0
C      1  0.4676610000000  0.4620030000000  0.4159180000000 1.0
C      1  0.4023210000000  0.4490050000000  0.4873430000000 1.0
C      1  0.4425100000000  0.4586240000000  0.5750890000000 1.0
C      1  0.5357100000000  0.4540820000000  0.5900590000000 1.0
C      1  0.5928360000000  0.4561800000000  0.5130750000000 1.0
C      1  0.5629520000000  0.5457740000000  0.4234980000000 1.0
C      1  0.4656280000000  0.5356270000000  0.4127620000000 1.0
C      1  0.4021050000000  0.5500050000000  0.4845850000000 1.0
C      1  0.4412750000000  0.5378080000000  0.5751400000000 1.0
C      1  0.5316120000000  0.5491580000000  0.5924130000000 1.0
C      1  0.5917300000000  0.5373650000000  0.5174010000000 1.0
C      1  0.5127140000000  0.5543750000000  0.4668310000000 1.0
C      1  0.4811750000000  0.5576130000000  0.4720510000000 1.0
C      1  0.4649560000000  0.5554540000000  0.5072210000000 1.0
C      1  0.4850690000000  0.5587290000000  0.5326050000000 1.0
C      1  0.5224790000000  0.5575270000000  0.5274000000000 1.0
C      1  0.5347120000000  0.5625280000000  0.4975020000000 1.0
C      1  0.5109180000000  0.4451380000000  0.4655610000000 1.0
C      1  0.4802560000000  0.4409730000000  0.4729810000000 1.0
C      1  0.4649410000000  0.4436800000000  0.5083040000000 1.0
C      1  0.4864950000000  0.4402750000000  0.5320960000000 1.0
C      1  0.5240240000000  0.4434400000000  0.5246070000000 1.0
C      1  0.5352260000000  0.4391280000000  0.4949360000000 1.0
C      1  0.5583830000000  0.4732210000000  0.5799180000000 1.0
C      1  0.5938600000000  0.4685970000000  0.4852640000000 1.0
C      1  0.5417300000000  0.4719830000000  0.4020770000000 1.0
C      1  0.4419870000000  0.4730050000000  0.4275270000000 1.0
C      1  0.3971600000000  0.4694080000000  0.5103450000000 1.0
C      1  0.4635230000000  0.4702570000000  0.5927790000000 1.0
C      1  0.5567340000000  0.5318840000000  0.5861730000000 1.0
C      1  0.5939570000000  0.5261460000000  0.4893060000000 1.0
C      1  0.5465820000000  0.5270800000000  0.4060130000000 1.0
C      1  0.4382970000000  0.5288030000000  0.4236330000000 1.0
C      1  0.3969150000000  0.5290130000000  0.5078590000000 1.0
C      1  0.4629840000000  0.5259560000000  0.5926560000000 1.0
C      1  0.4291090000000  0.5913770000000  0.4766980000000 1.0
C      1  0.4391190000000  0.5820140000000  0.5394170000000 1.0
C      1  0.5010920000000  0.5857010000000  0.5707120000000 1.0
C      1  0.5634660000000  0.5832840000000  0.5366080000000 1.0
C      1  0.5567760000000  0.5893160000000  0.4462300000000 1.0
C      1  0.4990430000000  0.5771310000000  0.4239870000000 1.0
C      1  0.4282140000000  0.4072020000000  0.4793710000000 1.0
C      1  0.4401480000000  0.4165530000000  0.5409320000000 1.0
C      1  0.5050440000000  0.4143910000000  0.5698530000000 1.0
C      1  0.5646060000000  0.4167050000000  0.5333910000000 1.0
C      1  0.5523860000000  0.4107200000000  0.4433470000000 1.0
C      1  0.4959640000000  0.4200500000000  0.4236550000000 1.0
C      1  0.4367530000000  0.5451620000000  0.4486640000000 1.0
C      1  0.4175720000000  0.5415750000000  0.5251940000000 1.0
C      1  0.4855300000000  0.5393130000000  0.5796650000000 1.0
C      1  0.5605400000000  0.5426210000000  0.5593690000000 1.0
C      1  0.5779340000000  0.5452070000000  0.4729560000000 1.0
C      1  0.5204770000000  0.5346240000000  0.4162670000000 1.0
C      1  0.4372820000000  0.4552760000000  0.4509100000000 1.0
C      1  0.4185830000000  0.4579650000000  0.5276470000000 1.0
C      1  0.4865440000000  0.4579790000000  0.5796890000000 1.0
C      1  0.5606120000000  0.4616160000000  0.5527880000000 1.0
C      1  0.5760770000000  0.4521270000000  0.4676220000000 1.0
C      1  0.5134380000000  0.4663050000000  0.4121860000000 1.0
C      1  0.5938800000000  0.5160990000000  0.5411180000000 1.0
C      1  0.5878580000000  0.5113820000000  0.4422820000000 1.0
C      1  0.4843720000000  0.5059510000000  0.3961930000000 1.0
C      1  0.4040290000000  0.5125960000000  0.4567890000000 1.0
C      1  0.4200180000000  0.5165380000000  0.5618040000000 1.0
C      1  0.5110590000000  0.5093750000000  0.6050910000000 1.0
C      1  0.5985530000000  0.4888090000000  0.5351930000000 1.0
C      1  0.5850340000000  0.4855890000000  0.4361420000000 1.0
C      1  0.4865820000000  0.4760430000000  0.3957570000000 1.0
C      1  0.4031550000000  0.4860300000000  0.4587640000000 1.0
C      1  0.4198460000000  0.4877460000000  0.5635410000000 1.0
C      1  0.5153980000000  0.4829770000000  0.6078970000000 1.0
C      1  0.3974830000000  0.4990320000000  0.5059470000000 1.0
C      1  0.5507360000000  0.4988970000000  0.4037000000000 1.0
C      1  0.4350340000000  0.5006220000000  0.4270580000000 1.0
C      1  0.5951880000000  0.4976440000000  0.4838560000000 1.0
C      1  0.4638000000000  0.4981200000000  0.5975240000000 1.0
C      1  0.5569970000000  0.5022650000000  0.5855180000000 1.0
C      1  0.5032480000000  0.5136860000000  0.5001670000000 1.0
C      1  0.5028530000000  0.4853460000000  0.4998490000000 1.0
END
