TITL C-3577079-311-765 1.9405035876e-07 125000 -1003.03725350578 0 0 163 (C1) n - 1
REM
REM in /home/bkarasulu/work/CARBON/AIRSS/Generating-Clusters/EDIP-Nigel-Params/with-SteepDescent/Higher-Symm/SD-CG/HFTN-CG
REM
REM
REM
REM
REM
REM ./C.cell (12c818d87b63d06a65506943cc24bca4)
REM
REM compiler GCC version 9.2.1 20190827 (Red Hat 9.2.1-1)
REM options -cpp -mtune=generic -march=x86-64 -g -O0 -fpre-include=/usr/include/finclude/math-vector-fortran.h
REM seed 548141351 -1926842605 -1903974050 813704373 -619628067 1990872934 -1152885847 1353548041 2031217278 -1059629352 -2077998801 1491312576 1827223706 321520762 1390161531 1110853521 2009046702 534185868 1131366937 -254439972 1001534853 -1188001710 -853647622 725861588 -2031403463 1361962276 927237423 -1826933312 -1077938136 1012586198 -1285952210 565502912 -1187076774
REM
CELL 1.54180   50.00000   50.00000   50.00000   90.00000   90.00000   90.00000
LATT -1
SFAC C  
C      1  0.6150270000000  0.4626270000000  0.5106260000000 1.0
C      1  0.5714950000000  0.5972410000000  0.5071590000000 1.0
C      1  0.4325390000000  0.5894840000000  0.5052900000000 1.0
C      1  0.3843830000000  0.4624440000000  0.5118970000000 1.0
C      1  0.5005290000000  0.3823740000000  0.5050740000000 1.0
C      1  0.5077930000000  0.4790840000000  0.4084480000000 1.0
C      1  0.5327770000000  0.4958810000000  0.4050340000000 1.0
C      1  0.5286690000000  0.5220640000000  0.4230110000000 1.0
C      1  0.4749960000000  0.5134690000000  0.4216230000000 1.0
C      1  0.4631780000000  0.4764310000000  0.3887520000000 1.0
C      1  0.4326660000000  0.5660610000000  0.5493440000000 1.0
C      1  0.4170100000000  0.4561110000000  0.5496790000000 1.0
C      1  0.5167380000000  0.4032620000000  0.5480590000000 1.0
C      1  0.5956200000000  0.4857510000000  0.5509190000000 1.0
C      1  0.5425650000000  0.5863710000000  0.5460920000000 1.0
C      1  0.5672280000000  0.4803750000000  0.4519390000000 1.0
C      1  0.5520410000000  0.5621720000000  0.4474890000000 1.0
C      1  0.4499780000000  0.5631450000000  0.4528970000000 1.0
C      1  0.4256510000000  0.4756650000000  0.4496390000000 1.0
C      1  0.4999150000000  0.4289560000000  0.4469830000000 1.0
C      1  0.4382440000000  0.4558850000000  0.4687740000000 1.0
C      1  0.5260840000000  0.4329760000000  0.4644320000000 1.0
C      1  0.5729200000000  0.5016170000000  0.4720080000000 1.0
C      1  0.5233950000000  0.5705900000000  0.4609630000000 1.0
C      1  0.4443460000000  0.5494620000000  0.4789250000000 1.0
C      1  0.4846200000000  0.6040100000000  0.5046360000000 1.0
C      1  0.3874080000000  0.5171630000000  0.5148280000000 1.0
C      1  0.4529540000000  0.4074890000000  0.5070840000000 1.0
C      1  0.5749110000000  0.4239010000000  0.5091700000000 1.0
C      1  0.5938170000000  0.5472070000000  0.5108430000000 1.0
C      1  0.5208120000000  0.4957330000000  0.5485050000000 1.0
C      1  0.5031010000000  0.5182880000000  0.5369110000000 1.0
C      1  0.4746750000000  0.5178350000000  0.5593330000000 1.0
C      1  0.4737970000000  0.4825270000000  0.5579760000000 1.0
C      1  0.5012700000000  0.4736870000000  0.5465420000000 1.0
C      1  0.4679320000000  0.5232670000000  0.4828910000000 1.0
C      1  0.4607270000000  0.4692370000000  0.4834680000000 1.0
C      1  0.5175910000000  0.4563710000000  0.4845580000000 1.0
C      1  0.5484160000000  0.5062750000000  0.4869690000000 1.0
C      1  0.5130110000000  0.5456260000000  0.4773630000000 1.0
C      1  0.5133960000000  0.4280240000000  0.4199010000000 1.0
C      1  0.5767970000000  0.4925720000000  0.4250660000000 1.0
C      1  0.5399650000000  0.5705120000000  0.4195940000000 1.0
C      1  0.4471490000000  0.5475320000000  0.4278160000000 1.0
C      1  0.4340940000000  0.4633630000000  0.4229040000000 1.0
C      1  0.5196800000000  0.4216370000000  0.5712040000000 1.0
C      1  0.5790090000000  0.4943840000000  0.5737540000000 1.0
C      1  0.5309360000000  0.5741520000000  0.5698480000000 1.0
C      1  0.4440830000000  0.5483620000000  0.5701040000000 1.0
C      1  0.4375180000000  0.4602900000000  0.5701670000000 1.0
C      1  0.5063340000000  0.4518350000000  0.5286310000000 1.0
C      1  0.5463310000000  0.4920350000000  0.5321960000000 1.0
C      1  0.5184900000000  0.5424290000000  0.5269730000000 1.0
C      1  0.4622330000000  0.5324210000000  0.5253950000000 1.0
C      1  0.4599410000000  0.4843480000000  0.5273390000000 1.0
C      1  0.5405990000000  0.5446640000000  0.4048500000000 1.0
C      1  0.4722130000000  0.5424150000000  0.4133340000000 1.0
C      1  0.4353350000000  0.4822100000000  0.3999770000000 1.0
C      1  0.5032770000000  0.4490480000000  0.4003650000000 1.0
C      1  0.5578110000000  0.4799030000000  0.4063850000000 1.0
C      1  0.5514900000000  0.5310840000000  0.4466720000000 1.0
C      1  0.4987870000000  0.5129340000000  0.4403250000000 1.0
C      1  0.4474560000000  0.4992060000000  0.4446870000000 1.0
C      1  0.4866430000000  0.4567180000000  0.4475060000000 1.0
C      1  0.5355870000000  0.4788090000000  0.4507470000000 1.0
C      1  0.4219550000000  0.4336990000000  0.5340560000000 1.0
C      1  0.5386900000000  0.4026360000000  0.5310000000000 1.0
C      1  0.6039980000000  0.5072950000000  0.5356550000000 1.0
C      1  0.5245200000000  0.5982320000000  0.5288590000000 1.0
C      1  0.4105210000000  0.5545730000000  0.5366680000000 1.0
C      1  0.5590490000000  0.5371000000000  0.5954690000000 1.0
C      1  0.4871010000000  0.5681230000000  0.5923530000000 1.0
C      1  0.4355900000000  0.5058380000000  0.5949320000000 1.0
C      1  0.4757410000000  0.4362040000000  0.5923270000000 1.0
C      1  0.5525640000000  0.4539910000000  0.5936530000000 1.0
C      1  0.5446530000000  0.4200830000000  0.5087550000000 1.0
C      1  0.5893690000000  0.5178070000000  0.5131750000000 1.0
C      1  0.5106140000000  0.5888600000000  0.5054950000000 1.0
C      1  0.4109940000000  0.5371260000000  0.5137410000000 1.0
C      1  0.4379070000000  0.4336700000000  0.5101230000000 1.0
C      1  0.4217220000000  0.4385110000000  0.4861330000000 1.0
C      1  0.5352600000000  0.4100900000000  0.4821150000000 1.0
C      1  0.5974830000000  0.5047010000000  0.4880970000000 1.0
C      1  0.5267820000000  0.5932380000000  0.4810880000000 1.0
C      1  0.4145410000000  0.5525130000000  0.4888400000000 1.0
C      1  0.4859680000000  0.5194910000000  0.5877860000000 1.0
C      1  0.4834790000000  0.4890690000000  0.5898660000000 1.0
C      1  0.5106230000000  0.4800560000000  0.5935200000000 1.0
C      1  0.5245980000000  0.5001350000000  0.5784600000000 1.0
C      1  0.5140520000000  0.5251070000000  0.5874880000000 1.0
C      1  0.5830520000000  0.4366320000000  0.5354400000000 1.0
C      1  0.5847930000000  0.5599390000000  0.5361300000000 1.0
C      1  0.4709870000000  0.5994140000000  0.5325940000000 1.0
C      1  0.3921350000000  0.5013240000000  0.5405100000000 1.0
C      1  0.4665820000000  0.4013680000000  0.5331270000000 1.0
C      1  0.3963650000000  0.4724790000000  0.5361430000000 1.0
C      1  0.4948360000000  0.3963400000000  0.5292500000000 1.0
C      1  0.6004490000000  0.4605810000000  0.5352370000000 1.0
C      1  0.5686330000000  0.5842210000000  0.5328090000000 1.0
C      1  0.4417020000000  0.5905590000000  0.5335910000000 1.0
C      1  0.5186590000000  0.3877220000000  0.4847410000000 1.0
C      1  0.6152250000000  0.4831910000000  0.4919840000000 1.0
C      1  0.5519040000000  0.6038480000000  0.4881710000000 1.0
C      1  0.4076340000000  0.5786840000000  0.4972700000000 1.0
C      1  0.3951240000000  0.4452540000000  0.4927400000000 1.0
C      1  0.4160310000000  0.4805770000000  0.4976910000000 1.0
C      1  0.4930220000000  0.4184050000000  0.4911800000000 1.0
C      1  0.5780280000000  0.4664610000000  0.4978470000000 1.0
C      1  0.5555190000000  0.5635040000000  0.4963260000000 1.0
C      1  0.4557320000000  0.5720800000000  0.4958070000000 1.0
C      1  0.5021110000000  0.5783590000000  0.5713160000000 1.0
C      1  0.4284320000000  0.5245500000000  0.5756400000000 1.0
C      1  0.4561720000000  0.4382760000000  0.5727270000000 1.0
C      1  0.5456520000000  0.4348890000000  0.5743820000000 1.0
C      1  0.5742150000000  0.5238370000000  0.5758180000000 1.0
C      1  0.5476910000000  0.5420780000000  0.5213570000000 1.0
C      1  0.4744500000000  0.5589140000000  0.5165430000000 1.0
C      1  0.4316040000000  0.4954110000000  0.5222490000000 1.0
C      1  0.4835870000000  0.4378920000000  0.5175380000000 1.0
C      1  0.5538030000000  0.4656440000000  0.5206770000000 1.0
C      1  0.5040680000000  0.5578380000000  0.5064960000000 1.0
C      1  0.4363980000000  0.5228520000000  0.5139180000000 1.0
C      1  0.4598120000000  0.4574180000000  0.5114940000000 1.0
C      1  0.5301950000000  0.4484060000000  0.5118130000000 1.0
C      1  0.5574900000000  0.5136580000000  0.5150020000000 1.0
C      1  0.4154920000000  0.5122950000000  0.5534080000000 1.0
C      1  0.4632790000000  0.4254920000000  0.5483420000000 1.0
C      1  0.5588890000000  0.4407560000000  0.5499890000000 1.0
C      1  0.5716210000000  0.5395280000000  0.5517390000000 1.0
C      1  0.4872840000000  0.5800290000000  0.5465730000000 1.0
C      1  0.4924690000000  0.5606850000000  0.4197280000000 1.0
C      1  0.4275570000000  0.5091710000000  0.4053030000000 1.0
C      1  0.4730770000000  0.4489510000000  0.3979310000000 1.0
C      1  0.5535820000000  0.4529320000000  0.4133950000000 1.0
C      1  0.5671710000000  0.5352280000000  0.4001770000000 1.0
C      1  0.5299510000000  0.4830710000000  0.4786330000000 1.0
C      1  0.5385320000000  0.5297500000000  0.4745390000000 1.0
C      1  0.4919730000000  0.5286850000000  0.4657140000000 1.0
C      1  0.4562030000000  0.4985400000000  0.4731300000000 1.0
C      1  0.4871360000000  0.4596310000000  0.4764770000000 1.0
C      1  0.5453590000000  0.5600200000000  0.5894490000000 1.0
C      1  0.4626680000000  0.5571680000000  0.5887980000000 1.0
C      1  0.4350300000000  0.4792300000000  0.5902950000000 1.0
C      1  0.4999180000000  0.4244440000000  0.5905490000000 1.0
C      1  0.5688300000000  0.4756860000000  0.5919990000000 1.0
C      1  0.5404760000000  0.4341240000000  0.4288950000000 1.0
C      1  0.5733350000000  0.5225720000000  0.4250860000000 1.0
C      1  0.5125880000000  0.5760580000000  0.4315510000000 1.0
C      1  0.4323670000000  0.5216900000000  0.4302480000000 1.0
C      1  0.4606610000000  0.4501430000000  0.4247140000000 1.0
C      1  0.4062380000000  0.4957400000000  0.4718970000000 1.0
C      1  0.4796290000000  0.4080560000000  0.4591430000000 1.0
C      1  0.5767220000000  0.4536050000000  0.4664480000000 1.0
C      1  0.5741280000000  0.5726530000000  0.4659150000000 1.0
C      1  0.4662060000000  0.5861750000000  0.4563780000000 1.0
C      1  0.4618700000000  0.3979700000000  0.4805860000000 1.0
C      1  0.5869630000000  0.4316360000000  0.4836680000000 1.0
C      1  0.5921800000000  0.5590420000000  0.4841020000000 1.0
C      1  0.4705740000000  0.6033040000000  0.4782950000000 1.0
C      1  0.3840730000000  0.5014540000000  0.4903320000000 1.0
C      1  0.4837250000000  0.4952590000000  0.3992780000000 1.0
C      1  0.5067590000000  0.4804340000000  0.4388450000000 1.0
C      1  0.4795270000000  0.5084060000000  0.5156260000000 1.0
END
