TITL C-3577090-796-195 1.93811306629848e-07 125000 -531.271489531712 0 0 84 (Cs) n - 1
REM
REM in /home/bkarasulu/work/CARBON/AIRSS/Generating-Clusters/EDIP-Nigel-Params/with-SteepDescent/Higher-Symm/SD-CG/HFTN-CG
REM
REM
REM
REM
REM
REM ./C.cell (12c818d87b63d06a65506943cc24bca4)
REM
REM compiler GCC version 9.2.1 20190827 (Red Hat 9.2.1-1)
REM options -cpp -mtune=generic -march=x86-64 -g -O0 -fpre-include=/usr/include/finclude/math-vector-fortran.h
REM seed 957351658 -196125794 -1849787994 1975541630 879341743 2003017449 1465641125 1542989884 1274135486 -1817213799 1225023319 1492286224 1400385502 1709471539 -845742008 1284297276 -62112964 1979412917 -683126545 -1394732407 -689296688 -1490938540 104431026 -500674900 -1080300650 -1889454612 -953998721 766134446 1845708785 1433246144 914935286 -2097978365 999753519
REM
CELL 1.54180   50.00000   50.00000   50.00000   90.00000   90.00000   90.00000
LATT -1
SFAC C  
C      1  0.4333490000000  0.4661940000000  0.4776940000000 1.0
C      1  0.5142660000000  0.4658530000000  0.5686360000000 1.0
C      1  0.5540400000000  0.4634840000000  0.4519220000000 1.0
C      1  0.5666510000000  0.4661950000000  0.4776940000000 1.0
C      1  0.4857350000000  0.4658530000000  0.5686360000000 1.0
C      1  0.4459610000000  0.4634830000000  0.4519220000000 1.0
C      1  0.5163070000000  0.5108280000000  0.4300010000000 1.0
C      1  0.4308840000000  0.5105030000000  0.5209670000000 1.0
C      1  0.5529460000000  0.5106080000000  0.5490110000000 1.0
C      1  0.4836930000000  0.5108280000000  0.4300010000000 1.0
C      1  0.5691160000000  0.5105040000000  0.5209670000000 1.0
C      1  0.4470540000000  0.5106070000000  0.5490110000000 1.0
C      1  0.5152850000000  0.4816110000000  0.4733200000000 1.0
C      1  0.4690510000000  0.4808030000000  0.4999050000000 1.0
C      1  0.5154720000000  0.4806810000000  0.5267350000000 1.0
C      1  0.4847150000000  0.4816110000000  0.4733200000000 1.0
C      1  0.5309490000000  0.4808030000000  0.4999050000000 1.0
C      1  0.4845280000000  0.4806810000000  0.5267350000000 1.0
C      1  0.5721360000000  0.4608540000000  0.5242770000000 1.0
C      1  0.4853230000000  0.4616800000000  0.4276290000000 1.0
C      1  0.4425380000000  0.4608370000000  0.5498900000000 1.0
C      1  0.4278650000000  0.4608530000000  0.5242770000000 1.0
C      1  0.5146770000000  0.4616800000000  0.4276290000000 1.0
C      1  0.5574630000000  0.4608380000000  0.5498900000000 1.0
C      1  0.5855390000000  0.4870970000000  0.4854510000000 1.0
C      1  0.4442340000000  0.4863670000000  0.4326530000000 1.0
C      1  0.4697200000000  0.4871700000000  0.5803920000000 1.0
C      1  0.4144620000000  0.4870960000000  0.4854510000000 1.0
C      1  0.5557660000000  0.4863680000000  0.4326530000000 1.0
C      1  0.5302800000000  0.4871710000000  0.5803920000000 1.0
C      1  0.5764980000000  0.5139640000000  0.4748540000000 1.0
C      1  0.4403740000000  0.5132720000000  0.4469660000000 1.0
C      1  0.4835640000000  0.5141430000000  0.5784490000000 1.0
C      1  0.4235020000000  0.5139630000000  0.4748540000000 1.0
C      1  0.5596260000000  0.5132720000000  0.4469660000000 1.0
C      1  0.5164350000000  0.5141430000000  0.5784490000000 1.0
C      1  0.5290090000000  0.4511340000000  0.5481670000000 1.0
C      1  0.5250230000000  0.4580350000000  0.4555930000000 1.0
C      1  0.4437030000000  0.4511960000000  0.5005680000000 1.0
C      1  0.4709910000000  0.4511330000000  0.5481670000000 1.0
C      1  0.4749770000000  0.4580340000000  0.4555930000000 1.0
C      1  0.5562970000000  0.4511960000000  0.5005680000000 1.0
C      1  0.5289410000000  0.4862660000000  0.4179200000000 1.0
C      1  0.4137640000000  0.4861720000000  0.5159080000000 1.0
C      1  0.5571740000000  0.4862090000000  0.5661960000000 1.0
C      1  0.4710590000000  0.4862660000000  0.4179200000000 1.0
C      1  0.5862370000000  0.4861730000000  0.5159080000000 1.0
C      1  0.4428260000000  0.4862080000000  0.5661960000000 1.0
C      1  0.5352060000000  0.5369110000000  0.5700080000000 1.0
C      1  0.5438490000000  0.5366220000000  0.4346430000000 1.0
C      1  0.4215150000000  0.5368540000000  0.4953640000000 1.0
C      1  0.4647930000000  0.5369100000000  0.5700080000000 1.0
C      1  0.4561500000000  0.5366210000000  0.4346430000000 1.0
C      1  0.5784840000000  0.5368550000000  0.4953640000000 1.0
C      1  0.4444860000000  0.5740100000000  0.5164660000000 1.0
C      1  0.5419330000000  0.5738550000000  0.5394330000000 1.0
C      1  0.5133470000000  0.5734770000000  0.4429070000000 1.0
C      1  0.5555130000000  0.5740110000000  0.5164660000000 1.0
C      1  0.4580660000000  0.5738540000000  0.5394330000000 1.0
C      1  0.4866520000000  0.5734770000000  0.4429070000000 1.0
C      1  0.5154420000000  0.5340020000000  0.5270070000000 1.0
C      1  0.5157160000000  0.5346530000000  0.4732300000000 1.0
C      1  0.4687350000000  0.5341690000000  0.4998080000000 1.0
C      1  0.4845570000000  0.5340010000000  0.5270070000000 1.0
C      1  0.4842830000000  0.5346530000000  0.4732300000000 1.0
C      1  0.5312640000000  0.5341690000000  0.4998080000000 1.0
C      1  0.4709430000000  0.4368160000000  0.4997870000000 1.0
C      1  0.5146140000000  0.4369140000000  0.5250620000000 1.0
C      1  0.5151290000000  0.4348600000000  0.4733990000000 1.0
C      1  0.5290570000000  0.4368160000000  0.4997870000000 1.0
C      1  0.4853870000000  0.4369140000000  0.5250620000000 1.0
C      1  0.4848710000000  0.4348600000000  0.4733990000000 1.0
C      1  0.4535360000000  0.5075570000000  0.4997010000000 1.0
C      1  0.5231570000000  0.5074500000000  0.5401710000000 1.0
C      1  0.5226890000000  0.5081210000000  0.4603160000000 1.0
C      1  0.5464640000000  0.5075580000000  0.4997010000000 1.0
C      1  0.4768430000000  0.5074500000000  0.5401710000000 1.0
C      1  0.4773110000000  0.5081210000000  0.4603160000000 1.0
C      1  0.5548000000000  0.5529400000000  0.4986230000000 1.0
C      1  0.4712470000000  0.5529390000000  0.4530820000000 1.0
C      1  0.4739070000000  0.5528910000000  0.5478910000000 1.0
C      1  0.4452000000000  0.5529390000000  0.4986230000000 1.0
C      1  0.5287520000000  0.5529400000000  0.4530820000000 1.0
C      1  0.5260920000000  0.5528920000000  0.5478910000000 1.0
END
