TITL C-3577078-809-342 -2.15961378292075e-06 125000 -1001.89513792767 0 0 157 (C1) n - 1
REM
REM in /home/bkarasulu/work/CARBON/AIRSS/Generating-Clusters/EDIP-Nigel-Params/with-SteepDescent/Higher-Symm/SD-CG/HFTN-CG
REM
REM
REM
REM
REM
REM ./C.cell (12c818d87b63d06a65506943cc24bca4)
REM
REM compiler GCC version 9.2.1 20190827 (Red Hat 9.2.1-1)
REM options -cpp -mtune=generic -march=x86-64 -g -O0 -fpre-include=/usr/include/finclude/math-vector-fortran.h
REM seed -479084558 1875654087 367151641 1039560761 914563587 18405980 2138186281 1178696929 1337353421 564093398 -930966679 1850471641 -1330012359 22263176 1886791292 -85913366 2054376621 743122071 1968989632 -1895245213 1767072160 -85486432 2089443572 611602318 -2087255903 1818343228 -1024445593 -544348219 753871127 -799138878 1379230033 -1940619601 676039604
REM
CELL 1.54180   50.00000   50.00000   50.00000   90.00000   90.00000   90.00000
LATT -1
SFAC C  
C      1  0.5319650000000  0.6042860000000  0.5081080000000 1.0
C      1  0.5213390000000  0.4929190000000  0.5903360000000 1.0
C      1  0.5301470000000  0.4034340000000  0.4931450000000 1.0
C      1  0.5274130000000  0.5042710000000  0.3959540000000 1.0
C      1  0.4763530000000  0.4032130000000  0.5073440000000 1.0
C      1  0.4686380000000  0.5110120000000  0.5984210000000 1.0
C      1  0.4735140000000  0.6011220000000  0.4907200000000 1.0
C      1  0.4730680000000  0.4907800000000  0.4052230000000 1.0
C      1  0.5700070000000  0.5738210000000  0.5131000000000 1.0
C      1  0.5684760000000  0.4864400000000  0.5755470000000 1.0
C      1  0.5734590000000  0.4248530000000  0.4851950000000 1.0
C      1  0.5719900000000  0.5114210000000  0.4180320000000 1.0
C      1  0.4322510000000  0.4255020000000  0.5136530000000 1.0
C      1  0.4279110000000  0.5180830000000  0.5710470000000 1.0
C      1  0.4309630000000  0.5760970000000  0.4867660000000 1.0
C      1  0.4314520000000  0.4837500000000  0.4301630000000 1.0
C      1  0.4897310000000  0.4530450000000  0.5443450000000 1.0
C      1  0.4939100000000  0.4613470000000  0.4530710000000 1.0
C      1  0.4968210000000  0.5469560000000  0.4695130000000 1.0
C      1  0.4866540000000  0.5444830000000  0.5504300000000 1.0
C      1  0.5150240000000  0.5432330000000  0.5541620000000 1.0
C      1  0.5225400000000  0.5557490000000  0.4817900000000 1.0
C      1  0.5213140000000  0.4668550000000  0.4431170000000 1.0
C      1  0.5169440000000  0.4430390000000  0.5439040000000 1.0
C      1  0.5717300000000  0.4412030000000  0.5450220000000 1.0
C      1  0.5734800000000  0.4523850000000  0.4353620000000 1.0
C      1  0.5669850000000  0.5537340000000  0.4545740000000 1.0
C      1  0.5675780000000  0.5445010000000  0.5590380000000 1.0
C      1  0.4300860000000  0.5639150000000  0.5446210000000 1.0
C      1  0.4302690000000  0.5420830000000  0.4445830000000 1.0
C      1  0.4314310000000  0.4361090000000  0.4553090000000 1.0
C      1  0.4312020000000  0.4580520000000  0.5566900000000 1.0
C      1  0.5233920000000  0.5028230000000  0.5238300000000 1.0
C      1  0.5360030000000  0.4592720000000  0.5055430000000 1.0
C      1  0.5293760000000  0.4901180000000  0.4745590000000 1.0
C      1  0.5340320000000  0.5313920000000  0.4899210000000 1.0
C      1  0.4672670000000  0.4882920000000  0.5260300000000 1.0
C      1  0.4574750000000  0.5340700000000  0.5171850000000 1.0
C      1  0.4631050000000  0.5146790000000  0.4747730000000 1.0
C      1  0.4637840000000  0.4687550000000  0.4848540000000 1.0
C      1  0.4094560000000  0.5535180000000  0.5256250000000 1.0
C      1  0.4178530000000  0.4779390000000  0.5389430000000 1.0
C      1  0.4115010000000  0.4423620000000  0.4737450000000 1.0
C      1  0.4125430000000  0.5230780000000  0.4590580000000 1.0
C      1  0.5859440000000  0.4574990000000  0.5235810000000 1.0
C      1  0.5830250000000  0.5236060000000  0.5452420000000 1.0
C      1  0.5842660000000  0.5401070000000  0.4749810000000 1.0
C      1  0.5873310000000  0.4741620000000  0.4500360000000 1.0
C      1  0.4735490000000  0.5609470000000  0.4824940000000 1.0
C      1  0.4714100000000  0.5207500000000  0.5609120000000 1.0
C      1  0.4722200000000  0.4422810000000  0.5225360000000 1.0
C      1  0.4737550000000  0.4814790000000  0.4426740000000 1.0
C      1  0.5385920000000  0.4488890000000  0.4622350000000 1.0
C      1  0.5350010000000  0.4661650000000  0.5493570000000 1.0
C      1  0.5311080000000  0.5513870000000  0.5297110000000 1.0
C      1  0.5379530000000  0.5213530000000  0.4448230000000 1.0
C      1  0.4668300000000  0.4496770000000  0.5912520000000 1.0
C      1  0.4724290000000  0.4078260000000  0.4488880000000 1.0
C      1  0.4684050000000  0.5482680000000  0.4105970000000 1.0
C      1  0.4703090000000  0.5952300000000  0.5515810000000 1.0
C      1  0.5295300000000  0.5524720000000  0.5936610000000 1.0
C      1  0.5296050000000  0.5882130000000  0.4461840000000 1.0
C      1  0.5312680000000  0.4444910000000  0.4073370000000 1.0
C      1  0.5338760000000  0.4044230000000  0.5525070000000 1.0
C      1  0.4134090000000  0.4444130000000  0.5016030000000 1.0
C      1  0.4128360000000  0.4978700000000  0.4458350000000 1.0
C      1  0.4090390000000  0.5662350000000  0.5006450000000 1.0
C      1  0.4238890000000  0.5075860000000  0.5423030000000 1.0
C      1  0.5850710000000  0.5548430000000  0.4989280000000 1.0
C      1  0.5897070000000  0.4974050000000  0.4345500000000 1.0
C      1  0.5899310000000  0.4425960000000  0.4997520000000 1.0
C      1  0.5874690000000  0.5008190000000  0.5610170000000 1.0
C      1  0.4919050000000  0.5394790000000  0.3978860000000 1.0
C      1  0.4952950000000  0.6050800000000  0.5425790000000 1.0
C      1  0.4916910000000  0.4567460000000  0.6021230000000 1.0
C      1  0.4966380000000  0.3968460000000  0.4574430000000 1.0
C      1  0.5063250000000  0.4543660000000  0.3984820000000 1.0
C      1  0.5088530000000  0.3946070000000  0.5425200000000 1.0
C      1  0.5050060000000  0.5433340000000  0.6050040000000 1.0
C      1  0.5055000000000  0.6006360000000  0.4530870000000 1.0
C      1  0.4609120000000  0.5820320000000  0.4465190000000 1.0
C      1  0.4607940000000  0.5568130000000  0.5841980000000 1.0
C      1  0.4616190000000  0.4141170000000  0.5544340000000 1.0
C      1  0.4629590000000  0.4454790000000  0.4190110000000 1.0
C      1  0.5431460000000  0.4090370000000  0.4439580000000 1.0
C      1  0.5388200000000  0.4445930000000  0.5876460000000 1.0
C      1  0.5398710000000  0.5870470000000  0.5548330000000 1.0
C      1  0.5388460000000  0.5506140000000  0.4114820000000 1.0
C      1  0.5770950000000  0.4785490000000  0.4787930000000 1.0
C      1  0.5744650000000  0.5112360000000  0.4815870000000 1.0
C      1  0.5715870000000  0.5171040000000  0.5178120000000 1.0
C      1  0.5711440000000  0.4845330000000  0.5169060000000 1.0
C      1  0.4193030000000  0.5209820000000  0.4902670000000 1.0
C      1  0.4242680000000  0.4912510000000  0.4877160000000 1.0
C      1  0.4248270000000  0.4703990000000  0.5106220000000 1.0
C      1  0.4090310000000  0.5245920000000  0.5210210000000 1.0
C      1  0.5445990000000  0.5729350000000  0.4676220000000 1.0
C      1  0.5489500000000  0.5335150000000  0.5803370000000 1.0
C      1  0.5549320000000  0.4175970000000  0.5340780000000 1.0
C      1  0.5531540000000  0.4633650000000  0.4149730000000 1.0
C      1  0.4517670000000  0.4179860000000  0.4666770000000 1.0
C      1  0.4478110000000  0.4692160000000  0.5787230000000 1.0
C      1  0.4485750000000  0.5857470000000  0.5334990000000 1.0
C      1  0.4480610000000  0.5308080000000  0.4226170000000 1.0
C      1  0.5196100000000  0.5123130000000  0.5554570000000 1.0
C      1  0.5208480000000  0.4350640000000  0.5128310000000 1.0
C      1  0.5199520000000  0.4995700000000  0.4330450000000 1.0
C      1  0.5168270000000  0.5692230000000  0.5079950000000 1.0
C      1  0.4935830000000  0.4992580000000  0.5639020000000 1.0
C      1  0.4870970000000  0.5700100000000  0.5099500000000 1.0
C      1  0.4923050000000  0.5058330000000  0.4424190000000 1.0
C      1  0.4936380000000  0.4373990000000  0.4997430000000 1.0
C      1  0.4772830000000  0.5384360000000  0.6005530000000 1.0
C      1  0.4818760000000  0.4013040000000  0.5358950000000 1.0
C      1  0.4798580000000  0.4628770000000  0.4034400000000 1.0
C      1  0.4788960000000  0.5988980000000  0.4619850000000 1.0
C      1  0.5185290000000  0.4644930000000  0.5983120000000 1.0
C      1  0.5229720000000  0.6026750000000  0.5361690000000 1.0
C      1  0.5192820000000  0.5323450000000  0.3988900000000 1.0
C      1  0.5234800000000  0.4005370000000  0.4648290000000 1.0
C      1  0.5259980000000  0.4217040000000  0.5746660000000 1.0
C      1  0.5324530000000  0.4191870000000  0.4198150000000 1.0
C      1  0.5303150000000  0.5752560000000  0.4215680000000 1.0
C      1  0.5241680000000  0.5742900000000  0.5756430000000 1.0
C      1  0.4696440000000  0.5825740000000  0.5767030000000 1.0
C      1  0.4686180000000  0.5738060000000  0.4211430000000 1.0
C      1  0.4712530000000  0.4191780000000  0.4235630000000 1.0
C      1  0.4673700000000  0.4239800000000  0.5799680000000 1.0
C      1  0.5453280000000  0.5139620000000  0.4715920000000 1.0
C      1  0.5410040000000  0.5260280000000  0.5166440000000 1.0
C      1  0.5418430000000  0.4790750000000  0.5249840000000 1.0
C      1  0.5468150000000  0.4679240000000  0.4808650000000 1.0
C      1  0.4497600000000  0.4891260000000  0.4694850000000 1.0
C      1  0.4554180000000  0.4662100000000  0.5118980000000 1.0
C      1  0.4538830000000  0.5118450000000  0.5356250000000 1.0
C      1  0.4490670000000  0.5358720000000  0.4891450000000 1.0
C      1  0.4392590000000  0.4309870000000  0.5427060000000 1.0
C      1  0.4399830000000  0.4552750000000  0.4340210000000 1.0
C      1  0.4390660000000  0.5670490000000  0.4593950000000 1.0
C      1  0.4371620000000  0.5471300000000  0.5691180000000 1.0
C      1  0.5556400000000  0.5658800000000  0.5398140000000 1.0
C      1  0.5574970000000  0.5361060000000  0.4300270000000 1.0
C      1  0.5611280000000  0.4308990000000  0.4558480000000 1.0
C      1  0.5572220000000  0.4589880000000  0.5668800000000 1.0
C      1  0.5534130000000  0.5895400000000  0.4940860000000 1.0
C      1  0.5482290000000  0.5044420000000  0.5868130000000 1.0
C      1  0.5557420000000  0.4103840000000  0.5043080000000 1.0
C      1  0.5529970000000  0.4923420000000  0.4050890000000 1.0
C      1  0.4517120000000  0.4126160000000  0.4956060000000 1.0
C      1  0.4449550000000  0.4984280000000  0.5870850000000 1.0
C      1  0.4490710000000  0.5913070000000  0.5037700000000 1.0
C      1  0.4479410000000  0.5021370000000  0.4145160000000 1.0
C      1  0.4817550000000  0.5456880000000  0.5232650000000 1.0
C      1  0.4892280000000  0.4810780000000  0.5417430000000 1.0
C      1  0.4919980000000  0.4646970000000  0.4826310000000 1.0
C      1  0.4914940000000  0.5169090000000  0.4701750000000 1.0
C      1  0.5055010000000  0.4944650000000  0.4917480000000 1.0
END
