TITL C-3577081-279-484 -7.40592880482202e-08 125000 -27.3685144891715 0 0 6 (D(inf)h) n - 1
REM
REM in /home/bkarasulu/work/CARBON/AIRSS/Generating-Clusters/EDIP-Nigel-Params/with-SteepDescent/Higher-Symm/SD-CG/HFTN-CG
REM
REM
REM
REM
REM
REM ./C.cell (12c818d87b63d06a65506943cc24bca4)
REM
REM compiler GCC version 9.2.1 20190827 (Red Hat 9.2.1-1)
REM options -cpp -mtune=generic -march=x86-64 -g -O0 -fpre-include=/usr/include/finclude/math-vector-fortran.h
REM seed -564528630 -1057182273 787046134 1895129213 -1119950306 622237886 1756918586 1272024630 -1586037952 -1476712663 -361398207 -1738405717 -1466078393 1162827956 -1191270244 191093911 -326370625 -2041579618 682271317 667624928 1176434323 -1352254217 1141312772 -276960027 80007915 -574088142 -200692148 -1136246386 2023884817 -746774552 604887081 -905203498 -1791265794
REM
CELL 1.54180   50.00000   50.00000   50.00000   90.00000   90.00000   90.00000
LATT -1
SFAC C  
C      1  0.4868070000000  0.4997450000000  0.5006270000000 1.0
C      1  0.4348510000000  0.4997450000000  0.5006270000000 1.0
C      1  0.5651490000000  0.4997450000000  0.5006270000000 1.0
C      1  0.5131930000000  0.4997450000000  0.5006270000000 1.0
C      1  0.5395780000000  0.4997450000000  0.5006270000000 1.0
C      1  0.4604220000000  0.4997450000000  0.5006270000000 1.0
END
