TITL C-3578207-9274-697 -3.31626526207702e-06 125000 -969.954339782208 0 0 156 (C1) n - 1
REM
REM in /home/bkarasulu/work/CARBON/AIRSS/Generating-Clusters/EDIP-Nigel-Params/with-SteepDescent/Higher-Symm/SD-CG/HFTN-CG
REM
REM
REM
REM
REM
REM ./C.cell (12c818d87b63d06a65506943cc24bca4)
REM
REM compiler GCC version 9.2.1 20190827 (Red Hat 9.2.1-1)
REM options -cpp -mtune=generic -march=x86-64 -g -O0 -fpre-include=/usr/include/finclude/math-vector-fortran.h
REM seed -1820891022 -881290274 1774353807 1650879492 -899227459 715119244 -1122268657 1940011512 -153071509 -1965907442 1611888561 -1309556116 492388622 1154166974 581899413 -414378527 -1686054064 175104465 -1875619731 515750733 1670995171 2031476670 -1581169167 -424192285 -132288643 -790155000 -1628330613 1689987641 939948386 -765191162 -993886829 -1514440797 772614166
REM
CELL 1.54180   50.00000   50.00000   50.00000   90.00000   90.00000   90.00000
LATT -1
SFAC C  
C      1  0.5024940000000  0.5172750000000  0.5087420000000 1.0
C      1  0.5042410000000  0.5093750000000  0.4781220000000 1.0
C      1  0.4924580000000  0.4806310000000  0.4865320000000 1.0
C      1  0.4916330000000  0.4896180000000  0.5157170000000 1.0
C      1  0.5186670000000  0.5319050000000  0.4158550000000 1.0
C      1  0.5139810000000  0.4126370000000  0.4713940000000 1.0
C      1  0.5248960000000  0.4638470000000  0.5874650000000 1.0
C      1  0.5235600000000  0.5916680000000  0.5396490000000 1.0
C      1  0.5115380000000  0.4222620000000  0.4178820000000 1.0
C      1  0.5108210000000  0.4181430000000  0.5749660000000 1.0
C      1  0.5092220000000  0.5759720000000  0.5847320000000 1.0
C      1  0.5135050000000  0.5842950000000  0.4245010000000 1.0
C      1  0.5789290000000  0.5573450000000  0.5588290000000 1.0
C      1  0.5727790000000  0.5494870000000  0.4609260000000 1.0
C      1  0.5774570000000  0.4444630000000  0.4454620000000 1.0
C      1  0.5780720000000  0.4466410000000  0.5494790000000 1.0
C      1  0.5256320000000  0.4007570000000  0.5175460000000 1.0
C      1  0.5272620000000  0.5165120000000  0.5985120000000 1.0
C      1  0.5279980000000  0.6037470000000  0.4867850000000 1.0
C      1  0.5281950000000  0.4814410000000  0.3993010000000 1.0
C      1  0.5860970000000  0.5019050000000  0.4728960000000 1.0
C      1  0.6002230000000  0.4878740000000  0.4929320000000 1.0
C      1  0.5886620000000  0.4884760000000  0.5175310000000 1.0
C      1  0.5807130000000  0.5290900000000  0.4815360000000 1.0
C      1  0.5335830000000  0.5646850000000  0.5916110000000 1.0
C      1  0.5360570000000  0.5888490000000  0.4404440000000 1.0
C      1  0.5357070000000  0.4338080000000  0.4108990000000 1.0
C      1  0.5352680000000  0.4123930000000  0.5636290000000 1.0
C      1  0.5677630000000  0.5409570000000  0.4323190000000 1.0
C      1  0.5662290000000  0.4198170000000  0.4544720000000 1.0
C      1  0.5705510000000  0.4570730000000  0.5752240000000 1.0
C      1  0.5688710000000  0.5831210000000  0.5504180000000 1.0
C      1  0.4903490000000  0.4769640000000  0.4069540000000 1.0
C      1  0.4874180000000  0.4055000000000  0.5225370000000 1.0
C      1  0.4897840000000  0.5229720000000  0.5917970000000 1.0
C      1  0.4913500000000  0.5936350000000  0.4788460000000 1.0
C      1  0.5662940000000  0.5349500000000  0.5722570000000 1.0
C      1  0.5693600000000  0.5770280000000  0.4731460000000 1.0
C      1  0.5654270000000  0.4655990000000  0.4302120000000 1.0
C      1  0.5639810000000  0.4311720000000  0.5295570000000 1.0
C      1  0.5091440000000  0.4713080000000  0.4322100000000 1.0
C      1  0.5063910000000  0.4326490000000  0.5281670000000 1.0
C      1  0.5111900000000  0.5282990000000  0.5652610000000 1.0
C      1  0.5134860000000  0.5703170000000  0.4729720000000 1.0
C      1  0.5062480000000  0.5941230000000  0.5623500000000 1.0
C      1  0.5103220000000  0.5602160000000  0.4075340000000 1.0
C      1  0.5082530000000  0.4055790000000  0.4419360000000 1.0
C      1  0.5077440000000  0.4411510000000  0.5919400000000 1.0
C      1  0.4790860000000  0.4962870000000  0.5882640000000 1.0
C      1  0.4801140000000  0.5884900000000  0.5050910000000 1.0
C      1  0.4838450000000  0.5054380000000  0.4135360000000 1.0
C      1  0.4769930000000  0.4091390000000  0.4949340000000 1.0
C      1  0.4646790000000  0.5608460000000  0.4241500000000 1.0
C      1  0.4635930000000  0.4219180000000  0.4379880000000 1.0
C      1  0.4634590000000  0.4388790000000  0.5743200000000 1.0
C      1  0.4628950000000  0.5750230000000  0.5616610000000 1.0
C      1  0.4090230000000  0.4597850000000  0.4977560000000 1.0
C      1  0.4091620000000  0.4978460000000  0.5392970000000 1.0
C      1  0.4090900000000  0.5399330000000  0.5006720000000 1.0
C      1  0.4086430000000  0.5011630000000  0.4610730000000 1.0
C      1  0.4451250000000  0.4805050000000  0.5592600000000 1.0
C      1  0.4469440000000  0.5585510000000  0.5193340000000 1.0
C      1  0.4431820000000  0.5173870000000  0.4270750000000 1.0
C      1  0.4412460000000  0.4366800000000  0.4781720000000 1.0
C      1  0.4643160000000  0.5882080000000  0.4634680000000 1.0
C      1  0.4632200000000  0.4614480000000  0.4098100000000 1.0
C      1  0.4598210000000  0.4075100000000  0.5376960000000 1.0
C      1  0.4610340000000  0.5369200000000  0.5905670000000 1.0
C      1  0.4380390000000  0.4260850000000  0.4505540000000 1.0
C      1  0.4391420000000  0.4536420000000  0.5684760000000 1.0
C      1  0.4394250000000  0.5689480000000  0.5454660000000 1.0
C      1  0.4395000000000  0.5461610000000  0.4290130000000 1.0
C      1  0.5366740000000  0.5361500000000  0.4544690000000 1.0
C      1  0.5438520000000  0.4490400000000  0.4644930000000 1.0
C      1  0.5440090000000  0.4649380000000  0.5487890000000 1.0
C      1  0.5456510000000  0.5549820000000  0.5392180000000 1.0
C      1  0.5754430000000  0.4916720000000  0.4316630000000 1.0
C      1  0.5748590000000  0.4288230000000  0.5033670000000 1.0
C      1  0.5740370000000  0.5078170000000  0.5671270000000 1.0
C      1  0.5773840000000  0.5774650000000  0.5007720000000 1.0
C      1  0.5620060000000  0.4129950000000  0.4826160000000 1.0
C      1  0.5645860000000  0.4850290000000  0.5825720000000 1.0
C      1  0.5644420000000  0.5915650000000  0.5223040000000 1.0
C      1  0.5601290000000  0.5142530000000  0.4241050000000 1.0
C      1  0.5148280000000  0.5542200000000  0.5463960000000 1.0
C      1  0.5082190000000  0.5489000000000  0.4499480000000 1.0
C      1  0.5142750000000  0.4474010000000  0.4538220000000 1.0
C      1  0.5134750000000  0.4556740000000  0.5511290000000 1.0
C      1  0.5319170000000  0.5077740000000  0.4629850000000 1.0
C      1  0.5447000000000  0.4514760000000  0.4955240000000 1.0
C      1  0.5469940000000  0.4947960000000  0.5434900000000 1.0
C      1  0.5499290000000  0.5524420000000  0.5096090000000 1.0
C      1  0.4488040000000  0.4779180000000  0.5152180000000 1.0
C      1  0.4460890000000  0.5144230000000  0.5211210000000 1.0
C      1  0.4470010000000  0.5173720000000  0.4883390000000 1.0
C      1  0.4489430000000  0.4862520000000  0.4806420000000 1.0
C      1  0.5480140000000  0.4808810000000  0.4946960000000 1.0
C      1  0.5611600000000  0.4979600000000  0.5154350000000 1.0
C      1  0.5623570000000  0.5261670000000  0.5036250000000 1.0
C      1  0.5579160000000  0.4889160000000  0.4670630000000 1.0
C      1  0.4912000000000  0.6011520000000  0.4259230000000 1.0
C      1  0.4908240000000  0.4228770000000  0.3990730000000 1.0
C      1  0.4899370000000  0.3995430000000  0.5739650000000 1.0
C      1  0.4877770000000  0.5743580000000  0.6025630000000 1.0
C      1  0.4977730000000  0.4830160000000  0.5440720000000 1.0
C      1  0.5022520000000  0.5461120000000  0.5176240000000 1.0
C      1  0.4865310000000  0.5287670000000  0.4609500000000 1.0
C      1  0.4957050000000  0.4521290000000  0.4801310000000 1.0
C      1  0.5165050000000  0.4400240000000  0.4996480000000 1.0
C      1  0.5184350000000  0.5045940000000  0.5478220000000 1.0
C      1  0.5223880000000  0.5551860000000  0.4977350000000 1.0
C      1  0.5205670000000  0.4993700000000  0.4372140000000 1.0
C      1  0.5352890000000  0.4017780000000  0.4889900000000 1.0
C      1  0.5386760000000  0.4883790000000  0.5954210000000 1.0
C      1  0.5376470000000  0.6020030000000  0.5160470000000 1.0
C      1  0.5391610000000  0.5113160000000  0.4033830000000 1.0
C      1  0.4231720000000  0.4449390000000  0.5451540000000 1.0
C      1  0.4231190000000  0.5460800000000  0.5542560000000 1.0
C      1  0.4271060000000  0.5504670000000  0.4550770000000 1.0
C      1  0.4254130000000  0.4543360000000  0.4467590000000 1.0
C      1  0.4672680000000  0.4323350000000  0.4111990000000 1.0
C      1  0.4655110000000  0.4111320000000  0.5661640000000 1.0
C      1  0.4645010000000  0.5658410000000  0.5892330000000 1.0
C      1  0.4679860000000  0.5877670000000  0.4346630000000 1.0
C      1  0.4199730000000  0.5262950000000  0.4749220000000 1.0
C      1  0.4203390000000  0.4752120000000  0.4728810000000 1.0
C      1  0.4190950000000  0.4711620000000  0.5245780000000 1.0
C      1  0.4175840000000  0.5259510000000  0.5281030000000 1.0
C      1  0.4448540000000  0.4731520000000  0.4323550000000 1.0
C      1  0.4408730000000  0.4304050000000  0.5253840000000 1.0
C      1  0.4423390000000  0.5263690000000  0.5670990000000 1.0
C      1  0.4463830000000  0.5640580000000  0.4732510000000 1.0
C      1  0.4636500000000  0.4838040000000  0.4533820000000 1.0
C      1  0.4622150000000  0.4502580000000  0.5163220000000 1.0
C      1  0.4637230000000  0.5187500000000  0.5464950000000 1.0
C      1  0.4663530000000  0.5413330000000  0.4812660000000 1.0
C      1  0.4799170000000  0.3991460000000  0.4466100000000 1.0
C      1  0.4800910000000  0.4482100000000  0.5966980000000 1.0
C      1  0.4788980000000  0.5981340000000  0.5537550000000 1.0
C      1  0.4822400000000  0.5530970000000  0.4018610000000 1.0
C      1  0.4213050000000  0.4319570000000  0.4995710000000 1.0
C      1  0.4247320000000  0.5001210000000  0.5652380000000 1.0
C      1  0.4278870000000  0.5640690000000  0.4984430000000 1.0
C      1  0.4196890000000  0.5004220000000  0.4335090000000 1.0
C      1  0.4764130000000  0.3910020000000  0.4734210000000 1.0
C      1  0.4780560000000  0.4746810000000  0.6058030000000 1.0
C      1  0.4781650000000  0.6060270000000  0.5267830000000 1.0
C      1  0.4809530000000  0.5259260000000  0.3943090000000 1.0
C      1  0.5442150000000  0.4118390000000  0.5375560000000 1.0
C      1  0.5447890000000  0.5393060000000  0.5908810000000 1.0
C      1  0.5477230000000  0.5953280000000  0.4650740000000 1.0
C      1  0.5456690000000  0.4596340000000  0.4102420000000 1.0
C      1  0.4701510000000  0.5096890000000  0.4395370000000 1.0
C      1  0.4696940000000  0.4372640000000  0.4899290000000 1.0
C      1  0.4726800000000  0.4924180000000  0.5602100000000 1.0
C      1  0.4755260000000  0.5598590000000  0.5093100000000 1.0
END
