TITL C-3578209-2550-72 -3.31145085438718e-06 125000 -412.71472720799 0 0 66 (C1) n - 1
REM
REM in /home/bkarasulu/work/CARBON/AIRSS/Generating-Clusters/EDIP-Nigel-Params/with-SteepDescent/Higher-Symm/SD-CG/HFTN-CG
REM
REM
REM
REM
REM
REM ./C.cell (12c818d87b63d06a65506943cc24bca4)
REM
REM compiler GCC version 9.2.1 20190827 (Red Hat 9.2.1-1)
REM options -cpp -mtune=generic -march=x86-64 -g -O0 -fpre-include=/usr/include/finclude/math-vector-fortran.h
REM seed 638322264 65895097 -274428464 -538867387 -707914583 -391692072 -295409747 -1423124448 -996287902 1519818795 -1413206124 675485275 259582289 -621135155 -278970643 -1555332675 208773712 1248472909 1503232816 -1445397037 1188552587 -1901104752 1724730127 1785518497 2095550590 -590407914 1155896600 2095280336 354709664 531343363 776639322 2141074391 -1974514558
REM
CELL 1.54180   50.00000   50.00000   50.00000   90.00000   90.00000   90.00000
LATT -1
SFAC C  
C      1  0.5323600000000  0.4626510000000  0.4225170000000 1.0
C      1  0.4754140000000  0.5049450000000  0.5049160000000 1.0
C      1  0.4455310000000  0.5296260000000  0.4838140000000 1.0
C      1  0.4502110000000  0.5132340000000  0.5657330000000 1.0
C      1  0.5499990000000  0.4826100000000  0.5381090000000 1.0
C      1  0.5591630000000  0.5107450000000  0.5421110000000 1.0
C      1  0.5660950000000  0.4634470000000  0.5221130000000 1.0
C      1  0.5223480000000  0.5021410000000  0.5718170000000 1.0
C      1  0.5505480000000  0.5560650000000  0.5261020000000 1.0
C      1  0.4959720000000  0.4830640000000  0.5422790000000 1.0
C      1  0.4281220000000  0.5440090000000  0.5008250000000 1.0
C      1  0.5333420000000  0.4378630000000  0.4921500000000 1.0
C      1  0.5306540000000  0.5653780000000  0.5056390000000 1.0
C      1  0.5711110000000  0.4971740000000  0.4838050000000 1.0
C      1  0.5302500000000  0.5590200000000  0.4768920000000 1.0
C      1  0.4595830000000  0.4472480000000  0.4643630000000 1.0
C      1  0.5783110000000  0.4754410000000  0.4999200000000 1.0
C      1  0.4961770000000  0.5079910000000  0.5794840000000 1.0
C      1  0.5249040000000  0.4632130000000  0.5079770000000 1.0
C      1  0.4700840000000  0.5411960000000  0.5190040000000 1.0
C      1  0.4811760000000  0.4522420000000  0.4868730000000 1.0
C      1  0.5082660000000  0.5678450000000  0.4612340000000 1.0
C      1  0.5058570000000  0.5737800000000  0.5189970000000 1.0
C      1  0.5645760000000  0.5301490000000  0.5195020000000 1.0
C      1  0.4338610000000  0.4505710000000  0.5152220000000 1.0
C      1  0.5480680000000  0.5363490000000  0.4707780000000 1.0
C      1  0.5381380000000  0.5228080000000  0.5581040000000 1.0
C      1  0.5124020000000  0.4835090000000  0.4244570000000 1.0
C      1  0.4861100000000  0.4737510000000  0.4342240000000 1.0
C      1  0.4565490000000  0.4502920000000  0.5322430000000 1.0
C      1  0.5056080000000  0.4348240000000  0.4801040000000 1.0
C      1  0.5461210000000  0.5172110000000  0.4471190000000 1.0
C      1  0.4774580000000  0.5248660000000  0.5673740000000 1.0
C      1  0.5058780000000  0.4311750000000  0.4513030000000 1.0
C      1  0.5350070000000  0.5518720000000  0.5517330000000 1.0
C      1  0.4746060000000  0.5204450000000  0.4463690000000 1.0
C      1  0.5243820000000  0.5069930000000  0.5018160000000 1.0
C      1  0.5349390000000  0.4761210000000  0.4589230000000 1.0
C      1  0.5067150000000  0.5601870000000  0.5459420000000 1.0
C      1  0.5310120000000  0.4420580000000  0.4414330000000 1.0
C      1  0.4806680000000  0.4450270000000  0.4414680000000 1.0
C      1  0.4654450000000  0.5398100000000  0.4655650000000 1.0
C      1  0.4321200000000  0.4776680000000  0.5075050000000 1.0
C      1  0.5535010000000  0.4381890000000  0.5143790000000 1.0
C      1  0.5001270000000  0.5086660000000  0.5235070000000 1.0
C      1  0.4803990000000  0.4444620000000  0.5164790000000 1.0
C      1  0.4463600000000  0.4743220000000  0.4585580000000 1.0
C      1  0.4235420000000  0.5138950000000  0.4761990000000 1.0
C      1  0.4859220000000  0.5579530000000  0.4758440000000 1.0
C      1  0.4865380000000  0.4837210000000  0.4829290000000 1.0
C      1  0.4514420000000  0.4953440000000  0.5224690000000 1.0
C      1  0.5524010000000  0.5181170000000  0.4947050000000 1.0
C      1  0.5036250000000  0.4582280000000  0.5278200000000 1.0
C      1  0.4816830000000  0.5644150000000  0.5039840000000 1.0
C      1  0.4643130000000  0.4774350000000  0.5436850000000 1.0
C      1  0.4525560000000  0.4848640000000  0.5697690000000 1.0
C      1  0.4374340000000  0.5172670000000  0.5388870000000 1.0
C      1  0.4413280000000  0.5435370000000  0.5262400000000 1.0
C      1  0.4984330000000  0.5287900000000  0.4340420000000 1.0
C      1  0.4893650000000  0.5354770000000  0.5420350000000 1.0
C      1  0.5193410000000  0.5103890000000  0.4356730000000 1.0
C      1  0.5295950000000  0.4769520000000  0.5586780000000 1.0
C      1  0.5174950000000  0.4833680000000  0.4857340000000 1.0
C      1  0.4728120000000  0.4906970000000  0.4547170000000 1.0
C      1  0.4264260000000  0.4850020000000  0.4789380000000 1.0
C      1  0.5602260000000  0.4923000000000  0.4568690000000 1.0
END
