TITL C-3578208-4450-193 -3.16026213786911e-06 125000 -1182.99765483146 0 0 190 (C1) n - 1
REM
REM in /home/bkarasulu/work/CARBON/AIRSS/Generating-Clusters/EDIP-Nigel-Params/with-SteepDescent/Higher-Symm/SD-CG/HFTN-CG
REM
REM
REM
REM
REM
REM ./C.cell (12c818d87b63d06a65506943cc24bca4)
REM
REM compiler GCC version 9.2.1 20190827 (Red Hat 9.2.1-1)
REM options -cpp -mtune=generic -march=x86-64 -g -O0 -fpre-include=/usr/include/finclude/math-vector-fortran.h
REM seed 1330156913 1135401162 1096118007 503562806 -224450889 -552035106 -268530042 1454047191 1549864466 784976174 592394510 -575498700 -2025892421 19182431 -1274850702 1805397839 -386693599 -1882441904 -2078771061 369350969 1118530165 28243300 2119991957 -674919093 1242087726 -1705804915 -2812800 -1618409157 -383692265 211889038 -2039108049 -808200027 -5157667
REM
CELL 1.54180   50.00000   50.00000   50.00000   90.00000   90.00000   90.00000
LATT -1
SFAC C  
C      1  0.5453450000000  0.4895000000000  0.5205530000000 1.0
C      1  0.5547190000000  0.4717500000000  0.4847960000000 1.0
C      1  0.5387690000000  0.5117770000000  0.4776750000000 1.0
C      1  0.5459320000000  0.5400190000000  0.5129150000000 1.0
C      1  0.4544770000000  0.5131420000000  0.5405900000000 1.0
C      1  0.4652460000000  0.5137810000000  0.4912700000000 1.0
C      1  0.4561300000000  0.4664070000000  0.4689090000000 1.0
C      1  0.4666490000000  0.4695010000000  0.5182660000000 1.0
C      1  0.5606400000000  0.5345470000000  0.4008920000000 1.0
C      1  0.5497270000000  0.6064160000000  0.5281890000000 1.0
C      1  0.5439570000000  0.4754680000000  0.6097260000000 1.0
C      1  0.5528050000000  0.3916640000000  0.4698930000000 1.0
C      1  0.4497680000000  0.4694070000000  0.3902620000000 1.0
C      1  0.4472750000000  0.3889160000000  0.5270570000000 1.0
C      1  0.4464010000000  0.5366220000000  0.6055160000000 1.0
C      1  0.4485750000000  0.6101020000000  0.4756550000000 1.0
C      1  0.5839530000000  0.5555150000000  0.4775300000000 1.0
C      1  0.5902100000000  0.5181180000000  0.5623320000000 1.0
C      1  0.5865060000000  0.4344000000000  0.5243480000000 1.0
C      1  0.5778640000000  0.4715000000000  0.4397010000000 1.0
C      1  0.4192730000000  0.4381520000000  0.4809790000000 1.0
C      1  0.4192050000000  0.4789170000000  0.5665330000000 1.0
C      1  0.4205540000000  0.5542460000000  0.5237690000000 1.0
C      1  0.4147040000000  0.5168190000000  0.4379260000000 1.0
C      1  0.4496750000000  0.4384470000000  0.4761680000000 1.0
C      1  0.4411110000000  0.5296340000000  0.4342320000000 1.0
C      1  0.4646790000000  0.5571910000000  0.5231590000000 1.0
C      1  0.4487550000000  0.4705430000000  0.5671570000000 1.0
C      1  0.5569340000000  0.5560280000000  0.4635340000000 1.0
C      1  0.5466390000000  0.4720180000000  0.4335380000000 1.0
C      1  0.5571410000000  0.4411610000000  0.5315790000000 1.0
C      1  0.5626570000000  0.5279740000000  0.5568670000000 1.0
C      1  0.5466610000000  0.5435840000000  0.5780560000000 1.0
C      1  0.5305480000000  0.4262870000000  0.5489350000000 1.0
C      1  0.5374830000000  0.4502210000000  0.4134130000000 1.0
C      1  0.5338010000000  0.5919680000000  0.4397730000000 1.0
C      1  0.4589260000000  0.4512150000000  0.5884570000000 1.0
C      1  0.4670690000000  0.5767900000000  0.5490910000000 1.0
C      1  0.4393190000000  0.5413820000000  0.4072670000000 1.0
C      1  0.4581250000000  0.4221000000000  0.4501500000000 1.0
C      1  0.4404600000000  0.4008210000000  0.5014640000000 1.0
C      1  0.4380450000000  0.4933790000000  0.4017130000000 1.0
C      1  0.4374880000000  0.5991150000000  0.4999640000000 1.0
C      1  0.4352590000000  0.5103530000000  0.6024160000000 1.0
C      1  0.5624350000000  0.5936310000000  0.5052200000000 1.0
C      1  0.5627410000000  0.5063610000000  0.4030420000000 1.0
C      1  0.5607240000000  0.4024830000000  0.4958500000000 1.0
C      1  0.5558320000000  0.4967970000000  0.5922500000000 1.0
C      1  0.4096490000000  0.5262560000000  0.5609490000000 1.0
C      1  0.4159900000000  0.4363420000000  0.5263170000000 1.0
C      1  0.4139910000000  0.4724180000000  0.4412870000000 1.0
C      1  0.4212760000000  0.5555550000000  0.4766740000000 1.0
C      1  0.5901070000000  0.4731230000000  0.5598400000000 1.0
C      1  0.5943130000000  0.5547890000000  0.5235290000000 1.0
C      1  0.5813110000000  0.5176540000000  0.4458270000000 1.0
C      1  0.5970820000000  0.4319510000000  0.4782050000000 1.0
C      1  0.5188290000000  0.5244980000000  0.6130960000000 1.0
C      1  0.5253270000000  0.4024490000000  0.5336470000000 1.0
C      1  0.5279700000000  0.4702320000000  0.3935180000000 1.0
C      1  0.5288670000000  0.5999500000000  0.4664040000000 1.0
C      1  0.4623080000000  0.4658710000000  0.6140900000000 1.0
C      1  0.4736710000000  0.6019470000000  0.5343090000000 1.0
C      1  0.4702820000000  0.5340280000000  0.3855180000000 1.0
C      1  0.4751370000000  0.3856980000000  0.4680120000000 1.0
C      1  0.6046960000000  0.4803440000000  0.5351430000000 1.0
C      1  0.6057390000000  0.4593800000000  0.4862010000000 1.0
C      1  0.5975050000000  0.5080620000000  0.4679840000000 1.0
C      1  0.6051300000000  0.5291370000000  0.5140680000000 1.0
C      1  0.4002550000000  0.5121280000000  0.5361310000000 1.0
C      1  0.4080770000000  0.5307070000000  0.4847740000000 1.0
C      1  0.4023390000000  0.4818620000000  0.4675210000000 1.0
C      1  0.4054680000000  0.4625790000000  0.5196190000000 1.0
C      1  0.4963880000000  0.4888280000000  0.5546090000000 1.0
C      1  0.4965900000000  0.4437220000000  0.4845610000000 1.0
C      1  0.4906890000000  0.5086830000000  0.4501630000000 1.0
C      1  0.4855810000000  0.5651310000000  0.4923130000000 1.0
C      1  0.5169230000000  0.5114450000000  0.5500610000000 1.0
C      1  0.5088620000000  0.5497950000000  0.4790960000000 1.0
C      1  0.5169960000000  0.4963400000000  0.4387500000000 1.0
C      1  0.5187620000000  0.4521870000000  0.5017580000000 1.0
C      1  0.5668310000000  0.5495530000000  0.5356490000000 1.0
C      1  0.5611700000000  0.4658690000000  0.5523530000000 1.0
C      1  0.5701080000000  0.4396180000000  0.4691080000000 1.0
C      1  0.5523480000000  0.5266080000000  0.4547660000000 1.0
C      1  0.4528460000000  0.4541400000000  0.5420590000000 1.0
C      1  0.4320270000000  0.5437470000000  0.5495590000000 1.0
C      1  0.4429810000000  0.5531810000000  0.4552580000000 1.0
C      1  0.4449160000000  0.4709790000000  0.4422450000000 1.0
C      1  0.4860180000000  0.4678940000000  0.4666850000000 1.0
C      1  0.4898500000000  0.5027190000000  0.4790650000000 1.0
C      1  0.4741070000000  0.5340840000000  0.5385430000000 1.0
C      1  0.4938120000000  0.4768970000000  0.5287040000000 1.0
C      1  0.5123970000000  0.5211570000000  0.4898810000000 1.0
C      1  0.5313740000000  0.4708630000000  0.4620520000000 1.0
C      1  0.5175220000000  0.4781940000000  0.5122330000000 1.0
C      1  0.5164270000000  0.5324550000000  0.5268640000000 1.0
C      1  0.5846650000000  0.5730230000000  0.5012800000000 1.0
C      1  0.5841680000000  0.4952830000000  0.5799940000000 1.0
C      1  0.5872720000000  0.4152760000000  0.5014410000000 1.0
C      1  0.5808960000000  0.4974300000000  0.4245470000000 1.0
C      1  0.4192260000000  0.4200110000000  0.5030750000000 1.0
C      1  0.4178090000000  0.5050160000000  0.5798760000000 1.0
C      1  0.4294070000000  0.5706500000000  0.5009500000000 1.0
C      1  0.4141500000000  0.4934750000000  0.4199960000000 1.0
C      1  0.4856640000000  0.5385370000000  0.5654410000000 1.0
C      1  0.4750390000000  0.4352500000000  0.5470350000000 1.0
C      1  0.4899050000000  0.4613860000000  0.4368490000000 1.0
C      1  0.4807080000000  0.5738370000000  0.4458470000000 1.0
C      1  0.5077510000000  0.4673790000000  0.5727340000000 1.0
C      1  0.5164950000000  0.5612250000000  0.5381370000000 1.0
C      1  0.5005190000000  0.5519430000000  0.4491560000000 1.0
C      1  0.5283390000000  0.4381790000000  0.4553230000000 1.0
C      1  0.4470760000000  0.6040740000000  0.4473100000000 1.0
C      1  0.4501380000000  0.5631580000000  0.5938390000000 1.0
C      1  0.4426320000000  0.4029050000000  0.5523240000000 1.0
C      1  0.4540090000000  0.4437510000000  0.4027990000000 1.0
C      1  0.5529410000000  0.4031280000000  0.4430640000000 1.0
C      1  0.5504320000000  0.4465030000000  0.6026490000000 1.0
C      1  0.5538830000000  0.5974190000000  0.5548230000000 1.0
C      1  0.5500090000000  0.5593830000000  0.4098770000000 1.0
C      1  0.4982880000000  0.4002890000000  0.4776150000000 1.0
C      1  0.4906200000000  0.5273810000000  0.4073450000000 1.0
C      1  0.4973180000000  0.6003020000000  0.5162900000000 1.0
C      1  0.4900330000000  0.4712960000000  0.6237920000000 1.0
C      1  0.5026910000000  0.6097340000000  0.4735610000000 1.0
C      1  0.5030490000000  0.4855560000000  0.3994860000000 1.0
C      1  0.4989270000000  0.3984800000000  0.5220410000000 1.0
C      1  0.4970440000000  0.5098970000000  0.6031320000000 1.0
C      1  0.4095620000000  0.4643040000000  0.4902350000000 1.0
C      1  0.4097190000000  0.5096340000000  0.4653190000000 1.0
C      1  0.4093290000000  0.5295330000000  0.5138200000000 1.0
C      1  0.4091530000000  0.4840890000000  0.5391400000000 1.0
C      1  0.5921270000000  0.5287300000000  0.4875900000000 1.0
C      1  0.5894770000000  0.4789810000000  0.4680660000000 1.0
C      1  0.5974200000000  0.4603100000000  0.5146060000000 1.0
C      1  0.5994270000000  0.5090570000000  0.5354040000000 1.0
C      1  0.5510190000000  0.6037060000000  0.4823000000000 1.0
C      1  0.5439710000000  0.5235160000000  0.5990020000000 1.0
C      1  0.5467200000000  0.3934010000000  0.5182200000000 1.0
C      1  0.5492830000000  0.4875810000000  0.3867110000000 1.0
C      1  0.4488090000000  0.3938940000000  0.4741600000000 1.0
C      1  0.4454180000000  0.4884190000000  0.6164750000000 1.0
C      1  0.4497320000000  0.6103020000000  0.5225240000000 1.0
C      1  0.4426920000000  0.5194460000000  0.3883410000000 1.0
C      1  0.5637340000000  0.4296600000000  0.4428570000000 1.0
C      1  0.5550840000000  0.5722750000000  0.4369390000000 1.0
C      1  0.5660540000000  0.5732510000000  0.5519330000000 1.0
C      1  0.5563860000000  0.4495980000000  0.5757730000000 1.0
C      1  0.4392470000000  0.5779130000000  0.4411830000000 1.0
C      1  0.4454070000000  0.4429860000000  0.4305860000000 1.0
C      1  0.4266530000000  0.4268760000000  0.5507940000000 1.0
C      1  0.4415990000000  0.5680370000000  0.5654470000000 1.0
C      1  0.4787870000000  0.4305540000000  0.4007000000000 1.0
C      1  0.4662040000000  0.6150990000000  0.4294880000000 1.0
C      1  0.4764680000000  0.5735360000000  0.5976140000000 1.0
C      1  0.4615320000000  0.4022000000000  0.5737730000000 1.0
C      1  0.5243000000000  0.5683990000000  0.3996760000000 1.0
C      1  0.5303900000000  0.4010690000000  0.4258120000000 1.0
C      1  0.5237760000000  0.4330680000000  0.6007530000000 1.0
C      1  0.5323950000000  0.5945580000000  0.5721620000000 1.0
C      1  0.5128700000000  0.4684300000000  0.6029760000000 1.0
C      1  0.5239110000000  0.4165420000000  0.4767430000000 1.0
C      1  0.5119770000000  0.5414360000000  0.4237630000000 1.0
C      1  0.5220060000000  0.5820800000000  0.5176670000000 1.0
C      1  0.4747800000000  0.5190680000000  0.5856920000000 1.0
C      1  0.4804370000000  0.5894200000000  0.4721740000000 1.0
C      1  0.4775540000000  0.4789190000000  0.4155210000000 1.0
C      1  0.4743850000000  0.4159080000000  0.5243350000000 1.0
C      1  0.5198450000000  0.4285700000000  0.4274260000000 1.0
C      1  0.5118540000000  0.5842520000000  0.4214710000000 1.0
C      1  0.5246740000000  0.5665920000000  0.5677020000000 1.0
C      1  0.5110800000000  0.4363050000000  0.5726280000000 1.0
C      1  0.4814190000000  0.5925300000000  0.4216380000000 1.0
C      1  0.4886260000000  0.4326740000000  0.4280300000000 1.0
C      1  0.4758030000000  0.4277360000000  0.5755760000000 1.0
C      1  0.4882700000000  0.5673990000000  0.5715610000000 1.0
C      1  0.5354480000000  0.5627560000000  0.4890720000000 1.0
C      1  0.5447560000000  0.5014500000000  0.5498770000000 1.0
C      1  0.5470460000000  0.4440420000000  0.5003120000000 1.0
C      1  0.5328480000000  0.5210780000000  0.4320110000000 1.0
C      1  0.4710240000000  0.4384810000000  0.5008740000000 1.0
C      1  0.4672270000000  0.4967390000000  0.5638900000000 1.0
C      1  0.4610980000000  0.5441410000000  0.4887720000000 1.0
C      1  0.4653020000000  0.5032530000000  0.4344850000000 1.0
C      1  0.5012270000000  0.5105930000000  0.3866960000000 1.0
C      1  0.5013130000000  0.6219050000000  0.4988280000000 1.0
C      1  0.4979700000000  0.3815410000000  0.4991030000000 1.0
C      1  0.4931230000000  0.4994050000000  0.6289970000000 1.0
C      1  0.5538560000000  0.5123000000000  0.5022080000000 1.0
C      1  0.4544740000000  0.4978960000000  0.5141550000000 1.0
END
