TITL C-3578198-8939-15 3.55249552414755e-07 125000 -1039.55106240096 0 0 166 (C1) n - 1
REM
REM in /home/bkarasulu/work/CARBON/AIRSS/Generating-Clusters/EDIP-Nigel-Params/with-SteepDescent/Higher-Symm/SD-CG/HFTN-CG
REM
REM
REM
REM
REM
REM ./C.cell (12c818d87b63d06a65506943cc24bca4)
REM
REM compiler GCC version 9.2.1 20190827 (Red Hat 9.2.1-1)
REM options -cpp -mtune=generic -march=x86-64 -g -O0 -fpre-include=/usr/include/finclude/math-vector-fortran.h
REM seed -405601044 1460414686 485079929 1686297340 994718186 1705099620 -217670475 288799742 1317296078 -1237085528 639799007 1805893533 498349732 -298706433 -848989228 1850920475 -123210619 721468547 704172395 -858928819 1319571115 -801803837 960829004 -1004944866 1058030750 -771302337 690382093 -875951934 -1054930526 1442803053 -1092161740 -213701879 -1975808869
REM
CELL 1.54180   50.00000   50.00000   50.00000   90.00000   90.00000   90.00000
LATT -1
SFAC C  
C      1  0.5039390000000  0.5313680000000  0.4434800000000 1.0
C      1  0.4579050000000  0.4556000000000  0.4702410000000 1.0
C      1  0.5158480000000  0.5352680000000  0.4154520000000 1.0
C      1  0.4379870000000  0.4563720000000  0.5408610000000 1.0
C      1  0.4720080000000  0.5243580000000  0.4378770000000 1.0
C      1  0.5009620000000  0.5211540000000  0.5917730000000 1.0
C      1  0.5931390000000  0.4853350000000  0.4793880000000 1.0
C      1  0.4336390000000  0.4146640000000  0.5277760000000 1.0
C      1  0.5410940000000  0.4752620000000  0.4631150000000 1.0
C      1  0.4561120000000  0.5174340000000  0.6077770000000 1.0
C      1  0.4788870000000  0.4714550000000  0.5995610000000 1.0
C      1  0.4497980000000  0.4219480000000  0.5530140000000 1.0
C      1  0.5862570000000  0.5576480000000  0.4625920000000 1.0
C      1  0.5090450000000  0.3958780000000  0.5153380000000 1.0
C      1  0.4639470000000  0.5802930000000  0.5332100000000 1.0
C      1  0.5673250000000  0.5840820000000  0.5051990000000 1.0
C      1  0.4081110000000  0.4585350000000  0.4371250000000 1.0
C      1  0.5959600000000  0.4787480000000  0.5303590000000 1.0
C      1  0.4393390000000  0.5188010000000  0.4756990000000 1.0
C      1  0.5154370000000  0.5720270000000  0.5782540000000 1.0
C      1  0.4556220000000  0.4596740000000  0.5002820000000 1.0
C      1  0.5916760000000  0.5292810000000  0.4195680000000 1.0
C      1  0.4047010000000  0.5467460000000  0.5086760000000 1.0
C      1  0.4890340000000  0.4910220000000  0.5009700000000 1.0
C      1  0.3957660000000  0.4975630000000  0.4973930000000 1.0
C      1  0.5662380000000  0.4544360000000  0.5030080000000 1.0
C      1  0.4903270000000  0.4606850000000  0.4282400000000 1.0
C      1  0.4802700000000  0.4619460000000  0.5537660000000 1.0
C      1  0.4611910000000  0.4856080000000  0.5120090000000 1.0
C      1  0.6008780000000  0.5177090000000  0.5586990000000 1.0
C      1  0.4118140000000  0.4874380000000  0.5577220000000 1.0
C      1  0.5573310000000  0.4260910000000  0.5001860000000 1.0
C      1  0.4223500000000  0.4805190000000  0.4469080000000 1.0
C      1  0.4700770000000  0.4501360000000  0.5803600000000 1.0
C      1  0.4085730000000  0.4636010000000  0.5402240000000 1.0
C      1  0.5047180000000  0.4671600000000  0.4979510000000 1.0
C      1  0.4614140000000  0.4672550000000  0.4231840000000 1.0
C      1  0.5570020000000  0.5353000000000  0.5832300000000 1.0
C      1  0.4144090000000  0.5565090000000  0.5342530000000 1.0
C      1  0.5833630000000  0.4794680000000  0.4213740000000 1.0
C      1  0.5415470000000  0.5932060000000  0.4637890000000 1.0
C      1  0.6156600000000  0.5265260000000  0.5351570000000 1.0
C      1  0.4315500000000  0.5298200000000  0.6020490000000 1.0
C      1  0.4094180000000  0.5397050000000  0.5578900000000 1.0
C      1  0.5709940000000  0.4370310000000  0.5447600000000 1.0
C      1  0.4815030000000  0.5683760000000  0.4533110000000 1.0
C      1  0.4031200000000  0.5136780000000  0.5454270000000 1.0
C      1  0.5521480000000  0.5484580000000  0.5020530000000 1.0
C      1  0.5718010000000  0.4644750000000  0.4752920000000 1.0
C      1  0.5193250000000  0.6037820000000  0.4845320000000 1.0
C      1  0.4499750000000  0.5570890000000  0.4186010000000 1.0
C      1  0.5322580000000  0.4398910000000  0.5736260000000 1.0
C      1  0.5553600000000  0.5218400000000  0.4281790000000 1.0
C      1  0.4749950000000  0.5980650000000  0.5111980000000 1.0
C      1  0.5457320000000  0.4904010000000  0.3898470000000 1.0
C      1  0.4461630000000  0.5149270000000  0.5551200000000 1.0
C      1  0.5277570000000  0.4221310000000  0.4366360000000 1.0
C      1  0.5168750000000  0.4184770000000  0.5611910000000 1.0
C      1  0.5580190000000  0.5726200000000  0.5513540000000 1.0
C      1  0.5382100000000  0.5557580000000  0.5664670000000 1.0
C      1  0.5561660000000  0.4917540000000  0.4171110000000 1.0
C      1  0.3889070000000  0.5061760000000  0.4717650000000 1.0
C      1  0.5481020000000  0.5844490000000  0.5273610000000 1.0
C      1  0.4407420000000  0.5303930000000  0.5280680000000 1.0
C      1  0.5991990000000  0.5252740000000  0.5097810000000 1.0
C      1  0.4149690000000  0.4763480000000  0.4987520000000 1.0
C      1  0.5268940000000  0.4098950000000  0.5355680000000 1.0
C      1  0.5614700000000  0.5093770000000  0.5349890000000 1.0
C      1  0.4761390000000  0.5466340000000  0.4973150000000 1.0
C      1  0.5515400000000  0.5234410000000  0.4577910000000 1.0
C      1  0.5980840000000  0.5339430000000  0.4774390000000 1.0
C      1  0.5382940000000  0.4071610000000  0.4595980000000 1.0
C      1  0.5114860000000  0.4784140000000  0.4190400000000 1.0
C      1  0.4382400000000  0.5676300000000  0.4427670000000 1.0
C      1  0.5064920000000  0.5070490000000  0.5172000000000 1.0
C      1  0.5644290000000  0.4809730000000  0.5725700000000 1.0
C      1  0.5178260000000  0.4915220000000  0.5415020000000 1.0
C      1  0.4511310000000  0.4996970000000  0.4053220000000 1.0
C      1  0.4454030000000  0.4080030000000  0.4785790000000 1.0
C      1  0.5928250000000  0.5084360000000  0.4626310000000 1.0
C      1  0.4592190000000  0.4929140000000  0.5905870000000 1.0
C      1  0.4723490000000  0.4360820000000  0.5075240000000 1.0
C      1  0.3985690000000  0.5188440000000  0.5168450000000 1.0
C      1  0.5290160000000  0.4303930000000  0.4962510000000 1.0
C      1  0.4145070000000  0.5068790000000  0.4582170000000 1.0
C      1  0.5005260000000  0.4180350000000  0.4276710000000 1.0
C      1  0.4760380000000  0.5969150000000  0.4610220000000 1.0
C      1  0.5339170000000  0.5038530000000  0.4705160000000 1.0
C      1  0.5526800000000  0.4898960000000  0.5134270000000 1.0
C      1  0.4888710000000  0.5394150000000  0.5510660000000 1.0
C      1  0.4139890000000  0.4470270000000  0.4925180000000 1.0
C      1  0.4406840000000  0.4500490000000  0.5787450000000 1.0
C      1  0.4350290000000  0.5805670000000  0.4877710000000 1.0
C      1  0.5042920000000  0.5441630000000  0.4930480000000 1.0
C      1  0.4582500000000  0.4801750000000  0.5416630000000 1.0
C      1  0.5847090000000  0.5398660000000  0.5704410000000 1.0
C      1  0.4340260000000  0.4349970000000  0.4703540000000 1.0
C      1  0.5803000000000  0.5549930000000  0.5453820000000 1.0
C      1  0.4386920000000  0.5065660000000  0.5043460000000 1.0
C      1  0.4190170000000  0.5570630000000  0.4845220000000 1.0
C      1  0.5194490000000  0.5882590000000  0.5305180000000 1.0
C      1  0.4875850000000  0.4219850000000  0.4774150000000 1.0
C      1  0.4505920000000  0.4372980000000  0.4256540000000 1.0
C      1  0.5077150000000  0.4756150000000  0.5908970000000 1.0
C      1  0.4895670000000  0.4401950000000  0.5336470000000 1.0
C      1  0.4923050000000  0.4486810000000  0.4575750000000 1.0
C      1  0.5161760000000  0.4496770000000  0.5184310000000 1.0
C      1  0.4114950000000  0.4322180000000  0.5180670000000 1.0
C      1  0.5171480000000  0.4581160000000  0.4733840000000 1.0
C      1  0.4861500000000  0.5588430000000  0.5751300000000 1.0
C      1  0.5021340000000  0.4781250000000  0.5619710000000 1.0
C      1  0.5794520000000  0.4397730000000  0.4594080000000 1.0
C      1  0.5359580000000  0.5122490000000  0.5516250000000 1.0
C      1  0.5326250000000  0.5102290000000  0.5008150000000 1.0
C      1  0.5671670000000  0.5806310000000  0.4758050000000 1.0
C      1  0.5360430000000  0.4691680000000  0.5320850000000 1.0
C      1  0.4694390000000  0.4037900000000  0.4622110000000 1.0
C      1  0.5745100000000  0.4449420000000  0.4309550000000 1.0
C      1  0.5076380000000  0.5924470000000  0.5570760000000 1.0
C      1  0.4776470000000  0.5069340000000  0.4138980000000 1.0
C      1  0.5122300000000  0.5534020000000  0.4654940000000 1.0
C      1  0.5823500000000  0.4950470000000  0.5517670000000 1.0
C      1  0.5960480000000  0.5041380000000  0.4336450000000 1.0
C      1  0.5869270000000  0.4516700000000  0.5239670000000 1.0
C      1  0.5215470000000  0.5389810000000  0.5455970000000 1.0
C      1  0.4251810000000  0.4365320000000  0.4416000000000 1.0
C      1  0.5958170000000  0.4955900000000  0.5063170000000 1.0
C      1  0.5557260000000  0.4155860000000  0.5288300000000 1.0
C      1  0.4781070000000  0.5654670000000  0.4229890000000 1.0
C      1  0.5643340000000  0.4160290000000  0.4718380000000 1.0
C      1  0.5729890000000  0.5353340000000  0.5225740000000 1.0
C      1  0.4387410000000  0.5275190000000  0.4175410000000 1.0
C      1  0.4332430000000  0.5354710000000  0.5744860000000 1.0
C      1  0.4588610000000  0.5970080000000  0.4863310000000 1.0
C      1  0.5043890000000  0.5977380000000  0.5086330000000 1.0
C      1  0.4333050000000  0.4797650000000  0.5784460000000 1.0
C      1  0.5085270000000  0.5067540000000  0.4581450000000 1.0
C      1  0.5232640000000  0.6022440000000  0.4412800000000 1.0
C      1  0.5378380000000  0.4724570000000  0.4321360000000 1.0
C      1  0.5439240000000  0.5496170000000  0.4696920000000 1.0
C      1  0.5458140000000  0.5061510000000  0.5803720000000 1.0
C      1  0.4155960000000  0.5277860000000  0.4379810000000 1.0
C      1  0.4671950000000  0.5491300000000  0.5261620000000 1.0
C      1  0.4806440000000  0.3945270000000  0.5244780000000 1.0
C      1  0.4775330000000  0.5858480000000  0.5596660000000 1.0
C      1  0.5249000000000  0.5470540000000  0.5149820000000 1.0
C      1  0.4977450000000  0.5196560000000  0.3972610000000 1.0
C      1  0.5801400000000  0.5507250000000  0.4347440000000 1.0
C      1  0.4596740000000  0.5502930000000  0.4703110000000 1.0
C      1  0.5453360000000  0.4439680000000  0.4249820000000 1.0
C      1  0.4768950000000  0.5135400000000  0.5623460000000 1.0
C      1  0.4809460000000  0.4137530000000  0.5480190000000 1.0
C      1  0.4617880000000  0.5054860000000  0.4597590000000 1.0
C      1  0.5194760000000  0.4820190000000  0.3916760000000 1.0
C      1  0.4558880000000  0.4097790000000  0.5082170000000 1.0
C      1  0.4722270000000  0.4162580000000  0.4347430000000 1.0
C      1  0.4791120000000  0.5345960000000  0.6041290000000 1.0
C      1  0.5021280000000  0.6118700000000  0.4606530000000 1.0
C      1  0.4996560000000  0.5575290000000  0.4048790000000 1.0
C      1  0.5512420000000  0.4567820000000  0.5570430000000 1.0
C      1  0.5235130000000  0.4521980000000  0.5968820000000 1.0
C      1  0.4510150000000  0.4779380000000  0.4501080000000 1.0
C      1  0.4860860000000  0.5016380000000  0.4743760000000 1.0
C      1  0.5131680000000  0.4065310000000  0.4861210000000 1.0
C      1  0.4182620000000  0.5520490000000  0.4551040000000 1.0
C      1  0.5209580000000  0.5014790000000  0.5974880000000 1.0
END
