TITL C-3578202-4305-167 3.01673538825763e-06 125000 -499.508339687282 0 0 85 (C1) n - 1
REM
REM in /home/bkarasulu/work/CARBON/AIRSS/Generating-Clusters/EDIP-Nigel-Params/with-SteepDescent/Higher-Symm/SD-CG/HFTN-CG
REM
REM
REM
REM
REM
REM ./C.cell (12c818d87b63d06a65506943cc24bca4)
REM
REM compiler GCC version 9.2.1 20190827 (Red Hat 9.2.1-1)
REM options -cpp -mtune=generic -march=x86-64 -g -O0 -fpre-include=/usr/include/finclude/math-vector-fortran.h
REM seed -258145207 1589095187 2051345279 1923913733 -1566766215 -885737681 415233605 -209101539 -1285866093 1929536968 -755544529 748165095 440686439 -989837198 1819973258 149216612 -859129616 799088356 -1090297484 725111566 46069088 -449276533 1442095079 -637152596 1661928246 1221224131 421196094 1351399243 446684620 -1495652612 1271512375 -2069748000 -1974570404
REM
CELL 1.54180   50.00000   50.00000   50.00000   90.00000   90.00000   90.00000
LATT -1
SFAC C  
C      1  0.5282060000000  0.4336650000000  0.5218200000000 1.0
C      1  0.5385450000000  0.4809770000000  0.5669970000000 1.0
C      1  0.5383150000000  0.5552940000000  0.5398420000000 1.0
C      1  0.5299540000000  0.5700510000000  0.4779720000000 1.0
C      1  0.5364440000000  0.5176280000000  0.4373770000000 1.0
C      1  0.5363440000000  0.4463480000000  0.4647240000000 1.0
C      1  0.4588040000000  0.4386670000000  0.4695830000000 1.0
C      1  0.4639600000000  0.4857480000000  0.4323990000000 1.0
C      1  0.4581920000000  0.5486800000000  0.4531020000000 1.0
C      1  0.4624550000000  0.5567080000000  0.5184900000000 1.0
C      1  0.4660800000000  0.5126050000000  0.5724350000000 1.0
C      1  0.4586580000000  0.4454510000000  0.5487490000000 1.0
C      1  0.5431730000000  0.4819920000000  0.5353280000000 1.0
C      1  0.5456230000000  0.5343760000000  0.5199150000000 1.0
C      1  0.5387410000000  0.5422520000000  0.4903560000000 1.0
C      1  0.5440430000000  0.5169000000000  0.4697590000000 1.0
C      1  0.5424680000000  0.4691820000000  0.4855840000000 1.0
C      1  0.5339790000000  0.4614810000000  0.5138560000000 1.0
C      1  0.4626910000000  0.4917410000000  0.4629460000000 1.0
C      1  0.4524290000000  0.5227820000000  0.4716840000000 1.0
C      1  0.4675340000000  0.5321590000000  0.4966120000000 1.0
C      1  0.4618120000000  0.5106020000000  0.5424090000000 1.0
C      1  0.4517890000000  0.4728450000000  0.5432160000000 1.0
C      1  0.4570820000000  0.4671980000000  0.4837410000000 1.0
C      1  0.4696570000000  0.5103940000000  0.4189910000000 1.0
C      1  0.4683090000000  0.4390200000000  0.4416110000000 1.0
C      1  0.4670320000000  0.4350140000000  0.5227770000000 1.0
C      1  0.4721280000000  0.4869020000000  0.5834230000000 1.0
C      1  0.4686520000000  0.5526590000000  0.5471990000000 1.0
C      1  0.4611850000000  0.5719970000000  0.4703430000000 1.0
C      1  0.5350770000000  0.5094060000000  0.5744680000000 1.0
C      1  0.5259040000000  0.4342790000000  0.5499210000000 1.0
C      1  0.5291860000000  0.4206250000000  0.4763650000000 1.0
C      1  0.5346430000000  0.4900400000000  0.4274180000000 1.0
C      1  0.5275810000000  0.5664900000000  0.4493760000000 1.0
C      1  0.5276070000000  0.5782160000000  0.5257770000000 1.0
C      1  0.5050050000000  0.4294730000000  0.5685530000000 1.0
C      1  0.5135900000000  0.5214710000000  0.5894860000000 1.0
C      1  0.5010040000000  0.5895470000000  0.5261780000000 1.0
C      1  0.5034910000000  0.5690710000000  0.4336680000000 1.0
C      1  0.5122300000000  0.4785060000000  0.4137220000000 1.0
C      1  0.5028180000000  0.4095240000000  0.4715810000000 1.0
C      1  0.4963290000000  0.4322540000000  0.4345170000000 1.0
C      1  0.4935950000000  0.5224790000000  0.4081900000000 1.0
C      1  0.4826540000000  0.5906010000000  0.4729910000000 1.0
C      1  0.4927830000000  0.5622880000000  0.5598130000000 1.0
C      1  0.4974320000000  0.4804970000000  0.5935170000000 1.0
C      1  0.4830760000000  0.4108740000000  0.5211550000000 1.0
C      1  0.4304340000000  0.4748760000000  0.4964960000000 1.0
C      1  0.4316270000000  0.4831150000000  0.5255360000000 1.0
C      1  0.4327390000000  0.5122300000000  0.5307470000000 1.0
C      1  0.4249660000000  0.5276940000000  0.5084420000000 1.0
C      1  0.4243540000000  0.5198670000000  0.4815470000000 1.0
C      1  0.4158050000000  0.4932150000000  0.4805600000000 1.0
C      1  0.5853000000000  0.4758150000000  0.5098590000000 1.0
C      1  0.5714190000000  0.4787480000000  0.4853340000000 1.0
C      1  0.5723110000000  0.5070260000000  0.4754670000000 1.0
C      1  0.5851150000000  0.5231230000000  0.4949030000000 1.0
C      1  0.5719320000000  0.5208550000000  0.5201350000000 1.0
C      1  0.5706380000000  0.4922740000000  0.5277390000000 1.0
C      1  0.5213730000000  0.4496250000000  0.4379800000000 1.0
C      1  0.5109700000000  0.4117300000000  0.5099090000000 1.0
C      1  0.5170250000000  0.4645190000000  0.5799660000000 1.0
C      1  0.5187530000000  0.5474550000000  0.5611270000000 1.0
C      1  0.5082610000000  0.5886760000000  0.4879800000000 1.0
C      1  0.5175050000000  0.5350490000000  0.4211980000000 1.0
C      1  0.4800110000000  0.4433640000000  0.5684570000000 1.0
C      1  0.4766710000000  0.4178660000000  0.4834300000000 1.0
C      1  0.4851780000000  0.4675560000000  0.4211930000000 1.0
C      1  0.4799710000000  0.5504340000000  0.4318910000000 1.0
C      1  0.4764100000000  0.5825030000000  0.5103580000000 1.0
C      1  0.4867710000000  0.5320050000000  0.5816720000000 1.0
C      1  0.5006440000000  0.4476110000000  0.4900610000000 1.0
C      1  0.4989470000000  0.4605860000000  0.5398350000000 1.0
C      1  0.5166000000000  0.5090200000000  0.5411800000000 1.0
C      1  0.5059540000000  0.5504040000000  0.5100890000000 1.0
C      1  0.5055290000000  0.5373970000000  0.4619830000000 1.0
C      1  0.5102230000000  0.4879050000000  0.4568900000000 1.0
C      1  0.4819710000000  0.4585520000000  0.5118810000000 1.0
C      1  0.4950670000000  0.4621770000000  0.4633460000000 1.0
C      1  0.4939850000000  0.5125400000000  0.4495100000000 1.0
C      1  0.4894180000000  0.5491240000000  0.4844700000000 1.0
C      1  0.4945090000000  0.5292060000000  0.5310090000000 1.0
C      1  0.4970820000000  0.4877990000000  0.5534520000000 1.0
C      1  0.5273530000000  0.4939220000000  0.4790870000000 1.0
END
