TITL C-3578198-8939-171 1.40585703801264e-07 125000 -837.248379151559 0 0 132 (C3) n - 1
REM
REM in /home/bkarasulu/work/CARBON/AIRSS/Generating-Clusters/EDIP-Nigel-Params/with-SteepDescent/Higher-Symm/SD-CG/HFTN-CG
REM
REM
REM
REM
REM
REM ./C.cell (12c818d87b63d06a65506943cc24bca4)
REM
REM compiler GCC version 9.2.1 20190827 (Red Hat 9.2.1-1)
REM options -cpp -mtune=generic -march=x86-64 -g -O0 -fpre-include=/usr/include/finclude/math-vector-fortran.h
REM seed -1522506816 1516163160 -1027973092 50027207 -405452440 674556380 1476556756 1348591183 -723874363 -291949285 739334839 1162857913 1338901549 1207277103 1635940562 -821520304 -1935300826 1392968938 997303905 359857159 1575647528 1795249957 1803805731 -723211926 -296851890 -374617188 708807293 -1060345251 -396093456 -1144780455 -1079190679 2105094587 -208021555
REM
CELL 1.54180   50.00000   50.00000   50.00000   90.00000   90.00000   90.00000
LATT -1
SFAC C  
C      1  0.5519110000000  0.5004050000000  0.5623120000000 1.0
C      1  0.4743930000000  0.4548440000000  0.5623130000000 1.0
C      1  0.4736950000000  0.5447560000000  0.5623100000000 1.0
C      1  0.4478760000000  0.4987670000000  0.5618880000000 1.0
C      1  0.5271300000000  0.4554790000000  0.5618900000000 1.0
C      1  0.5249920000000  0.5457590000000  0.5618870000000 1.0
C      1  0.4059040000000  0.4639150000000  0.5384190000000 1.0
C      1  0.5157960000000  0.5995330000000  0.5384160000000 1.0
C      1  0.5782990000000  0.4365550000000  0.5384210000000 1.0
C      1  0.5917530000000  0.4631470000000  0.5396160000000 1.0
C      1  0.4860390000000  0.5978890000000  0.5396110000000 1.0
C      1  0.4222070000000  0.4389670000000  0.5396150000000 1.0
C      1  0.5762770000000  0.5672450000000  0.5561050000000 1.0
C      1  0.5200950000000  0.4003210000000  0.5561090000000 1.0
C      1  0.4036260000000  0.5324390000000  0.5561040000000 1.0
C      1  0.4231900000000  0.5654730000000  0.5564590000000 1.0
C      1  0.4817050000000  0.4007470000000  0.5564640000000 1.0
C      1  0.5951040000000  0.5337850000000  0.5564610000000 1.0
C      1  0.4055010000000  0.4801920000000  0.5142720000000 1.0
C      1  0.5300940000000  0.5917430000000  0.5142700000000 1.0
C      1  0.5644040000000  0.4280670000000  0.5142750000000 1.0
C      1  0.5937960000000  0.4793990000000  0.5151620000000 1.0
C      1  0.4709440000000  0.5915310000000  0.5151580000000 1.0
C      1  0.4352600000000  0.4290720000000  0.5151630000000 1.0
C      1  0.5220290000000  0.4588300000000  0.4635020000000 1.0
C      1  0.4533320000000  0.5015060000000  0.4635000000000 1.0
C      1  0.5246390000000  0.5396610000000  0.4634990000000 1.0
C      1  0.4775480000000  0.4589910000000  0.4635110000000 1.0
C      1  0.5467400000000  0.5010590000000  0.4635100000000 1.0
C      1  0.4757120000000  0.5399470000000  0.4635080000000 1.0
C      1  0.4699080000000  0.4220180000000  0.4533990000000 1.0
C      1  0.4475140000000  0.5650500000000  0.4533950000000 1.0
C      1  0.5825800000000  0.5129280000000  0.4533970000000 1.0
C      1  0.5294030000000  0.4218420000000  0.4532450000000 1.0
C      1  0.5529840000000  0.5645400000000  0.4532400000000 1.0
C      1  0.4176140000000  0.5136130000000  0.4532410000000 1.0
C      1  0.5242080000000  0.5433430000000  0.5102450000000 1.0
C      1  0.5254310000000  0.4573640000000  0.5102470000000 1.0
C      1  0.4503600000000  0.4992940000000  0.5102460000000 1.0
C      1  0.4758830000000  0.5433620000000  0.5102570000000 1.0
C      1  0.4745060000000  0.4574340000000  0.5102590000000 1.0
C      1  0.5496110000000  0.4992060000000  0.5102590000000 1.0
C      1  0.4698600000000  0.5002920000000  0.4884140000000 1.0
C      1  0.5153230000000  0.5259550000000  0.4884130000000 1.0
C      1  0.5148170000000  0.4737520000000  0.4884150000000 1.0
C      1  0.5301570000000  0.5001320000000  0.4884090000000 1.0
C      1  0.4848080000000  0.5260500000000  0.4884080000000 1.0
C      1  0.4850360000000  0.4738170000000  0.4884090000000 1.0
C      1  0.5738930000000  0.5589380000000  0.4735630000000 1.0
C      1  0.5140970000000  0.4065370000000  0.4735670000000 1.0
C      1  0.4120110000000  0.5345220000000  0.4735630000000 1.0
C      1  0.4266760000000  0.5594910000000  0.4737980000000 1.0
C      1  0.4851410000000  0.4067530000000  0.4738030000000 1.0
C      1  0.5881840000000  0.5337540000000  0.4738000000000 1.0
C      1  0.4697170000000  0.5000220000000  0.4385440000000 1.0
C      1  0.5151630000000  0.5262120000000  0.4385440000000 1.0
C      1  0.5151210000000  0.4737600000000  0.4385450000000 1.0
C      1  0.5302930000000  0.4997280000000  0.4385540000000 1.0
C      1  0.4850880000000  0.5263680000000  0.4385530000000 1.0
C      1  0.4846200000000  0.4738990000000  0.4385550000000 1.0
C      1  0.4701990000000  0.4994440000000  0.5828550000000 1.0
C      1  0.5144160000000  0.5260890000000  0.5828550000000 1.0
C      1  0.5153830000000  0.4744740000000  0.5828560000000 1.0
C      1  0.5296660000000  0.5004600000000  0.5829980000000 1.0
C      1  0.4847700000000  0.5254650000000  0.5829970000000 1.0
C      1  0.4855630000000  0.4740820000000  0.5829980000000 1.0
C      1  0.5287120000000  0.5475880000000  0.4097400000000 1.0
C      1  0.5268590000000  0.4513370000000  0.4097430000000 1.0
C      1  0.4444300000000  0.5010670000000  0.4097410000000 1.0
C      1  0.4717440000000  0.5478910000000  0.4097740000000 1.0
C      1  0.4726520000000  0.4515790000000  0.4097770000000 1.0
C      1  0.5556060000000  0.5005220000000  0.4097760000000 1.0
C      1  0.5700660000000  0.4773370000000  0.5655040000000 1.0
C      1  0.4453380000000  0.4506550000000  0.5655040000000 1.0
C      1  0.4845950000000  0.5720140000000  0.5655010000000 1.0
C      1  0.4305530000000  0.4747500000000  0.5638700000000 1.0
C      1  0.5565910000000  0.4524850000000  0.5638720000000 1.0
C      1  0.5128550000000  0.5727700000000  0.5638680000000 1.0
C      1  0.4331960000000  0.5219870000000  0.4274720000000 1.0
C      1  0.5524460000000  0.5468570000000  0.4274730000000 1.0
C      1  0.5143590000000  0.4311490000000  0.4274760000000 1.0
C      1  0.5670300000000  0.5213390000000  0.4275420000000 1.0
C      1  0.4480030000000  0.5473760000000  0.4275400000000 1.0
C      1  0.4849680000000  0.4312780000000  0.4275440000000 1.0
C      1  0.5300200000000  0.4999760000000  0.3947070000000 1.0
C      1  0.4849730000000  0.4740100000000  0.3947070000000 1.0
C      1  0.4850090000000  0.5260040000000  0.3947050000000 1.0
C      1  0.4699960000000  0.5002730000000  0.3946960000000 1.0
C      1  0.5147640000000  0.4738740000000  0.3946970000000 1.0
C      1  0.5152420000000  0.5258430000000  0.3946960000000 1.0
C      1  0.4704010000000  0.3996430000000  0.4962180000000 1.0
C      1  0.4278880000000  0.5758110000000  0.4962130000000 1.0
C      1  0.6017110000000  0.5245450000000  0.4962160000000 1.0
C      1  0.5289930000000  0.3989030000000  0.4956330000000 1.0
C      1  0.5730560000000  0.5756570000000  0.4956280000000 1.0
C      1  0.3979510000000  0.5254400000000  0.4956290000000 1.0
C      1  0.4466170000000  0.4510150000000  0.4982750000000 1.0
C      1  0.4842690000000  0.5707240000000  0.4982720000000 1.0
C      1  0.5691140000000  0.4782610000000  0.4982750000000 1.0
C      1  0.5530550000000  0.4505640000000  0.4981200000000 1.0
C      1  0.5162850000000  0.5706650000000  0.4981160000000 1.0
C      1  0.4306590000000  0.4787710000000  0.4981180000000 1.0
C      1  0.5244800000000  0.5700990000000  0.4677530000000 1.0
C      1  0.5484690000000  0.4437490000000  0.4677570000000 1.0
C      1  0.4270520000000  0.4861490000000  0.4677550000000 1.0
C      1  0.4759510000000  0.5704790000000  0.4678890000000 1.0
C      1  0.4509880000000  0.4439320000000  0.4678920000000 1.0
C      1  0.5730620000000  0.4855870000000  0.4678920000000 1.0
C      1  0.5174700000000  0.4713140000000  0.5358650000000 1.0
C      1  0.4664210000000  0.4992160000000  0.5358640000000 1.0
C      1  0.5161090000000  0.5294740000000  0.5358640000000 1.0
C      1  0.4829300000000  0.4710790000000  0.5359130000000 1.0
C      1  0.5335820000000  0.4996800000000  0.5359120000000 1.0
C      1  0.4834870000000  0.5292440000000  0.5359110000000 1.0
C      1  0.5473660000000  0.4041480000000  0.5159030000000 1.0
C      1  0.3933060000000  0.5069070000000  0.5158980000000 1.0
C      1  0.5593270000000  0.5889470000000  0.5158970000000 1.0
C      1  0.4527870000000  0.4053830000000  0.5170920000000 1.0
C      1  0.6055470000000  0.5064220000000  0.5170900000000 1.0
C      1  0.4416650000000  0.5881970000000  0.5170860000000 1.0
C      1  0.5685920000000  0.5247860000000  0.5649190000000 1.0
C      1  0.4871670000000  0.4282070000000  0.5649210000000 1.0
C      1  0.4442400000000  0.5470130000000  0.5649170000000 1.0
C      1  0.4301830000000  0.5226300000000  0.5642300000000 1.0
C      1  0.5153110000000  0.4282250000000  0.5642340000000 1.0
C      1  0.5545040000000  0.5491500000000  0.5642300000000 1.0
C      1  0.6114100000000  0.5166880000000  0.5422560000000 1.0
C      1  0.4587460000000  0.3951740000000  0.5422590000000 1.0
C      1  0.4298440000000  0.5881420000000  0.5422530000000 1.0
C      1  0.3867480000000  0.5166200000000  0.5411110000000 1.0
C      1  0.5422340000000  0.3936130000000  0.5411160000000 1.0
C      1  0.5710170000000  0.5897710000000  0.5411100000000 1.0
END
