TITL C-3577083-591-311 -1.62263122414889e-06 125000 -469.28482613256 0 0 75 (C5) n - 1
REM
REM in /home/bkarasulu/work/CARBON/AIRSS/Generating-Clusters/EDIP-Nigel-Params/with-SteepDescent/Higher-Symm/SD-CG/HFTN-CG
REM
REM
REM
REM
REM
REM ./C.cell (12c818d87b63d06a65506943cc24bca4)
REM
REM compiler GCC version 9.2.1 20190827 (Red Hat 9.2.1-1)
REM options -cpp -mtune=generic -march=x86-64 -g -O0 -fpre-include=/usr/include/finclude/math-vector-fortran.h
REM seed 1830107127 2098050289 238723810 91866864 -1673912687 1112516103 1760493017 543830706 -75221091 27491113 1835476946 1348802623 -2129259675 1339527325 -1011548842 734438602 -547322099 1461074531 -893052530 -292924887 247553347 1297420451 795048152 1614762498 120363679 127411277 -919410095 1189155220 -1754505620 -186119653 -1185691384 1502651347 -1169938920
REM
CELL 1.54180   50.00000   50.00000   50.00000   90.00000   90.00000   90.00000
LATT -1
SFAC C  
C      1  0.5957860000000  0.4785730000000  0.5108740000000 1.0
C      1  0.5397580000000  0.4783450000000  0.4122350000000 1.0
C      1  0.4286350000000  0.4790440000000  0.4350370000000 1.0
C      1  0.4159850000000  0.4797030000000  0.5477680000000 1.0
C      1  0.5192890000000  0.4794120000000  0.5946380000000 1.0
C      1  0.4638550000000  0.5558990000000  0.5227640000000 1.0
C      1  0.5109600000000  0.5557520000000  0.5414840000000 1.0
C      1  0.5433180000000  0.5553790000000  0.5024700000000 1.0
C      1  0.5162120000000  0.5552940000000  0.4596380000000 1.0
C      1  0.4671010000000  0.5556160000000  0.4721810000000 1.0
C      1  0.4845330000000  0.5501300000000  0.4455970000000 1.0
C      1  0.4439130000000  0.5506170000000  0.4979630000000 1.0
C      1  0.4811660000000  0.5507120000000  0.5527780000000 1.0
C      1  0.5448080000000  0.5502830000000  0.5342900000000 1.0
C      1  0.5468900000000  0.5499240000000  0.4680480000000 1.0
C      1  0.4948150000000  0.4831250000000  0.5809360000000 1.0
C      1  0.5752230000000  0.4824380000000  0.5299210000000 1.0
C      1  0.5515510000000  0.4820760000000  0.4376830000000 1.0
C      1  0.4565130000000  0.4825390000000  0.4316910000000 1.0
C      1  0.4214480000000  0.4831870000000  0.5202260000000 1.0
C      1  0.5073320000000  0.4591060000000  0.5430090000000 1.0
C      1  0.5428160000000  0.4587270000000  0.5062650000000 1.0
C      1  0.5188340000000  0.4586150000000  0.4611620000000 1.0
C      1  0.4685290000000  0.4589240000000  0.4700310000000 1.0
C      1  0.4614200000000  0.4592270000000  0.5206150000000 1.0
C      1  0.4413730000000  0.4847800000000  0.5597520000000 1.0
C      1  0.5385760000000  0.4843500000000  0.5742030000000 1.0
C      1  0.5823540000000  0.4836590000000  0.4862230000000 1.0
C      1  0.5122080000000  0.4836620000000  0.4173980000000 1.0
C      1  0.4250770000000  0.4843550000000  0.4628410000000 1.0
C      1  0.5341900000000  0.5018430000000  0.4534240000000 1.0
C      1  0.4662870000000  0.5021950000000  0.4530930000000 1.0
C      1  0.4449910000000  0.5026450000000  0.5175690000000 1.0
C      1  0.4997320000000  0.5025710000000  0.5577490000000 1.0
C      1  0.5548590000000  0.5020760000000  0.5181050000000 1.0
C      1  0.4775890000000  0.4353650000000  0.5120600000000 1.0
C      1  0.5039870000000  0.4352950000000  0.5249560000000 1.0
C      1  0.5244090000000  0.4350780000000  0.5038350000000 1.0
C      1  0.5106320000000  0.4350130000000  0.4778860000000 1.0
C      1  0.4816960000000  0.4351900000000  0.4829690000000 1.0
C      1  0.5347060000000  0.5120550000000  0.5635410000000 1.0
C      1  0.5712570000000  0.5114600000000  0.4866450000000 1.0
C      1  0.5094190000000  0.5114740000000  0.4281190000000 1.0
C      1  0.4346500000000  0.5120770000000  0.4688430000000 1.0
C      1  0.4502780000000  0.5124360000000  0.5525390000000 1.0
C      1  0.5087200000000  0.5293620000000  0.4762930000000 1.0
C      1  0.4804010000000  0.5295530000000  0.4844190000000 1.0
C      1  0.4793800000000  0.5297130000000  0.5138630000000 1.0
C      1  0.5070670000000  0.5296220000000  0.5239340000000 1.0
C      1  0.5252000000000  0.5294050000000  0.5007140000000 1.0
C      1  0.4600180000000  0.4624910000000  0.5512210000000 1.0
C      1  0.5360340000000  0.4621090000000  0.5538040000000 1.0
C      1  0.5619780000000  0.4615970000000  0.4823080000000 1.0
C      1  0.5019980000000  0.4616640000000  0.4355370000000 1.0
C      1  0.4389830000000  0.4622160000000  0.4781280000000 1.0
C      1  0.5018600000000  0.4858120000000  0.5277630000000 1.0
C      1  0.5268550000000  0.4855720000000  0.5067920000000 1.0
C      1  0.5146350000000  0.4854760000000  0.4765390000000 1.0
C      1  0.4820870000000  0.4856580000000  0.4788120000000 1.0
C      1  0.4741910000000  0.4858660000000  0.5104700000000 1.0
C      1  0.5256680000000  0.5804040000000  0.5012100000000 1.0
C      1  0.5097740000000  0.5803540000000  0.4760680000000 1.0
C      1  0.4809520000000  0.5805430000000  0.4834140000000 1.0
C      1  0.4790330000000  0.5807090000000  0.5130960000000 1.0
C      1  0.5066690000000  0.5806230000000  0.5240940000000 1.0
C      1  0.4347710000000  0.5225580000000  0.4962400000000 1.0
C      1  0.4764600000000  0.5226820000000  0.5609040000000 1.0
C      1  0.5508410000000  0.5221910000000  0.5412390000000 1.0
C      1  0.5551220000000  0.5217640000000  0.4644210000000 1.0
C      1  0.4833860000000  0.5219920000000  0.4366100000000 1.0
C      1  0.4866330000000  0.4603760000000  0.5645570000000 1.0
C      1  0.5569230000000  0.4598410000000  0.5326110000000 1.0
C      1  0.5482590000000  0.4594830000000  0.4558890000000 1.0
C      1  0.4726150000000  0.4597950000000  0.4404180000000 1.0
C      1  0.4345280000000  0.4603470000000  0.5075790000000 1.0
END
