TITL C-3577082-504-777 2.58674013868675e-06 125000 -263.602346462677 0 0 45 (C1) n - 1
REM
REM in /home/bkarasulu/work/CARBON/AIRSS/Generating-Clusters/EDIP-Nigel-Params/with-SteepDescent/Higher-Symm/SD-CG/HFTN-CG
REM
REM
REM
REM
REM
REM ./C.cell (12c818d87b63d06a65506943cc24bca4)
REM
REM compiler GCC version 9.2.1 20190827 (Red Hat 9.2.1-1)
REM options -cpp -mtune=generic -march=x86-64 -g -O0 -fpre-include=/usr/include/finclude/math-vector-fortran.h
REM seed 430831332 1620440521 1370704961 -461126194 -373275189 -1392039370 1456608732 -1281822019 -1013684574 -2001283619 -191672666 1072178450 -149981703 -1102401493 960677664 912026516 1792312218 1808945765 1492541368 1760860695 -777863556 -1820279043 1666097701 1039900360 -1051425771 -1479837044 -670049529 664399799 -802833491 14214733 1181164088 1550324846 -866535562
REM
CELL 1.54180   50.00000   50.00000   50.00000   90.00000   90.00000   90.00000
LATT -1
SFAC C  
C      1  0.5212490000000  0.5185980000000  0.5126760000000 1.0
C      1  0.5000320000000  0.5174630000000  0.4770750000000 1.0
C      1  0.4801510000000  0.5175690000000  0.5131750000000 1.0
C      1  0.4484700000000  0.5138560000000  0.5142770000000 1.0
C      1  0.5397800000000  0.5173720000000  0.5390240000000 1.0
C      1  0.5154500000000  0.5178660000000  0.4466700000000 1.0
C      1  0.4487770000000  0.5185570000000  0.4662830000000 1.0
C      1  0.4975120000000  0.5250390000000  0.5637120000000 1.0
C      1  0.5552930000000  0.5192410000000  0.4727520000000 1.0
C      1  0.5584680000000  0.4856920000000  0.5142430000000 1.0
C      1  0.4819430000000  0.4912090000000  0.4359190000000 1.0
C      1  0.4599430000000  0.4877540000000  0.5481690000000 1.0
C      1  0.5096660000000  0.4612820000000  0.5613740000000 1.0
C      1  0.5272750000000  0.4570170000000  0.4660360000000 1.0
C      1  0.4573070000000  0.4535150000000  0.4820340000000 1.0
C      1  0.4520490000000  0.5452490000000  0.4743590000000 1.0
C      1  0.5012570000000  0.5513020000000  0.5548360000000 1.0
C      1  0.5467110000000  0.5460780000000  0.4725070000000 1.0
C      1  0.5121510000000  0.4410870000000  0.4495500000000 1.0
C      1  0.4648270000000  0.4417930000000  0.5058930000000 1.0
C      1  0.5233080000000  0.4438890000000  0.5445680000000 1.0
C      1  0.4631630000000  0.4602430000000  0.5398430000000 1.0
C      1  0.5492860000000  0.4587960000000  0.5201340000000 1.0
C      1  0.4873020000000  0.4635160000000  0.4303760000000 1.0
C      1  0.5637040000000  0.5022310000000  0.5362620000000 1.0
C      1  0.4999810000000  0.5092190000000  0.4245650000000 1.0
C      1  0.4380360000000  0.5014960000000  0.5375930000000 1.0
C      1  0.4844080000000  0.4420270000000  0.4476890000000 1.0
C      1  0.4853150000000  0.4516240000000  0.5232650000000 1.0
C      1  0.5225310000000  0.4482720000000  0.5161400000000 1.0
C      1  0.5397800000000  0.5030010000000  0.4514450000000 1.0
C      1  0.4401750000000  0.5003170000000  0.4898680000000 1.0
C      1  0.5235210000000  0.5085920000000  0.5617750000000 1.0
C      1  0.5241790000000  0.5492870000000  0.5126820000000 1.0
C      1  0.4986000000000  0.5485100000000  0.4733040000000 1.0
C      1  0.4768810000000  0.5479880000000  0.5148890000000 1.0
C      1  0.5007540000000  0.5600210000000  0.5281390000000 1.0
C      1  0.5245530000000  0.5587410000000  0.4846290000000 1.0
C      1  0.4738150000000  0.5579430000000  0.4869170000000 1.0
C      1  0.5098100000000  0.4858410000000  0.5473140000000 1.0
C      1  0.5283590000000  0.4840740000000  0.4723780000000 1.0
C      1  0.4630040000000  0.4807290000000  0.4843130000000 1.0
C      1  0.4843530000000  0.5036670000000  0.5419520000000 1.0
C      1  0.5410960000000  0.5012640000000  0.4955300000000 1.0
C      1  0.4757790000000  0.5011740000000  0.4638660000000 1.0
END
