TITL C-3577089-586-455 6.64190055380566e-07 125000 -464.328214576414 0 0 78 (C1) n - 1
REM
REM in /home/bkarasulu/work/CARBON/AIRSS/Generating-Clusters/EDIP-Nigel-Params/with-SteepDescent/Higher-Symm/SD-CG/HFTN-CG
REM
REM
REM
REM
REM
REM ./C.cell (12c818d87b63d06a65506943cc24bca4)
REM
REM compiler GCC version 9.2.1 20190827 (Red Hat 9.2.1-1)
REM options -cpp -mtune=generic -march=x86-64 -g -O0 -fpre-include=/usr/include/finclude/math-vector-fortran.h
REM seed 1684120248 1443266767 -8249974 649191337 -64609684 -1857091426 -1640438964 -1678726115 -1051264180 -2108280159 1370369641 336277308 -2009693776 -2144967048 -960515555 -1442710979 -716512864 -924001694 68174899 952152192 317785390 399671900 1793388562 -232833211 2009036067 -1925940662 -1298142470 107171652 1757668935 1211439164 1993784080 -124943572 1121549554
REM
CELL 1.54180   50.00000   50.00000   50.00000   90.00000   90.00000   90.00000
LATT -1
SFAC C  
C      1  0.4652400000000  0.4514650000000  0.5623520000000 1.0
C      1  0.5353330000000  0.4711800000000  0.4238180000000 1.0
C      1  0.4688220000000  0.5467870000000  0.4386940000000 1.0
C      1  0.5300030000000  0.5282920000000  0.5627730000000 1.0
C      1  0.5627900000000  0.4514990000000  0.4701060000000 1.0
C      1  0.4253780000000  0.4717940000000  0.5387570000000 1.0
C      1  0.4343830000000  0.5259760000000  0.4685630000000 1.0
C      1  0.5590730000000  0.5461720000000  0.5254280000000 1.0
C      1  0.5832130000000  0.4932340000000  0.5140800000000 1.0
C      1  0.4173680000000  0.4909890000000  0.4887590000000 1.0
C      1  0.5804070000000  0.5006990000000  0.4860710000000 1.0
C      1  0.4167430000000  0.5085590000000  0.5106670000000 1.0
C      1  0.5105410000000  0.4939950000000  0.5827200000000 1.0
C      1  0.4863390000000  0.4925100000000  0.4180370000000 1.0
C      1  0.4863670000000  0.5078930000000  0.5799340000000 1.0
C      1  0.5096050000000  0.5082590000000  0.4168410000000 1.0
C      1  0.4694260000000  0.5708390000000  0.4914900000000 1.0
C      1  0.5375670000000  0.5792200000000  0.5057420000000 1.0
C      1  0.4737550000000  0.4214980000000  0.5070100000000 1.0
C      1  0.5347600000000  0.4200980000000  0.4947920000000 1.0
C      1  0.4965180000000  0.5746270000000  0.4838920000000 1.0
C      1  0.5044950000000  0.5767790000000  0.5310550000000 1.0
C      1  0.5078460000000  0.4213650000000  0.4672120000000 1.0
C      1  0.4943110000000  0.4215260000000  0.5269940000000 1.0
C      1  0.4529790000000  0.4720930000000  0.5762250000000 1.0
C      1  0.5573210000000  0.4850200000000  0.4347530000000 1.0
C      1  0.4525710000000  0.5281890000000  0.4258610000000 1.0
C      1  0.5548820000000  0.5151410000000  0.5609620000000 1.0
C      1  0.5728120000000  0.4689950000000  0.4516760000000 1.0
C      1  0.4345220000000  0.4870090000000  0.5606300000000 1.0
C      1  0.4360370000000  0.5129990000000  0.4435630000000 1.0
C      1  0.5721400000000  0.5287040000000  0.5427490000000 1.0
C      1  0.5163940000000  0.4701590000000  0.4439100000000 1.0
C      1  0.4864050000000  0.4709920000000  0.5563720000000 1.0
C      1  0.5078140000000  0.5278790000000  0.5464980000000 1.0
C      1  0.4841390000000  0.5247620000000  0.4481370000000 1.0
C      1  0.4431950000000  0.4699290000000  0.5178590000000 1.0
C      1  0.5560740000000  0.4719140000000  0.4898110000000 1.0
C      1  0.5515930000000  0.5231790000000  0.5103460000000 1.0
C      1  0.4516770000000  0.5265940000000  0.4900980000000 1.0
C      1  0.5402430000000  0.4334870000000  0.5194400000000 1.0
C      1  0.4659410000000  0.4358750000000  0.4833020000000 1.0
C      1  0.5426600000000  0.5664840000000  0.4808740000000 1.0
C      1  0.4597640000000  0.5659060000000  0.5175040000000 1.0
C      1  0.5165770000000  0.4383630000000  0.5344410000000 1.0
C      1  0.4826460000000  0.4329990000000  0.4606610000000 1.0
C      1  0.4790060000000  0.5669750000000  0.5385910000000 1.0
C      1  0.5177640000000  0.5607950000000  0.4682350000000 1.0
C      1  0.4660790000000  0.5250930000000  0.5687080000000 1.0
C      1  0.5284470000000  0.5247230000000  0.4313400000000 1.0
C      1  0.4674500000000  0.4747990000000  0.4308760000000 1.0
C      1  0.5284170000000  0.4760720000000  0.5685150000000 1.0
C      1  0.5665600000000  0.5208450000000  0.4687090000000 1.0
C      1  0.4286310000000  0.5255240000000  0.5307970000000 1.0
C      1  0.4314620000000  0.4734730000000  0.4706380000000 1.0
C      1  0.5682790000000  0.4761390000000  0.5320880000000 1.0
C      1  0.5106560000000  0.4852390000000  0.4675810000000 1.0
C      1  0.4875330000000  0.4854920000000  0.5300170000000 1.0
C      1  0.5019130000000  0.5115750000000  0.5230500000000 1.0
C      1  0.4886560000000  0.5049770000000  0.4694120000000 1.0
C      1  0.4673830000000  0.4830290000000  0.5101520000000 1.0
C      1  0.5281800000000  0.4835440000000  0.4906640000000 1.0
C      1  0.5270610000000  0.5070370000000  0.5080600000000 1.0
C      1  0.4747280000000  0.5095150000000  0.4952150000000 1.0
C      1  0.4413070000000  0.4486100000000  0.4792710000000 1.0
C      1  0.5629370000000  0.4496060000000  0.5239620000000 1.0
C      1  0.4366170000000  0.5512980000000  0.5232230000000 1.0
C      1  0.5632720000000  0.5477240000000  0.4771190000000 1.0
C      1  0.4771800000000  0.4496010000000  0.4387770000000 1.0
C      1  0.5183080000000  0.4500140000000  0.5607270000000 1.0
C      1  0.5192100000000  0.5488560000000  0.4427830000000 1.0
C      1  0.4735580000000  0.5511940000000  0.5611770000000 1.0
C      1  0.4451670000000  0.4856830000000  0.4477010000000 1.0
C      1  0.5511450000000  0.4873940000000  0.5537100000000 1.0
C      1  0.4438320000000  0.5133270000000  0.5530140000000 1.0
C      1  0.5515030000000  0.5116610000000  0.4446770000000 1.0
C      1  0.5079350000000  0.4082790000000  0.4934560000000 1.0
C      1  0.5111560000000  0.5863260000000  0.5062970000000 1.0
END
