TITL C-3578207-9274-773 -4.20289764470081e-07 125000 -379.197922472363 0 0 62 (C1) n - 1
REM
REM in /home/bkarasulu/work/CARBON/AIRSS/Generating-Clusters/EDIP-Nigel-Params/with-SteepDescent/Higher-Symm/SD-CG/HFTN-CG
REM
REM
REM
REM
REM
REM ./C.cell (12c818d87b63d06a65506943cc24bca4)
REM
REM compiler GCC version 9.2.1 20190827 (Red Hat 9.2.1-1)
REM options -cpp -mtune=generic -march=x86-64 -g -O0 -fpre-include=/usr/include/finclude/math-vector-fortran.h
REM seed -602794029 476186038 -965144608 -276537488 1439410142 23397763 -2020580041 1360490004 1329558337 1628476255 1815121437 503357415 -1076401458 -657736258 2110276614 1688412430 -205384341 1676975219 422864610 -232279029 -1655169971 -1604555230 1028260686 -2067152661 -801367211 -883978797 289854761 1241350272 653568027 -199272879 2106821270 -1129553183 -1664132689
REM
CELL 1.54180   50.00000   50.00000   50.00000   90.00000   90.00000   90.00000
LATT -1
SFAC C  
C      1  0.5013280000000  0.5192370000000  0.4902450000000 1.0
C      1  0.4480230000000  0.5368670000000  0.4415180000000 1.0
C      1  0.5093710000000  0.5421490000000  0.4705980000000 1.0
C      1  0.4968670000000  0.4224920000000  0.5305450000000 1.0
C      1  0.4400250000000  0.4753170000000  0.5347970000000 1.0
C      1  0.5217770000000  0.4393000000000  0.5523460000000 1.0
C      1  0.4374370000000  0.4820460000000  0.4909890000000 1.0
C      1  0.5461450000000  0.4443570000000  0.5360610000000 1.0
C      1  0.5495200000000  0.4742250000000  0.5310060000000 1.0
C      1  0.5019580000000  0.5232050000000  0.4316240000000 1.0
C      1  0.4518210000000  0.5091800000000  0.4490440000000 1.0
C      1  0.5270290000000  0.5110930000000  0.5581070000000 1.0
C      1  0.4780030000000  0.5196630000000  0.5695980000000 1.0
C      1  0.4781740000000  0.5556570000000  0.5178760000000 1.0
C      1  0.5481060000000  0.5272490000000  0.5071870000000 1.0
C      1  0.5232240000000  0.4838500000000  0.5189830000000 1.0
C      1  0.5430850000000  0.4311700000000  0.5088680000000 1.0
C      1  0.5348390000000  0.5585900000000  0.4762260000000 1.0
C      1  0.5161510000000  0.4715760000000  0.4500200000000 1.0
C      1  0.4838350000000  0.5069670000000  0.4163830000000 1.0
C      1  0.4505880000000  0.5441190000000  0.5131660000000 1.0
C      1  0.5692850000000  0.5124660000000  0.5234520000000 1.0
C      1  0.5565070000000  0.5051470000000  0.5501340000000 1.0
C      1  0.5565760000000  0.5189900000000  0.4605440000000 1.0
C      1  0.5044090000000  0.5331450000000  0.5690040000000 1.0
C      1  0.4795020000000  0.5007930000000  0.4756830000000 1.0
C      1  0.5448100000000  0.4944550000000  0.4737780000000 1.0
C      1  0.4918110000000  0.5288610000000  0.5183020000000 1.0
C      1  0.4947240000000  0.5511110000000  0.4364180000000 1.0
C      1  0.5130220000000  0.5375920000000  0.5380430000000 1.0
C      1  0.4580370000000  0.4535060000000  0.5464290000000 1.0
C      1  0.5362820000000  0.4875350000000  0.4374460000000 1.0
C      1  0.5009180000000  0.4412200000000  0.4866860000000 1.0
C      1  0.4557670000000  0.5343980000000  0.5600990000000 1.0
C      1  0.4553990000000  0.5497480000000  0.4652020000000 1.0
C      1  0.4802760000000  0.4951950000000  0.5519600000000 1.0
C      1  0.4934750000000  0.5713750000000  0.4979550000000 1.0
C      1  0.4779330000000  0.4544670000000  0.4999090000000 1.0
C      1  0.5656440000000  0.4751060000000  0.4847780000000 1.0
C      1  0.4236900000000  0.4696870000000  0.5122870000000 1.0
C      1  0.5300990000000  0.5155010000000  0.4339840000000 1.0
C      1  0.4823920000000  0.5624760000000  0.4631470000000 1.0
C      1  0.4664100000000  0.4827450000000  0.4969900000000 1.0
C      1  0.5347800000000  0.5499750000000  0.5222580000000 1.0
C      1  0.4596990000000  0.4974520000000  0.5291030000000 1.0
C      1  0.5733310000000  0.4823660000000  0.5129260000000 1.0
C      1  0.4772860000000  0.4671610000000  0.5662610000000 1.0
C      1  0.4901590000000  0.4853590000000  0.4501520000000 1.0
C      1  0.5217490000000  0.4566220000000  0.4738530000000 1.0
C      1  0.5104380000000  0.4891580000000  0.5460880000000 1.0
C      1  0.5277800000000  0.5051560000000  0.4978960000000 1.0
C      1  0.5238330000000  0.5698350000000  0.5017450000000 1.0
C      1  0.5136110000000  0.4221250000000  0.5059110000000 1.0
C      1  0.4684170000000  0.4700450000000  0.4361040000000 1.0
C      1  0.5096020000000  0.4635040000000  0.5636760000000 1.0
C      1  0.5570930000000  0.5396010000000  0.4809780000000 1.0
C      1  0.4461150000000  0.5245150000000  0.5351050000000 1.0
C      1  0.4313490000000  0.5089500000000  0.4815650000000 1.0
C      1  0.5486040000000  0.4495060000000  0.4836860000000 1.0
C      1  0.4734010000000  0.4394250000000  0.5244950000000 1.0
C      1  0.4586410000000  0.4940220000000  0.4237480000000 1.0
C      1  0.4498370000000  0.5313990000000  0.4870310000000 1.0
END
