TITL C-3577089-586-700 -1.44929464113122e-06 125000 -807.498350111627 0 0 129 (C1) n - 1
REM
REM in /home/bkarasulu/work/CARBON/AIRSS/Generating-Clusters/EDIP-Nigel-Params/with-SteepDescent/Higher-Symm/SD-CG/HFTN-CG
REM
REM
REM
REM
REM
REM ./C.cell (12c818d87b63d06a65506943cc24bca4)
REM
REM compiler GCC version 9.2.1 20190827 (Red Hat 9.2.1-1)
REM options -cpp -mtune=generic -march=x86-64 -g -O0 -fpre-include=/usr/include/finclude/math-vector-fortran.h
REM seed 627057644 -467874047 1180662786 384028458 -1774866990 -1818718494 -321513623 -1664515601 2138377010 364382746 -284009104 2052364044 -1869288668 872858076 -844776284 -238027986 2057111281 1562932794 1529153455 1378261435 -1134087363 -1652826038 1990128715 1387272451 -1174215866 -3726567 930568162 -1658538009 -1195045668 952252239 -1389089862 -56452756 -322108332
REM
CELL 1.54180   50.00000   50.00000   50.00000   90.00000   90.00000   90.00000
LATT -1
SFAC C  
C      1  0.4771300000000  0.5279700000000  0.5792070000000 1.0
C      1  0.4674410000000  0.5020740000000  0.5744260000000 1.0
C      1  0.4854970000000  0.4803490000000  0.5817430000000 1.0
C      1  0.5020160000000  0.4712200000000  0.5589340000000 1.0
C      1  0.5256570000000  0.4874200000000  0.5566480000000 1.0
C      1  0.5215740000000  0.5097190000000  0.5767780000000 1.0
C      1  0.5035200000000  0.5330550000000  0.5671460000000 1.0
C      1  0.5458650000000  0.4708560000000  0.5683600000000 1.0
C      1  0.5484790000000  0.5197860000000  0.5803140000000 1.0
C      1  0.5140240000000  0.5573650000000  0.5784420000000 1.0
C      1  0.4577040000000  0.5477380000000  0.5775890000000 1.0
C      1  0.4401460000000  0.4993090000000  0.5749990000000 1.0
C      1  0.4680590000000  0.4557440000000  0.5825440000000 1.0
C      1  0.5095760000000  0.4449850000000  0.5646690000000 1.0
C      1  0.6100970000000  0.4814470000000  0.4984270000000 1.0
C      1  0.5832080000000  0.5754300000000  0.5052940000000 1.0
C      1  0.4962740000000  0.6115680000000  0.4994660000000 1.0
C      1  0.4123450000000  0.5645580000000  0.4962550000000 1.0
C      1  0.3879700000000  0.4650860000000  0.5004040000000 1.0
C      1  0.4598440000000  0.3978840000000  0.4992200000000 1.0
C      1  0.5644120000000  0.4000150000000  0.4998480000000 1.0
C      1  0.4992510000000  0.4006240000000  0.4796490000000 1.0
C      1  0.5782320000000  0.4357040000000  0.4778980000000 1.0
C      1  0.5982720000000  0.5203130000000  0.4814820000000 1.0
C      1  0.5520910000000  0.5904670000000  0.4778480000000 1.0
C      1  0.4629520000000  0.5931260000000  0.4772420000000 1.0
C      1  0.4025120000000  0.5252660000000  0.4789160000000 1.0
C      1  0.4181150000000  0.4377560000000  0.4834270000000 1.0
C      1  0.5513040000000  0.5285860000000  0.4174700000000 1.0
C      1  0.5075840000000  0.5590980000000  0.4151450000000 1.0
C      1  0.4584710000000  0.5438450000000  0.4129330000000 1.0
C      1  0.4384600000000  0.4950700000000  0.4194840000000 1.0
C      1  0.4637700000000  0.4503300000000  0.4169280000000 1.0
C      1  0.5153590000000  0.4412990000000  0.4173690000000 1.0
C      1  0.5539960000000  0.4767940000000  0.4180240000000 1.0
C      1  0.5653960000000  0.5483230000000  0.4621360000000 1.0
C      1  0.5076930000000  0.5879050000000  0.4584120000000 1.0
C      1  0.4435230000000  0.5489820000000  0.4614890000000 1.0
C      1  0.4164760000000  0.4809690000000  0.4641150000000 1.0
C      1  0.4644190000000  0.4333890000000  0.4652660000000 1.0
C      1  0.5362100000000  0.4248120000000  0.4606810000000 1.0
C      1  0.5744310000000  0.4826020000000  0.4650540000000 1.0
C      1  0.4607460000000  0.5618060000000  0.4824070000000 1.0
C      1  0.4179140000000  0.4998240000000  0.4869810000000 1.0
C      1  0.4483930000000  0.4444350000000  0.4878210000000 1.0
C      1  0.5213310000000  0.4218800000000  0.4860050000000 1.0
C      1  0.5665700000000  0.4641090000000  0.4868800000000 1.0
C      1  0.5685030000000  0.5310570000000  0.4860400000000 1.0
C      1  0.5238870000000  0.5767760000000  0.4806740000000 1.0
C      1  0.5842890000000  0.5124630000000  0.5450900000000 1.0
C      1  0.5436130000000  0.5744430000000  0.5446680000000 1.0
C      1  0.4695400000000  0.5772360000000  0.5410740000000 1.0
C      1  0.4135430000000  0.5240440000000  0.5418370000000 1.0
C      1  0.4326340000000  0.4501630000000  0.5456180000000 1.0
C      1  0.4985030000000  0.4084390000000  0.5412730000000 1.0
C      1  0.5679340000000  0.4383180000000  0.5417910000000 1.0
C      1  0.3890060000000  0.5354710000000  0.5024700000000 1.0
C      1  0.4056110000000  0.4326950000000  0.5090770000000 1.0
C      1  0.4943230000000  0.3827370000000  0.5020080000000 1.0
C      1  0.5878610000000  0.4196810000000  0.5007460000000 1.0
C      1  0.6136420000000  0.5179320000000  0.5061980000000 1.0
C      1  0.5623910000000  0.5971410000000  0.5047970000000 1.0
C      1  0.4597600000000  0.6067980000000  0.5034580000000 1.0
C      1  0.4003290000000  0.4588830000000  0.4736090000000 1.0
C      1  0.4709300000000  0.4060210000000  0.4725440000000 1.0
C      1  0.5619220000000  0.4153520000000  0.4652760000000 1.0
C      1  0.6005910000000  0.4927210000000  0.4722220000000 1.0
C      1  0.5743730000000  0.5740610000000  0.4690470000000 1.0
C      1  0.4889850000000  0.6062610000000  0.4703630000000 1.0
C      1  0.4155730000000  0.5504970000000  0.4702420000000 1.0
C      1  0.5151950000000  0.4496980000000  0.4955850000000 1.0
C      1  0.5357090000000  0.4725400000000  0.4967910000000 1.0
C      1  0.5343730000000  0.5263820000000  0.4925460000000 1.0
C      1  0.5160120000000  0.5476780000000  0.4814710000000 1.0
C      1  0.4873060000000  0.5443630000000  0.4883020000000 1.0
C      1  0.4462040000000  0.5004900000000  0.4950710000000 1.0
C      1  0.4578900000000  0.4738660000000  0.4947440000000 1.0
C      1  0.5373290000000  0.4090430000000  0.5101720000000 1.0
C      1  0.5860330000000  0.4694260000000  0.5107820000000 1.0
C      1  0.5753130000000  0.5474950000000  0.5130590000000 1.0
C      1  0.5132040000000  0.5882450000000  0.5080610000000 1.0
C      1  0.4396620000000  0.5624450000000  0.5073060000000 1.0
C      1  0.4036040000000  0.4876750000000  0.5122690000000 1.0
C      1  0.4541060000000  0.4242430000000  0.5119200000000 1.0
C      1  0.5533360000000  0.5461620000000  0.5356940000000 1.0
C      1  0.4985890000000  0.5701020000000  0.5325250000000 1.0
C      1  0.4400730000000  0.5390900000000  0.5283520000000 1.0
C      1  0.4215090000000  0.4769280000000  0.5360070000000 1.0
C      1  0.4772940000000  0.4316510000000  0.5317110000000 1.0
C      1  0.5415200000000  0.4280430000000  0.5331160000000 1.0
C      1  0.5743600000000  0.4861720000000  0.5338410000000 1.0
C      1  0.5974370000000  0.5312960000000  0.5258980000000 1.0
C      1  0.5391490000000  0.5945160000000  0.5232010000000 1.0
C      1  0.4492660000000  0.5870680000000  0.5218260000000 1.0
C      1  0.3922360000000  0.5151160000000  0.5230040000000 1.0
C      1  0.4279780000000  0.4276050000000  0.5269420000000 1.0
C      1  0.5135520000000  0.3911810000000  0.5217730000000 1.0
C      1  0.5894320000000  0.4409740000000  0.5217650000000 1.0
C      1  0.5681830000000  0.4653980000000  0.5535230000000 1.0
C      1  0.5646170000000  0.5300260000000  0.5592260000000 1.0
C      1  0.5168370000000  0.5743260000000  0.5563860000000 1.0
C      1  0.4555620000000  0.5534310000000  0.5502680000000 1.0
C      1  0.4209190000000  0.4986620000000  0.5551470000000 1.0
C      1  0.4608670000000  0.4465910000000  0.5557590000000 1.0
C      1  0.5208440000000  0.4228990000000  0.5529670000000 1.0
C      1  0.4856480000000  0.5251570000000  0.5110360000000 1.0
C      1  0.4570960000000  0.5185250000000  0.5155080000000 1.0
C      1  0.4814780000000  0.4761840000000  0.5107260000000 1.0
C      1  0.4939790000000  0.4513310000000  0.5151790000000 1.0
C      1  0.5320070000000  0.4961730000000  0.5277010000000 1.0
C      1  0.5310410000000  0.5282940000000  0.5236430000000 1.0
C      1  0.5027270000000  0.5384040000000  0.5333870000000 1.0
C      1  0.5672460000000  0.5391920000000  0.4360660000000 1.0
C      1  0.5065970000000  0.5799720000000  0.4317340000000 1.0
C      1  0.4482480000000  0.5546690000000  0.4349830000000 1.0
C      1  0.4197890000000  0.4877310000000  0.4372440000000 1.0
C      1  0.4564790000000  0.4378560000000  0.4392840000000 1.0
C      1  0.5249880000000  0.4240920000000  0.4353900000000 1.0
C      1  0.5705490000000  0.4749840000000  0.4388030000000 1.0
C      1  0.5076730000000  0.4676640000000  0.4140820000000 1.0
C      1  0.5287900000000  0.4869070000000  0.4132570000000 1.0
C      1  0.5273220000000  0.5154690000000  0.4133940000000 1.0
C      1  0.5039170000000  0.5318040000000  0.4126580000000 1.0
C      1  0.4766710000000  0.5232610000000  0.4103020000000 1.0
C      1  0.4657650000000  0.4971970000000  0.4149370000000 1.0
C      1  0.4795720000000  0.4724300000000  0.4121250000000 1.0
C      1  0.5069660000000  0.4945740000000  0.5986470000000 1.0
C      1  0.5007170000000  0.4986130000000  0.5067100000000 1.0
C      1  0.5234500000000  0.4984790000000  0.4849340000000 1.0
END
