TITL C-3578207-9274-301 -1.34296700433559e-06 125000 -974.510031352235 0 0 153 (C1) n - 1
REM
REM in /home/bkarasulu/work/CARBON/AIRSS/Generating-Clusters/EDIP-Nigel-Params/with-SteepDescent/Higher-Symm/SD-CG/HFTN-CG
REM
REM
REM
REM
REM
REM ./C.cell (12c818d87b63d06a65506943cc24bca4)
REM
REM compiler GCC version 9.2.1 20190827 (Red Hat 9.2.1-1)
REM options -cpp -mtune=generic -march=x86-64 -g -O0 -fpre-include=/usr/include/finclude/math-vector-fortran.h
REM seed 958167437 -1134581415 -1030735397 110835628 -1603921319 984028986 -1383238939 485647742 -1582381545 -481302733 -695357743 1261201681 1456406256 -610887237 844139588 -750532871 1823619347 -767348412 1070288875 875070287 -1115768922 1026500237 264698640 -330640544 -917395086 1151294524 1196855550 1697749759 -1009726531 -1150451862 383955872 -1809463694 1361504165
REM
CELL 1.54180   50.00000   50.00000   50.00000   90.00000   90.00000   90.00000
LATT -1
SFAC C  
C      1  0.5050140000000  0.4332030000000  0.4850450000000 1.0
C      1  0.5052580000000  0.5472970000000  0.4487360000000 1.0
C      1  0.5059900000000  0.5218340000000  0.5670880000000 1.0
C      1  0.5050190000000  0.4331890000000  0.5148850000000 1.0
C      1  0.5054290000000  0.5470690000000  0.5520750000000 1.0
C      1  0.5064920000000  0.5220740000000  0.4333970000000 1.0
C      1  0.4871440000000  0.4818850000000  0.6017560000000 1.0
C      1  0.4843590000000  0.4208050000000  0.4332930000000 1.0
C      1  0.4841500000000  0.5977350000000  0.4646780000000 1.0
C      1  0.4874150000000  0.4819380000000  0.3983080000000 1.0
C      1  0.4843820000000  0.4207660000000  0.5667580000000 1.0
C      1  0.4874360000000  0.5977530000000  0.5354660000000 1.0
C      1  0.5433070000000  0.5673110000000  0.5693470000000 1.0
C      1  0.5440980000000  0.4056700000000  0.5235800000000 1.0
C      1  0.5427860000000  0.5260270000000  0.4079630000000 1.0
C      1  0.5439270000000  0.5677920000000  0.4301300000000 1.0
C      1  0.5439860000000  0.4057150000000  0.4762670000000 1.0
C      1  0.5425020000000  0.5258630000000  0.5920980000000 1.0
C      1  0.4187520000000  0.4997790000000  0.5289060000000 1.0
C      1  0.4183840000000  0.4747930000000  0.4856210000000 1.0
C      1  0.4186440000000  0.5246340000000  0.4855730000000 1.0
C      1  0.4186830000000  0.4995880000000  0.4711490000000 1.0
C      1  0.4183410000000  0.4748830000000  0.5145340000000 1.0
C      1  0.4187320000000  0.5248000000000  0.5143530000000 1.0
C      1  0.5119870000000  0.4524840000000  0.4452230000000 1.0
C      1  0.5120820000000  0.5715110000000  0.4856460000000 1.0
C      1  0.5151100000000  0.4785560000000  0.5680250000000 1.0
C      1  0.5120340000000  0.4523640000000  0.5547380000000 1.0
C      1  0.5140060000000  0.5695420000000  0.5148490000000 1.0
C      1  0.5153350000000  0.4787210000000  0.4320630000000 1.0
C      1  0.5407750000000  0.5257340000000  0.4848500000000 1.0
C      1  0.5311290000000  0.4995040000000  0.5268360000000 1.0
C      1  0.5410820000000  0.4738600000000  0.4846380000000 1.0
C      1  0.5373530000000  0.5249560000000  0.5145390000000 1.0
C      1  0.5317980000000  0.5000550000000  0.4730300000000 1.0
C      1  0.5409340000000  0.4737310000000  0.5150550000000 1.0
C      1  0.4511540000000  0.5184970000000  0.5894340000000 1.0
C      1  0.4512070000000  0.4135370000000  0.4725120000000 1.0
C      1  0.4509010000000  0.5671040000000  0.4385930000000 1.0
C      1  0.4516120000000  0.5184170000000  0.4110130000000 1.0
C      1  0.4512210000000  0.4136220000000  0.5275880000000 1.0
C      1  0.4513130000000  0.5677130000000  0.5609180000000 1.0
C      1  0.4855540000000  0.5013670000000  0.5570030000000 1.0
C      1  0.4843840000000  0.4513880000000  0.4726960000000 1.0
C      1  0.4843800000000  0.5485800000000  0.4706770000000 1.0
C      1  0.4859490000000  0.5016090000000  0.4433060000000 1.0
C      1  0.4843980000000  0.4513300000000  0.5273050000000 1.0
C      1  0.4843530000000  0.5489600000000  0.5297800000000 1.0
C      1  0.4993070000000  0.5298540000000  0.4031520000000 1.0
C      1  0.4994690000000  0.5688190000000  0.5740300000000 1.0
C      1  0.4999810000000  0.4030910000000  0.5225080000000 1.0
C      1  0.4990120000000  0.5298190000000  0.5972050000000 1.0
C      1  0.4997990000000  0.5687760000000  0.4266020000000 1.0
C      1  0.4999070000000  0.4030760000000  0.4774580000000 1.0
C      1  0.5339560000000  0.4748900000000  0.4073930000000 1.0
C      1  0.5341940000000  0.5917680000000  0.5241860000000 1.0
C      1  0.5367270000000  0.4339570000000  0.5638550000000 1.0
C      1  0.5337910000000  0.4748120000000  0.5926470000000 1.0
C      1  0.5370770000000  0.5885370000000  0.4747770000000 1.0
C      1  0.5365410000000  0.4339040000000  0.4359650000000 1.0
C      1  0.5033310000000  0.5046250000000  0.3880080000000 1.0
C      1  0.5035890000000  0.5947760000000  0.5600830000000 1.0
C      1  0.5031760000000  0.4020230000000  0.5522090000000 1.0
C      1  0.5030440000000  0.5045070000000  0.6122030000000 1.0
C      1  0.5030420000000  0.5947520000000  0.4411330000000 1.0
C      1  0.5030620000000  0.4019780000000  0.4477530000000 1.0
C      1  0.4589580000000  0.4877740000000  0.4070190000000 1.0
C      1  0.4596210000000  0.5855380000000  0.5357500000000 1.0
C      1  0.4567830000000  0.4244800000000  0.5561860000000 1.0
C      1  0.4585040000000  0.4877060000000  0.5934820000000 1.0
C      1  0.4566740000000  0.5862350000000  0.4625930000000 1.0
C      1  0.4567600000000  0.4243620000000  0.4438880000000 1.0
C      1  0.5798430000000  0.5252240000000  0.4846410000000 1.0
C      1  0.5823850000000  0.5001690000000  0.5311260000000 1.0
C      1  0.5805070000000  0.4740470000000  0.4837730000000 1.0
C      1  0.5816850000000  0.5257290000000  0.5153990000000 1.0
C      1  0.5832840000000  0.4996050000000  0.4682120000000 1.0
C      1  0.5804730000000  0.4742660000000  0.5156830000000 1.0
C      1  0.5645520000000  0.5501870000000  0.4419290000000 1.0
C      1  0.5646150000000  0.5252840000000  0.5732350000000 1.0
C      1  0.5646730000000  0.4248550000000  0.4852480000000 1.0
C      1  0.5649900000000  0.5506600000000  0.5586410000000 1.0
C      1  0.5650040000000  0.5251900000000  0.4268030000000 1.0
C      1  0.5647690000000  0.4248750000000  0.5145100000000 1.0
C      1  0.4200990000000  0.4209820000000  0.4850940000000 1.0
C      1  0.4198840000000  0.5515250000000  0.4390240000000 1.0
C      1  0.4200960000000  0.5260240000000  0.5754590000000 1.0
C      1  0.4201120000000  0.4210090000000  0.5151090000000 1.0
C      1  0.4197510000000  0.5520830000000  0.5603820000000 1.0
C      1  0.4204680000000  0.5254140000000  0.4241530000000 1.0
C      1  0.5621170000000  0.4491670000000  0.5583390000000 1.0
C      1  0.5603000000000  0.4739010000000  0.4259230000000 1.0
C      1  0.5608610000000  0.5764910000000  0.5143520000000 1.0
C      1  0.5620370000000  0.4489540000000  0.4413420000000 1.0
C      1  0.5601830000000  0.4741130000000  0.5738140000000 1.0
C      1  0.5624620000000  0.5754700000000  0.4849810000000 1.0
C      1  0.4589910000000  0.5424590000000  0.4560200000000 1.0
C      1  0.4595260000000  0.5160700000000  0.5595070000000 1.0
C      1  0.4588300000000  0.4412520000000  0.4848440000000 1.0
C      1  0.4590390000000  0.5422680000000  0.5445490000000 1.0
C      1  0.4596460000000  0.5160590000000  0.4411240000000 1.0
C      1  0.4588190000000  0.4412990000000  0.5152020000000 1.0
C      1  0.4707120000000  0.5399570000000  0.5988940000000 1.0
C      1  0.4718610000000  0.3951860000000  0.4854140000000 1.0
C      1  0.4714570000000  0.5652280000000  0.4162000000000 1.0
C      1  0.4710810000000  0.5398800000000  0.4013050000000 1.0
C      1  0.4718820000000  0.3952280000000  0.5146720000000 1.0
C      1  0.4710660000000  0.5653900000000  0.5839420000000 1.0
C      1  0.4413340000000  0.5718590000000  0.4845610000000 1.0
C      1  0.4419990000000  0.4766090000000  0.5701220000000 1.0
C      1  0.4410880000000  0.4503530000000  0.4449880000000 1.0
C      1  0.4421790000000  0.5719210000000  0.5146260000000 1.0
C      1  0.4424390000000  0.4764600000000  0.4302160000000 1.0
C      1  0.4411320000000  0.4505360000000  0.5551400000000 1.0
C      1  0.5320680000000  0.5015710000000  0.6064910000000 1.0
C      1  0.5328960000000  0.4070650000000  0.4483660000000 1.0
C      1  0.5329660000000  0.5913000000000  0.4453210000000 1.0
C      1  0.5323540000000  0.5016950000000  0.3935740000000 1.0
C      1  0.5330440000000  0.4070910000000  0.5515070000000 1.0
C      1  0.5324970000000  0.5912350000000  0.5544430000000 1.0
C      1  0.5319400000000  0.5019430000000  0.5561400000000 1.0
C      1  0.5295460000000  0.4470380000000  0.4719100000000 1.0
C      1  0.5295790000000  0.5509130000000  0.4681380000000 1.0
C      1  0.5322040000000  0.5021830000000  0.4438190000000 1.0
C      1  0.5295990000000  0.4469470000000  0.5278740000000 1.0
C      1  0.5310560000000  0.5490860000000  0.5312120000000 1.0
C      1  0.4859040000000  0.4765360000000  0.4860720000000 1.0
C      1  0.4863320000000  0.5247700000000  0.4861950000000 1.0
C      1  0.4868460000000  0.5005070000000  0.5281330000000 1.0
C      1  0.4859840000000  0.4765020000000  0.5140170000000 1.0
C      1  0.4858500000000  0.5248490000000  0.5139700000000 1.0
C      1  0.4875160000000  0.5005460000000  0.4720770000000 1.0
C      1  0.5731780000000  0.4482530000000  0.4690410000000 1.0
C      1  0.5731580000000  0.5515600000000  0.4702600000000 1.0
C      1  0.5709980000000  0.4994400000000  0.5598230000000 1.0
C      1  0.5732280000000  0.4484490000000  0.5305870000000 1.0
C      1  0.5703060000000  0.5510390000000  0.5290190000000 1.0
C      1  0.5711800000000  0.4990750000000  0.4399390000000 1.0
C      1  0.4242300000000  0.4987950000000  0.4417120000000 1.0
C      1  0.4240400000000  0.5506590000000  0.5284880000000 1.0
C      1  0.4232210000000  0.4496400000000  0.5298220000000 1.0
C      1  0.4239230000000  0.4990910000000  0.5584110000000 1.0
C      1  0.4234540000000  0.5503380000000  0.4711390000000 1.0
C      1  0.4231740000000  0.4495290000000  0.4703310000000 1.0
C      1  0.5021220000000  0.4565840000000  0.6033930000000 1.0
C      1  0.4930230000000  0.4341630000000  0.4101950000000 1.0
C      1  0.4928070000000  0.6108950000000  0.4879920000000 1.0
C      1  0.5023240000000  0.4566020000000  0.3967570000000 1.0
C      1  0.4930490000000  0.4341330000000  0.5898410000000 1.0
C      1  0.5024000000000  0.6113110000000  0.5140520000000 1.0
C      1  0.5293980000000  0.5537910000000  0.5934560000000 1.0
C      1  0.5295340000000  0.5540700000000  0.4066290000000 1.0
C      1  0.5294610000000  0.3919670000000  0.4999410000000 1.0
END
