TITL C-3578203-1966-547 -1.62744254621004e-06 125000 -371.710964717705 0 0 61 (C1) n - 1
REM
REM in /home/bkarasulu/work/CARBON/AIRSS/Generating-Clusters/EDIP-Nigel-Params/with-SteepDescent/Higher-Symm/SD-CG/HFTN-CG
REM
REM
REM
REM
REM
REM ./C.cell (12c818d87b63d06a65506943cc24bca4)
REM
REM compiler GCC version 9.2.1 20190827 (Red Hat 9.2.1-1)
REM options -cpp -mtune=generic -march=x86-64 -g -O0 -fpre-include=/usr/include/finclude/math-vector-fortran.h
REM seed 171433351 1639839446 -1894139869 1344183011 2141442823 246716415 -2129556402 89187784 -1811942564 -1485717387 1827598703 -138419191 -723211580 1487272612 -336925067 13680456 1472858198 1802222237 -849697373 -1571044659 -2044880479 -442105059 -1262392821 -989548609 1095072753 44165918 -126290323 -875770254 -1500784404 1663590917 -251650752 547154031 -145392779
REM
CELL 1.54180   50.00000   50.00000   50.00000   90.00000   90.00000   90.00000
LATT -1
SFAC C  
C      1  0.5613390000000  0.4567930000000  0.5200210000000 1.0
C      1  0.4404140000000  0.4535510000000  0.5205220000000 1.0
C      1  0.4722930000000  0.4618370000000  0.5499410000000 1.0
C      1  0.5268680000000  0.4562590000000  0.5558330000000 1.0
C      1  0.4792390000000  0.5192260000000  0.4128430000000 1.0
C      1  0.5211120000000  0.5196330000000  0.4125080000000 1.0
C      1  0.4758050000000  0.4635530000000  0.4896390000000 1.0
C      1  0.5271350000000  0.4615750000000  0.4878320000000 1.0
C      1  0.5228540000000  0.4862190000000  0.5520770000000 1.0
C      1  0.4845770000000  0.4898310000000  0.5503290000000 1.0
C      1  0.4749540000000  0.4853630000000  0.4484290000000 1.0
C      1  0.5264010000000  0.4854620000000  0.4473870000000 1.0
C      1  0.5718330000000  0.4778890000000  0.5357030000000 1.0
C      1  0.4366340000000  0.4740200000000  0.5423200000000 1.0
C      1  0.5323800000000  0.5531330000000  0.4776190000000 1.0
C      1  0.4676160000000  0.5524730000000  0.4766630000000 1.0
C      1  0.5304200000000  0.5322680000000  0.4570800000000 1.0
C      1  0.4704150000000  0.5320380000000  0.4573260000000 1.0
C      1  0.5154240000000  0.4438190000000  0.5087990000000 1.0
C      1  0.4863440000000  0.4465110000000  0.5112600000000 1.0
C      1  0.5657870000000  0.4891710000000  0.4811580000000 1.0
C      1  0.4341910000000  0.4882680000000  0.4814130000000 1.0
C      1  0.5159430000000  0.4591160000000  0.4596670000000 1.0
C      1  0.4859400000000  0.4592240000000  0.4609100000000 1.0
C      1  0.5233920000000  0.4914660000000  0.4942070000000 1.0
C      1  0.4835440000000  0.4922530000000  0.4949460000000 1.0
C      1  0.5210910000000  0.5472680000000  0.5027450000000 1.0
C      1  0.4687900000000  0.5607700000000  0.5027600000000 1.0
C      1  0.5178210000000  0.5419440000000  0.5511600000000 1.0
C      1  0.4804250000000  0.5493360000000  0.5488730000000 1.0
C      1  0.4682450000000  0.5397890000000  0.5237840000000 1.0
C      1  0.5293420000000  0.5302620000000  0.5258500000000 1.0
C      1  0.4448370000000  0.5200250000000  0.5236880000000 1.0
C      1  0.5586720000000  0.5217490000000  0.5248680000000 1.0
C      1  0.4437730000000  0.5225890000000  0.4495550000000 1.0
C      1  0.5571610000000  0.5232360000000  0.4491090000000 1.0
C      1  0.5141840000000  0.5746680000000  0.5041160000000 1.0
C      1  0.4875420000000  0.5809200000000  0.5071130000000 1.0
C      1  0.4852520000000  0.5398330000000  0.4319340000000 1.0
C      1  0.5152230000000  0.5399970000000  0.4318430000000 1.0
C      1  0.4460400000000  0.4629070000000  0.4918730000000 1.0
C      1  0.5566610000000  0.4623210000000  0.4908510000000 1.0
C      1  0.4654760000000  0.5067390000000  0.5659960000000 1.0
C      1  0.5432560000000  0.5015360000000  0.5660270000000 1.0
C      1  0.5149870000000  0.4927160000000  0.4201730000000 1.0
C      1  0.4855900000000  0.4924020000000  0.4207100000000 1.0
C      1  0.4863360000000  0.5051060000000  0.5225760000000 1.0
C      1  0.5167410000000  0.5028260000000  0.5227260000000 1.0
C      1  0.5635180000000  0.5025210000000  0.5463050000000 1.0
C      1  0.4423770000000  0.5028420000000  0.5474460000000 1.0
C      1  0.4452760000000  0.4947410000000  0.4541920000000 1.0
C      1  0.5563350000000  0.4952100000000  0.4532530000000 1.0
C      1  0.4633740000000  0.4346310000000  0.5247200000000 1.0
C      1  0.5360840000000  0.4436030000000  0.5306090000000 1.0
C      1  0.5062430000000  0.4429950000000  0.5693430000000 1.0
C      1  0.4798680000000  0.4470430000000  0.5734140000000 1.0
C      1  0.5158400000000  0.5066550000000  0.4675210000000 1.0
C      1  0.4858970000000  0.5067870000000  0.4678660000000 1.0
C      1  0.5675380000000  0.5103890000000  0.5004310000000 1.0
C      1  0.4335620000000  0.5095050000000  0.5002390000000 1.0
C      1  0.4949810000000  0.5314400000000  0.5656060000000 1.0
END
