TITL C-3578204-4308-339 -1.07479551632576e-06 125000 -1094.51754967408 0 0 176 (C1) n - 1
REM
REM in /home/bkarasulu/work/CARBON/AIRSS/Generating-Clusters/EDIP-Nigel-Params/with-SteepDescent/Higher-Symm/SD-CG/HFTN-CG
REM
REM
REM
REM
REM
REM ./C.cell (12c818d87b63d06a65506943cc24bca4)
REM
REM compiler GCC version 9.2.1 20190827 (Red Hat 9.2.1-1)
REM options -cpp -mtune=generic -march=x86-64 -g -O0 -fpre-include=/usr/include/finclude/math-vector-fortran.h
REM seed 1790130287 -1319947819 367792279 -811353324 1084463930 409962064 1996310525 -711655989 -1776650705 1696684669 469129436 -1732700019 993930863 -956068665 438091949 -333476541 -1742525395 1647889299 1502958212 146555058 -647013290 -1418055762 -1199565962 137545649 967635279 -1756835233 -2010852339 1529824826 -1026187651 1815371708 1689277706 1042181034 241768144
REM
CELL 1.54180   50.00000   50.00000   50.00000   90.00000   90.00000   90.00000
LATT -1
SFAC C  
C      1  0.5288210000000  0.4106630000000  0.4430860000000 1.0
C      1  0.4335150000000  0.4607970000000  0.5226640000000 1.0
C      1  0.4455950000000  0.5342410000000  0.4058910000000 1.0
C      1  0.4763360000000  0.4241130000000  0.5462240000000 1.0
C      1  0.4687700000000  0.5647930000000  0.4444240000000 1.0
C      1  0.5279630000000  0.5746930000000  0.5612130000000 1.0
C      1  0.5640090000000  0.4444730000000  0.4724180000000 1.0
C      1  0.5697470000000  0.5510970000000  0.5278220000000 1.0
C      1  0.4310900000000  0.5472500000000  0.4726280000000 1.0
C      1  0.5534440000000  0.5311740000000  0.5828600000000 1.0
C      1  0.5429920000000  0.4779470000000  0.4324920000000 1.0
C      1  0.4619270000000  0.4785590000000  0.5837030000000 1.0
C      1  0.5283430000000  0.5761520000000  0.4412840000000 1.0
C      1  0.4281440000000  0.5457930000000  0.5238400000000 1.0
C      1  0.4566110000000  0.4810890000000  0.4235680000000 1.0
C      1  0.4676340000000  0.5629600000000  0.5552490000000 1.0
C      1  0.4732740000000  0.4220140000000  0.4522050000000 1.0
C      1  0.5297730000000  0.4112320000000  0.5573240000000 1.0
C      1  0.5698880000000  0.5511460000000  0.4732930000000 1.0
C      1  0.5636740000000  0.4448390000000  0.5291170000000 1.0
C      1  0.4306780000000  0.4545990000000  0.4721120000000 1.0
C      1  0.5435240000000  0.4773490000000  0.5697890000000 1.0
C      1  0.5524960000000  0.5316200000000  0.4188130000000 1.0
C      1  0.4457210000000  0.5289030000000  0.5914310000000 1.0
C      1  0.5263370000000  0.5210500000000  0.5836630000000 1.0
C      1  0.5183870000000  0.5632610000000  0.5323720000000 1.0
C      1  0.5880440000000  0.5326570000000  0.5146180000000 1.0
C      1  0.4738780000000  0.5249320000000  0.4133440000000 1.0
C      1  0.4829000000000  0.4963020000000  0.5936280000000 1.0
C      1  0.5265170000000  0.4924240000000  0.4125480000000 1.0
C      1  0.4805020000000  0.5622880000000  0.4730940000000 1.0
C      1  0.4904900000000  0.4073850000000  0.5265710000000 1.0
C      1  0.5186430000000  0.4136540000000  0.4719190000000 1.0
C      1  0.4088820000000  0.5311620000000  0.4822580000000 1.0
C      1  0.4222590000000  0.4840040000000  0.5089110000000 1.0
C      1  0.5577280000000  0.4732560000000  0.4826070000000 1.0
C      1  0.5269360000000  0.4922520000000  0.5900760000000 1.0
C      1  0.5198750000000  0.4119710000000  0.5279190000000 1.0
C      1  0.5574740000000  0.4733410000000  0.5188740000000 1.0
C      1  0.4778500000000  0.4965560000000  0.4108090000000 1.0
C      1  0.4759230000000  0.5245330000000  0.5892770000000 1.0
C      1  0.5255200000000  0.5212000000000  0.4185410000000 1.0
C      1  0.4883030000000  0.4108630000000  0.4748970000000 1.0
C      1  0.4801360000000  0.5604580000000  0.5273620000000 1.0
C      1  0.5188080000000  0.5638560000000  0.4694890000000 1.0
C      1  0.4246460000000  0.4833170000000  0.4785090000000 1.0
C      1  0.4065240000000  0.5308520000000  0.5100030000000 1.0
C      1  0.5880370000000  0.5325420000000  0.4865000000000 1.0
C      1  0.5620750000000  0.5982600000000  0.5313670000000 1.0
C      1  0.5975230000000  0.5327860000000  0.5677770000000 1.0
C      1  0.5270110000000  0.5658840000000  0.5991700000000 1.0
C      1  0.4322100000000  0.5962880000000  0.4679470000000 1.0
C      1  0.4288480000000  0.4131930000000  0.5303110000000 1.0
C      1  0.5706260000000  0.3995740000000  0.4676910000000 1.0
C      1  0.4158010000000  0.5208770000000  0.4305950000000 1.0
C      1  0.4224790000000  0.4908540000000  0.5676830000000 1.0
C      1  0.5908780000000  0.4711680000000  0.4388730000000 1.0
C      1  0.4669620000000  0.5796300000000  0.3995450000000 1.0
C      1  0.4918720000000  0.4389180000000  0.5849330000000 1.0
C      1  0.5194500000000  0.4339100000000  0.4130210000000 1.0
C      1  0.5715550000000  0.3984730000000  0.5335020000000 1.0
C      1  0.5913190000000  0.4707030000000  0.5619040000000 1.0
C      1  0.5216210000000  0.4323150000000  0.5895480000000 1.0
C      1  0.4257340000000  0.4091130000000  0.4726490000000 1.0
C      1  0.4305130000000  0.5949610000000  0.5297600000000 1.0
C      1  0.5636220000000  0.5987490000000  0.4700630000000 1.0
C      1  0.4128910000000  0.4818860000000  0.4318240000000 1.0
C      1  0.4342940000000  0.5191190000000  0.5651430000000 1.0
C      1  0.5970840000000  0.5329490000000  0.4327630000000 1.0
C      1  0.4880030000000  0.4387490000000  0.4146360000000 1.0
C      1  0.4626510000000  0.5760080000000  0.6002600000000 1.0
C      1  0.5246690000000  0.5660810000000  0.4038890000000 1.0
C      1  0.3926170000000  0.4888910000000  0.5081560000000 1.0
C      1  0.4945740000000  0.5249430000000  0.3806880000000 1.0
C      1  0.5220150000000  0.3859470000000  0.4883400000000 1.0
C      1  0.5843330000000  0.4882870000000  0.4863810000000 1.0
C      1  0.5972180000000  0.5098730000000  0.5280360000000 1.0
C      1  0.3903520000000  0.5167190000000  0.4665370000000 1.0
C      1  0.5146650000000  0.5389100000000  0.6040290000000 1.0
C      1  0.5168670000000  0.4829210000000  0.3876440000000 1.0
C      1  0.4947120000000  0.4979790000000  0.6198200000000 1.0
C      1  0.4805920000000  0.3836070000000  0.5152910000000 1.0
C      1  0.4810350000000  0.5898720000000  0.4857570000000 1.0
C      1  0.5122900000000  0.5887180000000  0.5166580000000 1.0
C      1  0.3866910000000  0.5137090000000  0.5205980000000 1.0
C      1  0.4918420000000  0.4959100000000  0.3852570000000 1.0
C      1  0.5130070000000  0.5891610000000  0.4859910000000 1.0
C      1  0.5971690000000  0.5096550000000  0.4732860000000 1.0
C      1  0.5841630000000  0.4884350000000  0.5152350000000 1.0
C      1  0.3933940000000  0.4901650000000  0.4761790000000 1.0
C      1  0.5199290000000  0.4853470000000  0.6169040000000 1.0
C      1  0.5127080000000  0.5384690000000  0.3985100000000 1.0
C      1  0.4958830000000  0.5274220000000  0.6223890000000 1.0
C      1  0.4806950000000  0.5887970000000  0.5158140000000 1.0
C      1  0.4905870000000  0.3839650000000  0.4889590000000 1.0
C      1  0.5325010000000  0.3900020000000  0.5138470000000 1.0
C      1  0.4306160000000  0.4648030000000  0.5530710000000 1.0
C      1  0.4427290000000  0.5647200000000  0.4009350000000 1.0
C      1  0.5584360000000  0.4045230000000  0.4423030000000 1.0
C      1  0.5833610000000  0.4459840000000  0.4485940000000 1.0
C      1  0.5839850000000  0.5550790000000  0.5550260000000 1.0
C      1  0.4292710000000  0.5448700000000  0.4427290000000 1.0
C      1  0.5550820000000  0.5586120000000  0.5917840000000 1.0
C      1  0.5421310000000  0.4484940000000  0.4257020000000 1.0
C      1  0.4642370000000  0.4496050000000  0.5878470000000 1.0
C      1  0.4472600000000  0.4183570000000  0.5509820000000 1.0
C      1  0.4446740000000  0.5865960000000  0.4446570000000 1.0
C      1  0.5522150000000  0.5928600000000  0.5572930000000 1.0
C      1  0.4216490000000  0.5421880000000  0.5529250000000 1.0
C      1  0.4622090000000  0.4523010000000  0.4222400000000 1.0
C      1  0.5531210000000  0.5935600000000  0.4444080000000 1.0
C      1  0.5840430000000  0.5552760000000  0.4458680000000 1.0
C      1  0.5840970000000  0.4455100000000  0.5519480000000 1.0
C      1  0.4184930000000  0.4556270000000  0.4440330000000 1.0
C      1  0.5436470000000  0.4476760000000  0.5768220000000 1.0
C      1  0.5535570000000  0.5590440000000  0.4098450000000 1.0
C      1  0.4404310000000  0.5588220000000  0.5945970000000 1.0
C      1  0.4424560000000  0.5843340000000  0.5529050000000 1.0
C      1  0.4434400000000  0.4145790000000  0.4507960000000 1.0
C      1  0.5591790000000  0.4040060000000  0.5588210000000 1.0
C      1  0.4854750000000  0.4133870000000  0.5733890000000 1.0
C      1  0.4276040000000  0.5743000000000  0.4839960000000 1.0
C      1  0.5708610000000  0.4885120000000  0.4311040000000 1.0
C      1  0.5100140000000  0.3981130000000  0.4243760000000 1.0
C      1  0.5059600000000  0.5880730000000  0.5763300000000 1.0
C      1  0.4844710000000  0.5744850000000  0.4209570000000 1.0
C      1  0.5705080000000  0.5775350000000  0.5149520000000 1.0
C      1  0.5725690000000  0.4200690000000  0.4868190000000 1.0
C      1  0.4204550000000  0.4348950000000  0.5150530000000 1.0
C      1  0.4334490000000  0.4864730000000  0.5950560000000 1.0
C      1  0.4231950000000  0.5135460000000  0.4023770000000 1.0
C      1  0.5759540000000  0.5162170000000  0.5747710000000 1.0
C      1  0.4806800000000  0.5751580000000  0.5787040000000 1.0
C      1  0.4171950000000  0.4321460000000  0.4862650000000 1.0
C      1  0.5752830000000  0.5166000000000  0.4260960000000 1.0
C      1  0.5067960000000  0.5906910000000  0.4271690000000 1.0
C      1  0.5103360000000  0.3982420000000  0.5750120000000 1.0
C      1  0.4840280000000  0.4110640000000  0.4248500000000 1.0
C      1  0.5660790000000  0.4189390000000  0.5147940000000 1.0
C      1  0.5708360000000  0.5775440000000  0.4863780000000 1.0
C      1  0.4261180000000  0.5735290000000  0.5129840000000 1.0
C      1  0.4337710000000  0.5104760000000  0.6108080000000 1.0
C      1  0.4298430000000  0.4853560000000  0.4090610000000 1.0
C      1  0.5714640000000  0.4880280000000  0.5703540000000 1.0
C      1  0.5271660000000  0.4410100000000  0.4841490000000 1.0
C      1  0.4709140000000  0.4826390000000  0.5529820000000 1.0
C      1  0.4818270000000  0.5303850000000  0.4428430000000 1.0
C      1  0.4622530000000  0.4598900000000  0.5123160000000 1.0
C      1  0.4598430000000  0.5376910000000  0.4831000000000 1.0
C      1  0.5375600000000  0.5409430000000  0.5184790000000 1.0
C      1  0.5330620000000  0.4842580000000  0.4637090000000 1.0
C      1  0.5262860000000  0.5148170000000  0.5332210000000 1.0
C      1  0.4685250000000  0.5140620000000  0.4644860000000 1.0
C      1  0.5129100000000  0.5270240000000  0.5570560000000 1.0
C      1  0.5104610000000  0.4639270000000  0.4720080000000 1.0
C      1  0.4815400000000  0.4578780000000  0.5360960000000 1.0
C      1  0.5376340000000  0.5411090000000  0.4830870000000 1.0
C      1  0.4696540000000  0.5102500000000  0.5404340000000 1.0
C      1  0.4814270000000  0.4584520000000  0.4612760000000 1.0
C      1  0.4592320000000  0.5365170000000  0.5162980000000 1.0
C      1  0.4604920000000  0.4540400000000  0.4827280000000 1.0
C      1  0.5273260000000  0.4402230000000  0.5159430000000 1.0
C      1  0.5261620000000  0.5151520000000  0.4686280000000 1.0
C      1  0.5331310000000  0.4838420000000  0.5379140000000 1.0
C      1  0.4568150000000  0.4872200000000  0.4566210000000 1.0
C      1  0.5114090000000  0.4629570000000  0.5285430000000 1.0
C      1  0.5123640000000  0.5273360000000  0.4451320000000 1.0
C      1  0.4824260000000  0.5300220000000  0.5593080000000 1.0
C      1  0.5704450000000  0.5753340000000  0.4282610000000 1.0
C      1  0.5671480000000  0.4306500000000  0.5706580000000 1.0
C      1  0.4260590000000  0.5663000000000  0.5694660000000 1.0
C      1  0.4379490000000  0.4374470000000  0.4316220000000 1.0
C      1  0.5657300000000  0.4313410000000  0.4304230000000 1.0
C      1  0.5706000000000  0.5751250000000  0.5727350000000 1.0
C      1  0.4404790000000  0.4409300000000  0.5693620000000 1.0
C      1  0.4287960000000  0.5694440000000  0.4267190000000 1.0
END
