TITL C-3578199-7832-747 -4.85092361599737e-07 125000 -923.649205618306 0 0 150 (C1) n - 1
REM
REM in /home/bkarasulu/work/CARBON/AIRSS/Generating-Clusters/EDIP-Nigel-Params/with-SteepDescent/Higher-Symm/SD-CG/HFTN-CG
REM
REM
REM
REM
REM
REM ./C.cell (12c818d87b63d06a65506943cc24bca4)
REM
REM compiler GCC version 9.2.1 20190827 (Red Hat 9.2.1-1)
REM options -cpp -mtune=generic -march=x86-64 -g -O0 -fpre-include=/usr/include/finclude/math-vector-fortran.h
REM seed 688606756 -389800000 -254256149 -1979221356 -1658448253 -320906600 -516029638 -195732836 -510590044 2094725166 -1989415579 -216954665 846738636 1763582025 -2011642712 -1615946095 1459479789 578109585 1762295853 1749069693 -515031245 -1171411703 -405014874 -1651121474 -1992303943 -1648818301 -205182749 -208420477 -1904321847 1297841389 -176471010 1055920342 1744738747
REM
CELL 1.54180   50.00000   50.00000   50.00000   90.00000   90.00000   90.00000
LATT -1
SFAC C  
C      1  0.4599030000000  0.5309080000000  0.4786970000000 1.0
C      1  0.5005080000000  0.4640050000000  0.4840420000000 1.0
C      1  0.5466250000000  0.5073390000000  0.4845110000000 1.0
C      1  0.4950630000000  0.5939050000000  0.5058200000000 1.0
C      1  0.4192130000000  0.4528040000000  0.5019080000000 1.0
C      1  0.5920670000000  0.4471930000000  0.4981130000000 1.0
C      1  0.4024590000000  0.5058980000000  0.4763000000000 1.0
C      1  0.5463610000000  0.4164930000000  0.4788740000000 1.0
C      1  0.5459890000000  0.5781900000000  0.4802980000000 1.0
C      1  0.5710580000000  0.4921830000000  0.4942450000000 1.0
C      1  0.4681260000000  0.5559390000000  0.4960360000000 1.0
C      1  0.4774220000000  0.4610530000000  0.5031050000000 1.0
C      1  0.5777710000000  0.5450230000000  0.5009850000000 1.0
C      1  0.4175800000000  0.5499230000000  0.5001760000000 1.0
C      1  0.5027420000000  0.4107160000000  0.5066950000000 1.0
C      1  0.3920040000000  0.4608080000000  0.5011180000000 1.0
C      1  0.5910860000000  0.4197620000000  0.5009360000000 1.0
C      1  0.5150910000000  0.6127810000000  0.4998150000000 1.0
C      1  0.4847150000000  0.4574360000000  0.4580570000000 1.0
C      1  0.5533160000000  0.5093990000000  0.4528550000000 1.0
C      1  0.4659300000000  0.5390090000000  0.4500730000000 1.0
C      1  0.4947060000000  0.6006780000000  0.5556820000000 1.0
C      1  0.4132660000000  0.4455410000000  0.5535640000000 1.0
C      1  0.5910960000000  0.4521360000000  0.5599150000000 1.0
C      1  0.4749310000000  0.4865620000000  0.4553080000000 1.0
C      1  0.5299370000000  0.4876860000000  0.4485280000000 1.0
C      1  0.4969350000000  0.5290360000000  0.4517610000000 1.0
C      1  0.4461530000000  0.5212850000000  0.4343950000000 1.0
C      1  0.5073670000000  0.4435040000000  0.4397050000000 1.0
C      1  0.5459910000000  0.5372420000000  0.4400220000000 1.0
C      1  0.4552180000000  0.5884160000000  0.5322780000000 1.0
C      1  0.4435860000000  0.4165920000000  0.5304000000000 1.0
C      1  0.6021230000000  0.4849380000000  0.5322470000000 1.0
C      1  0.5752910000000  0.4962580000000  0.5268840000000 1.0
C      1  0.4640810000000  0.5599300000000  0.5277690000000 1.0
C      1  0.4664080000000  0.4362610000000  0.5322960000000 1.0
C      1  0.4155070000000  0.4963740000000  0.5232830000000 1.0
C      1  0.5489070000000  0.4278120000000  0.5261050000000 1.0
C      1  0.5376530000000  0.5824480000000  0.5277900000000 1.0
C      1  0.4398400000000  0.4357070000000  0.4439080000000 1.0
C      1  0.5901710000000  0.4784190000000  0.4382500000000 1.0
C      1  0.4622780000000  0.5864770000000  0.4586590000000 1.0
C      1  0.5639990000000  0.4497410000000  0.5463100000000 1.0
C      1  0.5112000000000  0.5784180000000  0.5442230000000 1.0
C      1  0.4261260000000  0.4705580000000  0.5444610000000 1.0
C      1  0.4175300000000  0.5301580000000  0.4380410000000 1.0
C      1  0.5163970000000  0.4142580000000  0.4428740000000 1.0
C      1  0.5638810000000  0.5622230000000  0.4419770000000 1.0
C      1  0.5979690000000  0.5322010000000  0.4845450000000 1.0
C      1  0.4237240000000  0.5755940000000  0.4892200000000 1.0
C      1  0.4781260000000  0.4058920000000  0.4923270000000 1.0
C      1  0.4175150000000  0.4800700000000  0.5708670000000 1.0
C      1  0.5569110000000  0.4395830000000  0.5731860000000 1.0
C      1  0.5228340000000  0.5794110000000  0.5712340000000 1.0
C      1  0.5786480000000  0.5481460000000  0.5294500000000 1.0
C      1  0.4165520000000  0.5453150000000  0.5294260000000 1.0
C      1  0.5052660000000  0.4062300000000  0.5351500000000 1.0
C      1  0.4316900000000  0.4966070000000  0.4800180000000 1.0
C      1  0.5416390000000  0.4474630000000  0.4827690000000 1.0
C      1  0.5253860000000  0.5548890000000  0.4837310000000 1.0
C      1  0.5645440000000  0.4128840000000  0.5039990000000 1.0
C      1  0.5387980000000  0.5976590000000  0.5026060000000 1.0
C      1  0.3938930000000  0.4890240000000  0.5025340000000 1.0
C      1  0.5410240000000  0.5579060000000  0.5740560000000 1.0
C      1  0.4270250000000  0.5067400000000  0.5739340000000 1.0
C      1  0.5287490000000  0.4363030000000  0.5771270000000 1.0
C      1  0.5821730000000  0.5002850000000  0.5733280000000 1.0
C      1  0.4598770000000  0.5680080000000  0.5734240000000 1.0
C      1  0.4576530000000  0.4304930000000  0.5751760000000 1.0
C      1  0.5190710000000  0.4592080000000  0.5955240000000 1.0
C      1  0.5286200000000  0.5370760000000  0.5906630000000 1.0
C      1  0.4509470000000  0.5058120000000  0.5921000000000 1.0
C      1  0.5336960000000  0.5143890000000  0.5724520000000 1.0
C      1  0.4694490000000  0.5188370000000  0.5725710000000 1.0
C      1  0.4960880000000  0.4658840000000  0.5758640000000 1.0
C      1  0.5861930000000  0.5600660000000  0.4603830000000 1.0
C      1  0.4208020000000  0.5551540000000  0.4563950000000 1.0
C      1  0.5032450000000  0.3993120000000  0.4640640000000 1.0
C      1  0.4467500000000  0.4953410000000  0.4487660000000 1.0
C      1  0.5313660000000  0.4576710000000  0.4517940000000 1.0
C      1  0.5206230000000  0.5467690000000  0.4540510000000 1.0
C      1  0.4569950000000  0.4641410000000  0.5460090000000 1.0
C      1  0.5540370000000  0.4799390000000  0.5434460000000 1.0
C      1  0.4903790000000  0.5521510000000  0.5426490000000 1.0
C      1  0.5737300000000  0.5688810000000  0.4849310000000 1.0
C      1  0.4006200000000  0.5350170000000  0.4825660000000 1.0
C      1  0.5215250000000  0.4010300000000  0.4864390000000 1.0
C      1  0.4498120000000  0.5186690000000  0.5498140000000 1.0
C      1  0.5074610000000  0.4472610000000  0.5545860000000 1.0
C      1  0.5424300000000  0.5307430000000  0.5491750000000 1.0
C      1  0.5101800000000  0.4510070000000  0.4110600000000 1.0
C      1  0.5366270000000  0.5352710000000  0.4119460000000 1.0
C      1  0.4513210000000  0.5140650000000  0.4063270000000 1.0
C      1  0.5438920000000  0.5843710000000  0.4492030000000 1.0
C      1  0.4030880000000  0.5041650000000  0.4444480000000 1.0
C      1  0.5466540000000  0.4161360000000  0.4467690000000 1.0
C      1  0.4599930000000  0.4290200000000  0.4900250000000 1.0
C      1  0.5932410000000  0.5048690000000  0.4777500000000 1.0
C      1  0.4524300000000  0.5824590000000  0.4871400000000 1.0
C      1  0.5543860000000  0.4451700000000  0.4355750000000 1.0
C      1  0.5152760000000  0.5736460000000  0.4386380000000 1.0
C      1  0.4232390000000  0.4805750000000  0.4330190000000 1.0
C      1  0.4063600000000  0.5201030000000  0.5370050000000 1.0
C      1  0.5324610000000  0.4094480000000  0.5418020000000 1.0
C      1  0.5609340000000  0.5688540000000  0.5360410000000 1.0
C      1  0.5770440000000  0.4582890000000  0.4517330000000 1.0
C      1  0.4918540000000  0.5818590000000  0.4594780000000 1.0
C      1  0.4231510000000  0.4564600000000  0.4514780000000 1.0
C      1  0.5436770000000  0.4739890000000  0.5943260000000 1.0
C      1  0.5021640000000  0.5469220000000  0.5920120000000 1.0
C      1  0.4527990000000  0.4775250000000  0.5943450000000 1.0
C      1  0.5147460000000  0.5552260000000  0.4101500000000 1.0
C      1  0.4423350000000  0.4856910000000  0.4055650000000 1.0
C      1  0.5390530000000  0.4575610000000  0.4078610000000 1.0
C      1  0.4327480000000  0.4240450000000  0.5582720000000 1.0
C      1  0.6006500000000  0.4800380000000  0.5613040000000 1.0
C      1  0.4662130000000  0.5938560000000  0.5594260000000 1.0
C      1  0.5288610000000  0.4880490000000  0.5300170000000 1.0
C      1  0.4953000000000  0.5261570000000  0.5287260000000 1.0
C      1  0.4761850000000  0.4793500000000  0.5285010000000 1.0
C      1  0.4662990000000  0.4598350000000  0.5754800000000 1.0
C      1  0.5532710000000  0.4917880000000  0.5730750000000 1.0
C      1  0.4808170000000  0.5465240000000  0.5721720000000 1.0
C      1  0.5184510000000  0.4910720000000  0.4779910000000 1.0
C      1  0.5010510000000  0.5146300000000  0.4775950000000 1.0
C      1  0.4752910000000  0.5043860000000  0.4813220000000 1.0
C      1  0.5723100000000  0.5232340000000  0.5444260000000 1.0
C      1  0.4422420000000  0.5477590000000  0.5451150000000 1.0
C      1  0.4873240000000  0.4247700000000  0.5509130000000 1.0
C      1  0.5359720000000  0.5303510000000  0.5001580000000 1.0
C      1  0.4405050000000  0.5048810000000  0.5084220000000 1.0
C      1  0.5302530000000  0.4453190000000  0.5107830000000 1.0
C      1  0.5830590000000  0.5023370000000  0.4502200000000 1.0
C      1  0.4489450000000  0.5643700000000  0.4454630000000 1.0
C      1  0.4618370000000  0.4378460000000  0.4616660000000 1.0
C      1  0.4681660000000  0.5082180000000  0.5248070000000 1.0
C      1  0.5126700000000  0.4637610000000  0.5265620000000 1.0
C      1  0.5243420000000  0.5187010000000  0.5260800000000 1.0
C      1  0.4892080000000  0.4636200000000  0.3979050000000 1.0
C      1  0.5360570000000  0.5100660000000  0.3999650000000 1.0
C      1  0.4746040000000  0.5242760000000  0.3950740000000 1.0
C      1  0.4318090000000  0.4657360000000  0.4786160000000 1.0
C      1  0.5708210000000  0.4612820000000  0.4822180000000 1.0
C      1  0.4963130000000  0.5700260000000  0.4874580000000 1.0
C      1  0.5428310000000  0.4840350000000  0.3995780000000 1.0
C      1  0.4918100000000  0.5445800000000  0.3984040000000 1.0
C      1  0.4629730000000  0.4687810000000  0.3977530000000 1.0
C      1  0.4317540000000  0.4259950000000  0.5039980000000 1.0
C      1  0.6062140000000  0.4621280000000  0.5167670000000 1.0
C      1  0.4664970000000  0.6020360000000  0.5084260000000 1.0
END
