TITL C-3578198-8939-164 -5.32888545831512e-06 125000 -657.457707518883 0 0 107 (C1) n - 1
REM
REM in /home/bkarasulu/work/CARBON/AIRSS/Generating-Clusters/EDIP-Nigel-Params/with-SteepDescent/Higher-Symm/SD-CG/HFTN-CG
REM
REM
REM
REM
REM
REM ./C.cell (12c818d87b63d06a65506943cc24bca4)
REM
REM compiler GCC version 9.2.1 20190827 (Red Hat 9.2.1-1)
REM options -cpp -mtune=generic -march=x86-64 -g -O0 -fpre-include=/usr/include/finclude/math-vector-fortran.h
REM seed -81553462 1255921973 1076801466 688992654 -1027089577 2107865898 -1946269235 -934484484 -1268788133 2140009974 777076448 -1075620046 -2080563133 -1532396582 -1637073067 874583343 -1105844706 -752646036 -203548172 1339657604 255692359 1452788248 -743212406 -1047648847 -1235184068 -404316950 -303530080 -2024718163 79871581 -183736340 1122821312 -1999043868 948765452
REM
CELL 1.54180   50.00000   50.00000   50.00000   90.00000   90.00000   90.00000
LATT -1
SFAC C  
C      1  0.4978410000000  0.5315230000000  0.4550590000000 1.0
C      1  0.5265280000000  0.5193490000000  0.4435270000000 1.0
C      1  0.5298690000000  0.4886690000000  0.4544150000000 1.0
C      1  0.5128110000000  0.4662730000000  0.4384950000000 1.0
C      1  0.4827320000000  0.4683140000000  0.4467250000000 1.0
C      1  0.4644490000000  0.4925470000000  0.4469900000000 1.0
C      1  0.4715120000000  0.5220280000000  0.4386610000000 1.0
C      1  0.5254580000000  0.4652980000000  0.5396120000000 1.0
C      1  0.4945240000000  0.4609080000000  0.5333310000000 1.0
C      1  0.4619860000000  0.4864600000000  0.5400670000000 1.0
C      1  0.4634930000000  0.5184200000000  0.5339570000000 1.0
C      1  0.4942650000000  0.5409520000000  0.5409630000000 1.0
C      1  0.5257700000000  0.5319350000000  0.5400900000000 1.0
C      1  0.5389050000000  0.4970150000000  0.5394980000000 1.0
C      1  0.5073440000000  0.4164930000000  0.4505960000000 1.0
C      1  0.4431070000000  0.4433180000000  0.4629210000000 1.0
C      1  0.4194250000000  0.5099070000000  0.4586830000000 1.0
C      1  0.4561890000000  0.5698000000000  0.4487450000000 1.0
C      1  0.5253050000000  0.5734560000000  0.4611830000000 1.0
C      1  0.5761310000000  0.5243020000000  0.4532660000000 1.0
C      1  0.5681800000000  0.4541090000000  0.4505370000000 1.0
C      1  0.5511460000000  0.4335830000000  0.4568420000000 1.0
C      1  0.4817730000000  0.4181020000000  0.4606770000000 1.0
C      1  0.4249220000000  0.4635490000000  0.4646720000000 1.0
C      1  0.4245280000000  0.5368030000000  0.4593600000000 1.0
C      1  0.4798370000000  0.5805500000000  0.4581490000000 1.0
C      1  0.5503700000000  0.5625740000000  0.4630140000000 1.0
C      1  0.5822290000000  0.4983320000000  0.4598040000000 1.0
C      1  0.5251170000000  0.5240300000000  0.5906900000000 1.0
C      1  0.5283060000000  0.4965040000000  0.5827000000000 1.0
C      1  0.5163280000000  0.4715240000000  0.5892510000000 1.0
C      1  0.4875050000000  0.4679530000000  0.5884270000000 1.0
C      1  0.4695870000000  0.4909190000000  0.5892650000000 1.0
C      1  0.4790820000000  0.5157780000000  0.5792940000000 1.0
C      1  0.4979620000000  0.5340790000000  0.5905850000000 1.0
C      1  0.5511820000000  0.5359140000000  0.4520490000000 1.0
C      1  0.5606690000000  0.4807450000000  0.4509950000000 1.0
C      1  0.5244700000000  0.4376680000000  0.4453120000000 1.0
C      1  0.4695250000000  0.4434750000000  0.4552960000000 1.0
C      1  0.4363900000000  0.4884360000000  0.4555840000000 1.0
C      1  0.4491630000000  0.5431860000000  0.4452450000000 1.0
C      1  0.5016010000000  0.5627100000000  0.4517470000000 1.0
C      1  0.5668630000000  0.5066330000000  0.5251080000000 1.0
C      1  0.5495640000000  0.4494140000000  0.5245020000000 1.0
C      1  0.4953000000000  0.4302720000000  0.5230200000000 1.0
C      1  0.4441990000000  0.4645910000000  0.5235130000000 1.0
C      1  0.4344150000000  0.5230020000000  0.5225440000000 1.0
C      1  0.4770290000000  0.5652790000000  0.5248980000000 1.0
C      1  0.5350060000000  0.5584650000000  0.5245230000000 1.0
C      1  0.5348270000000  0.5801530000000  0.5441060000000 1.0
C      1  0.5832710000000  0.5209180000000  0.5447290000000 1.0
C      1  0.5699850000000  0.4474430000000  0.5453530000000 1.0
C      1  0.5037210000000  0.4129140000000  0.5448400000000 1.0
C      1  0.4347010000000  0.4454340000000  0.5432650000000 1.0
C      1  0.4158300000000  0.5181480000000  0.5445720000000 1.0
C      1  0.4605360000000  0.5780940000000  0.5453560000000 1.0
C      1  0.5592580000000  0.4605890000000  0.5679530000000 1.0
C      1  0.5040900000000  0.4301800000000  0.5666630000000 1.0
C      1  0.4490490000000  0.4528320000000  0.5660110000000 1.0
C      1  0.4317850000000  0.5132050000000  0.5671040000000 1.0
C      1  0.4648840000000  0.5609800000000  0.5672980000000 1.0
C      1  0.5270110000000  0.5670310000000  0.5676460000000 1.0
C      1  0.5672130000000  0.5199210000000  0.5675990000000 1.0
C      1  0.5928260000000  0.4930800000000  0.4853820000000 1.0
C      1  0.5543740000000  0.4215360000000  0.4823050000000 1.0
C      1  0.4741380000000  0.4071860000000  0.4856530000000 1.0
C      1  0.4091180000000  0.4641200000000  0.4878770000000 1.0
C      1  0.4187360000000  0.5497540000000  0.4836880000000 1.0
C      1  0.4828510000000  0.5918310000000  0.4839570000000 1.0
C      1  0.5648800000000  0.5677240000000  0.4865030000000 1.0
C      1  0.5558370000000  0.5244460000000  0.5049370000000 1.0
C      1  0.5568490000000  0.4689240000000  0.5037380000000 1.0
C      1  0.5154890000000  0.4319500000000  0.5015190000000 1.0
C      1  0.4604980000000  0.4496310000000  0.5031400000000 1.0
C      1  0.4325210000000  0.5034320000000  0.5006000000000 1.0
C      1  0.4607880000000  0.5533910000000  0.5037000000000 1.0
C      1  0.5152080000000  0.5616380000000  0.5025490000000 1.0
C      1  0.4824340000000  0.4670800000000  0.4905650000000 1.0
C      1  0.4616230000000  0.5034100000000  0.4885710000000 1.0
C      1  0.4757480000000  0.5303660000000  0.4932350000000 1.0
C      1  0.5049080000000  0.5334000000000  0.4986390000000 1.0
C      1  0.5278970000000  0.5134530000000  0.5001750000000 1.0
C      1  0.5308150000000  0.4828950000000  0.4981200000000 1.0
C      1  0.5118730000000  0.4603430000000  0.4925310000000 1.0
C      1  0.5429910000000  0.4242520000000  0.5080540000000 1.0
C      1  0.4695660000000  0.4220510000000  0.5094850000000 1.0
C      1  0.4211710000000  0.4778890000000  0.5094440000000 1.0
C      1  0.4319360000000  0.5499630000000  0.5086190000000 1.0
C      1  0.4947170000000  0.5828740000000  0.5081150000000 1.0
C      1  0.5609850000000  0.5533470000000  0.5104470000000 1.0
C      1  0.5808500000000  0.4851030000000  0.5095490000000 1.0
C      1  0.5031390000000  0.5316810000000  0.4037740000000 1.0
C      1  0.5256910000000  0.5189210000000  0.4138960000000 1.0
C      1  0.5310710000000  0.4936530000000  0.4035430000000 1.0
C      1  0.5142700000000  0.4721690000000  0.4090520000000 1.0
C      1  0.4894030000000  0.4751440000000  0.3965950000000 1.0
C      1  0.4734430000000  0.4970190000000  0.3967650000000 1.0
C      1  0.4778020000000  0.5216380000000  0.4092920000000 1.0
C      1  0.4804880000000  0.4506800000000  0.5651000000000 1.0
C      1  0.4477920000000  0.4845720000000  0.5693180000000 1.0
C      1  0.4580630000000  0.5298210000000  0.5641820000000 1.0
C      1  0.4966670000000  0.5563490000000  0.5702110000000 1.0
C      1  0.5405780000000  0.5385000000000  0.5692080000000 1.0
C      1  0.5524580000000  0.4924690000000  0.5670370000000 1.0
C      1  0.5278440000000  0.4518440000000  0.5696870000000 1.0
C      1  0.4900230000000  0.4935190000000  0.5109660000000 1.0
C      1  0.4989410000000  0.4991070000000  0.4726110000000 1.0
END
