TITL C-3577081-279-459 -7.83198767717737e-07 125000 -367.567268643131 0 0 60 (D2) n - 1
REM
REM in /home/bkarasulu/work/CARBON/AIRSS/Generating-Clusters/EDIP-Nigel-Params/with-SteepDescent/Higher-Symm/SD-CG/HFTN-CG
REM
REM
REM
REM
REM
REM ./C.cell (12c818d87b63d06a65506943cc24bca4)
REM
REM compiler GCC version 9.2.1 20190827 (Red Hat 9.2.1-1)
REM options -cpp -mtune=generic -march=x86-64 -g -O0 -fpre-include=/usr/include/finclude/math-vector-fortran.h
REM seed 59057098 -843536833 -1742404732 -482192375 2011467414 -1307747504 -51628051 903375329 -237184470 2055597872 969598845 -1902511591 -1800068963 2125282484 -1030549241 -1246345685 2042684513 -1291651163 1770541282 535880813 -611360260 -654397053 219278876 1835771506 -1228484890 -1099140466 250230400 888192926 -1705923704 2006770907 1645684157 -163401502 -2084988768
REM
CELL 1.54180   50.00000   50.00000   50.00000   90.00000   90.00000   90.00000
LATT -1
SFAC C  
C      1  0.4260820000000  0.4886750000000  0.4895910000000 1.0
C      1  0.4895910000000  0.5736910000000  0.4892300000000 1.0
C      1  0.5738670000000  0.5114150000000  0.4892740000000 1.0
C      1  0.5103550000000  0.4264050000000  0.4884020000000 1.0
C      1  0.4265420000000  0.5113990000000  0.5075760000000 1.0
C      1  0.4875870000000  0.4262360000000  0.5063370000000 1.0
C      1  0.5735130000000  0.4885050000000  0.5070240000000 1.0
C      1  0.5124640000000  0.5736740000000  0.5070310000000 1.0
C      1  0.4712060000000  0.5344280000000  0.5362060000000 1.0
C      1  0.5338340000000  0.5276180000000  0.5417590000000 1.0
C      1  0.5290170000000  0.4651780000000  0.5356750000000 1.0
C      1  0.4664230000000  0.4719270000000  0.5416670000000 1.0
C      1  0.4715410000000  0.4669290000000  0.4543140000000 1.0
C      1  0.5340920000000  0.4707940000000  0.4599220000000 1.0
C      1  0.5282020000000  0.5335260000000  0.4544930000000 1.0
C      1  0.4656850000000  0.5296000000000  0.4604300000000 1.0
C      1  0.5388720000000  0.5742900000000  0.4984550000000 1.0
C      1  0.5736880000000  0.4619820000000  0.4982110000000 1.0
C      1  0.4611290000000  0.4257090000000  0.4979110000000 1.0
C      1  0.4263150000000  0.5380130000000  0.4990410000000 1.0
C      1  0.5369440000000  0.4257750000000  0.4969950000000 1.0
C      1  0.5748460000000  0.5377920000000  0.4979100000000 1.0
C      1  0.4630530000000  0.5742310000000  0.4979850000000 1.0
C      1  0.4251540000000  0.4622090000000  0.4979570000000 1.0
C      1  0.5590110000000  0.4818770000000  0.4548430000000 1.0
C      1  0.4811550000000  0.4409490000000  0.4523320000000 1.0
C      1  0.4407360000000  0.5185700000000  0.4553820000000 1.0
C      1  0.5185770000000  0.5595240000000  0.4528390000000 1.0
C      1  0.5596860000000  0.5176140000000  0.5434490000000 1.0
C      1  0.4826370000000  0.5591730000000  0.5413650000000 1.0
C      1  0.4405810000000  0.4819130000000  0.5436140000000 1.0
C      1  0.5176160000000  0.4403800000000  0.5406430000000 1.0
C      1  0.4834630000000  0.4852770000000  0.5223850000000 1.0
C      1  0.4850750000000  0.5162250000000  0.5159010000000 1.0
C      1  0.5166800000000  0.5144690000000  0.5224390000000 1.0
C      1  0.5150290000000  0.4835900000000  0.5156430000000 1.0
C      1  0.4838490000000  0.5153040000000  0.4804710000000 1.0
C      1  0.4850930000000  0.4837310000000  0.4736630000000 1.0
C      1  0.5160470000000  0.4848800000000  0.4802180000000 1.0
C      1  0.5147630000000  0.5165220000000  0.4737460000000 1.0
C      1  0.5684760000000  0.4924380000000  0.5351790000000 1.0
C      1  0.4921910000000  0.4310540000000  0.5343750000000 1.0
C      1  0.4317440000000  0.5071730000000  0.5356590000000 1.0
C      1  0.5080250000000  0.5685640000000  0.5350440000000 1.0
C      1  0.5687550000000  0.5071120000000  0.4612400000000 1.0
C      1  0.4935130000000  0.5686590000000  0.4610720000000 1.0
C      1  0.4310290000000  0.4932700000000  0.4615740000000 1.0
C      1  0.5062670000000  0.4317300000000  0.4603220000000 1.0
C      1  0.4461490000000  0.5282300000000  0.5467940000000 1.0
C      1  0.5287600000000  0.5544480000000  0.5473620000000 1.0
C      1  0.5541360000000  0.4712660000000  0.5461790000000 1.0
C      1  0.4715290000000  0.4450410000000  0.5469610000000 1.0
C      1  0.4447430000000  0.4724350000000  0.4489730000000 1.0
C      1  0.5275550000000  0.4458520000000  0.4492650000000 1.0
C      1  0.5549680000000  0.5280760000000  0.4489380000000 1.0
C      1  0.4721600000000  0.5546520000000  0.4499950000000 1.0
C      1  0.4393580000000  0.5615260000000  0.4985570000000 1.0
C      1  0.5622100000000  0.5613150000000  0.4981940000000 1.0
C      1  0.5606420000000  0.4384740000000  0.4975590000000 1.0
C      1  0.4377900000000  0.4386850000000  0.4979220000000 1.0
END
