TITL C-3578194-7807-522 -6.6016240465831e-06 125000 -1005.56555027458 0 0 160 (C1) n - 1
REM
REM in /home/bkarasulu/work/CARBON/AIRSS/Generating-Clusters/EDIP-Nigel-Params/with-SteepDescent/Higher-Symm/SD-CG/HFTN-CG
REM
REM
REM
REM
REM
REM ./C.cell (12c818d87b63d06a65506943cc24bca4)
REM
REM compiler GCC version 9.2.1 20190827 (Red Hat 9.2.1-1)
REM options -cpp -mtune=generic -march=x86-64 -g -O0 -fpre-include=/usr/include/finclude/math-vector-fortran.h
REM seed -1690894782 244634337 722347422 -136433802 1112066246 380467938 948512896 -965320922 -300815437 116918098 -699079039 -1734337475 -668881171 -693791500 836052840 817777586 1226807845 -768251889 -1629183837 -629261892 -1138220258 900100438 -23573636 152613553 -1725715086 1876105164 238156105 -1023898795 -1581763224 -591596787 -1114782227 -253164154 -155377097
REM
CELL 1.54180   50.00000   50.00000   50.00000   90.00000   90.00000   90.00000
LATT -1
SFAC C  
C      1  0.4784950000000  0.5190020000000  0.3931930000000 1.0
C      1  0.5213910000000  0.3899980000000  0.4779460000000 1.0
C      1  0.3953090000000  0.4804050000000  0.5200130000000 1.0
C      1  0.5228980000000  0.4792060000000  0.3932530000000 1.0
C      1  0.4793460000000  0.4807500000000  0.6036120000000 1.0
C      1  0.5190590000000  0.5196760000000  0.5970730000000 1.0
C      1  0.4804660000000  0.6028460000000  0.4802940000000 1.0
C      1  0.5188440000000  0.5964500000000  0.5175120000000 1.0
C      1  0.4798520000000  0.3907950000000  0.5194480000000 1.0
C      1  0.5981660000000  0.5189160000000  0.5197250000000 1.0
C      1  0.4023240000000  0.5175190000000  0.4833090000000 1.0
C      1  0.6076540000000  0.4789890000000  0.4807520000000 1.0
C      1  0.4601860000000  0.5849550000000  0.5641090000000 1.0
C      1  0.5844730000000  0.5632580000000  0.4589160000000 1.0
C      1  0.5616510000000  0.4583840000000  0.5819510000000 1.0
C      1  0.5382190000000  0.4178210000000  0.5587240000000 1.0
C      1  0.4552420000000  0.4140430000000  0.4357500000000 1.0
C      1  0.5389790000000  0.5817190000000  0.4385170000000 1.0
C      1  0.4167070000000  0.4376660000000  0.4613000000000 1.0
C      1  0.5830740000000  0.4376990000000  0.5380800000000 1.0
C      1  0.4140910000000  0.5673960000000  0.5467050000000 1.0
C      1  0.4387990000000  0.5399750000000  0.5828240000000 1.0
C      1  0.5624980000000  0.5404310000000  0.4171700000000 1.0
C      1  0.4377390000000  0.4590980000000  0.4171750000000 1.0
C      1  0.5358210000000  0.5546090000000  0.4257940000000 1.0
C      1  0.5591180000000  0.4195180000000  0.5358700000000 1.0
C      1  0.4193040000000  0.5409490000000  0.5608990000000 1.0
C      1  0.4590470000000  0.4377390000000  0.4177130000000 1.0
C      1  0.5380100000000  0.4384370000000  0.5802850000000 1.0
C      1  0.4620580000000  0.5600680000000  0.5819170000000 1.0
C      1  0.4369660000000  0.5872450000000  0.5443650000000 1.0
C      1  0.5589320000000  0.5806380000000  0.4619340000000 1.0
C      1  0.4362550000000  0.4147940000000  0.4599930000000 1.0
C      1  0.5806230000000  0.4611580000000  0.5577830000000 1.0
C      1  0.4198420000000  0.4616630000000  0.4416750000000 1.0
C      1  0.5846290000000  0.5405430000000  0.4378710000000 1.0
C      1  0.3956850000000  0.4715240000000  0.4920700000000 1.0
C      1  0.4721690000000  0.4904720000000  0.3950560000000 1.0
C      1  0.4925520000000  0.3928090000000  0.4705290000000 1.0
C      1  0.6053970000000  0.5283670000000  0.4932090000000 1.0
C      1  0.3933040000000  0.5294190000000  0.5086800000000 1.0
C      1  0.6064920000000  0.4715300000000  0.5091520000000 1.0
C      1  0.5290610000000  0.5077270000000  0.3959890000000 1.0
C      1  0.4718340000000  0.5090870000000  0.6044420000000 1.0
C      1  0.5279750000000  0.4925830000000  0.6025870000000 1.0
C      1  0.5081910000000  0.6043640000000  0.4712470000000 1.0
C      1  0.4932280000000  0.6056970000000  0.5282430000000 1.0
C      1  0.5078120000000  0.3969300000000  0.5249360000000 1.0
C      1  0.5854780000000  0.5099770000000  0.4526970000000 1.0
C      1  0.5098470000000  0.4535170000000  0.5800000000000 1.0
C      1  0.4496730000000  0.5886340000000  0.5125460000000 1.0
C      1  0.4044920000000  0.4894610000000  0.4455010000000 1.0
C      1  0.5969390000000  0.4885920000000  0.5553920000000 1.0
C      1  0.4083820000000  0.5120120000000  0.5522850000000 1.0
C      1  0.4895130000000  0.5556640000000  0.5968530000000 1.0
C      1  0.5090740000000  0.5507310000000  0.4107780000000 1.0
C      1  0.4917030000000  0.4519520000000  0.4183740000000 1.0
C      1  0.5558300000000  0.4032600000000  0.5092840000000 1.0
C      1  0.4514440000000  0.4135680000000  0.4887510000000 1.0
C      1  0.5555040000000  0.5971250000000  0.4886190000000 1.0
C      1  0.4623600000000  0.4643710000000  0.5854730000000 1.0
C      1  0.4628890000000  0.5854350000000  0.4640840000000 1.0
C      1  0.5911890000000  0.4608000000000  0.4630480000000 1.0
C      1  0.5374330000000  0.5350370000000  0.5662450000000 1.0
C      1  0.4605630000000  0.5360480000000  0.4104640000000 1.0
C      1  0.5406910000000  0.4619800000000  0.4105530000000 1.0
C      1  0.5338750000000  0.4159340000000  0.4683710000000 1.0
C      1  0.4619700000000  0.4080880000000  0.5364940000000 1.0
C      1  0.5348870000000  0.5667600000000  0.5367620000000 1.0
C      1  0.4176440000000  0.5365160000000  0.4645040000000 1.0
C      1  0.5675680000000  0.5378980000000  0.5348660000000 1.0
C      1  0.4119890000000  0.4633050000000  0.5375520000000 1.0
C      1  0.5800290000000  0.4812210000000  0.4432480000000 1.0
C      1  0.4815020000000  0.4423900000000  0.5762240000000 1.0
C      1  0.4398050000000  0.5820200000000  0.4838410000000 1.0
C      1  0.4169410000000  0.5169270000000  0.4385860000000 1.0
C      1  0.5837780000000  0.5148410000000  0.5608840000000 1.0
C      1  0.4216480000000  0.4848860000000  0.5560290000000 1.0
C      1  0.5154190000000  0.5613060000000  0.5833830000000 1.0
C      1  0.4819590000000  0.5547390000000  0.4222640000000 1.0
C      1  0.5203180000000  0.4445670000000  0.4254930000000 1.0
C      1  0.5637170000000  0.4149600000000  0.4816630000000 1.0
C      1  0.4401020000000  0.4174430000000  0.5172390000000 1.0
C      1  0.5609230000000  0.5840700000000  0.5149340000000 1.0
C      1  0.5062260000000  0.5253590000000  0.3985200000000 1.0
C      1  0.5294750000000  0.3887610000000  0.5066270000000 1.0
C      1  0.3909970000000  0.5085920000000  0.5289590000000 1.0
C      1  0.4946410000000  0.4720830000000  0.3974030000000 1.0
C      1  0.5073270000000  0.4724440000000  0.6024060000000 1.0
C      1  0.4935150000000  0.5288290000000  0.6082380000000 1.0
C      1  0.4722080000000  0.6073260000000  0.5081230000000 1.0
C      1  0.5284560000000  0.6082090000000  0.4925220000000 1.0
C      1  0.4716640000000  0.3919490000000  0.4911700000000 1.0
C      1  0.6091950000000  0.4932740000000  0.5290200000000 1.0
C      1  0.3912910000000  0.4925840000000  0.4719240000000 1.0
C      1  0.6066000000000  0.5074850000000  0.4728480000000 1.0
C      1  0.4965130000000  0.4940110000000  0.5439090000000 1.0
C      1  0.4876100000000  0.5461510000000  0.4980710000000 1.0
C      1  0.5434210000000  0.4984500000000  0.4930740000000 1.0
C      1  0.5083400000000  0.5201620000000  0.5596770000000 1.0
C      1  0.5009880000000  0.5111190000000  0.4665800000000 1.0
C      1  0.5027020000000  0.4822430000000  0.4663560000000 1.0
C      1  0.5226240000000  0.4378950000000  0.4868420000000 1.0
C      1  0.4952550000000  0.4485180000000  0.5012840000000 1.0
C      1  0.5178900000000  0.5581770000000  0.5095560000000 1.0
C      1  0.4401160000000  0.5092820000000  0.4812920000000 1.0
C      1  0.5601890000000  0.5101590000000  0.5185530000000 1.0
C      1  0.4537650000000  0.5032690000000  0.5073770000000 1.0
C      1  0.5104470000000  0.5824160000000  0.4508650000000 1.0
C      1  0.5842190000000  0.4517660000000  0.5111650000000 1.0
C      1  0.4511550000000  0.5120670000000  0.5831520000000 1.0
C      1  0.4894870000000  0.4137620000000  0.4485240000000 1.0
C      1  0.5101710000000  0.4179800000000  0.5455780000000 1.0
C      1  0.4883750000000  0.5856520000000  0.5498810000000 1.0
C      1  0.4118460000000  0.5530450000000  0.5130040000000 1.0
C      1  0.5852120000000  0.5501480000000  0.4881590000000 1.0
C      1  0.4173920000000  0.4505660000000  0.4895210000000 1.0
C      1  0.5491160000000  0.4876320000000  0.5821490000000 1.0
C      1  0.4511210000000  0.4869570000000  0.4160280000000 1.0
C      1  0.5510530000000  0.5108080000000  0.4161930000000 1.0
C      1  0.5578370000000  0.5128950000000  0.4674070000000 1.0
C      1  0.5130620000000  0.4690040000000  0.5526410000000 1.0
C      1  0.4625620000000  0.5601580000000  0.5152570000000 1.0
C      1  0.4422930000000  0.4836540000000  0.4647710000000 1.0
C      1  0.5593400000000  0.4841590000000  0.5348050000000 1.0
C      1  0.4423310000000  0.5150970000000  0.5331510000000 1.0
C      1  0.4828320000000  0.5376120000000  0.5580000000000 1.0
C      1  0.5143880000000  0.5300640000000  0.4484740000000 1.0
C      1  0.4860370000000  0.4667830000000  0.4467380000000 1.0
C      1  0.5375210000000  0.4428240000000  0.5133210000000 1.0
C      1  0.4665090000000  0.4408180000000  0.4860810000000 1.0
C      1  0.5361290000000  0.5583500000000  0.4846390000000 1.0
C      1  0.4812520000000  0.5777490000000  0.4405170000000 1.0
C      1  0.5801920000000  0.4400540000000  0.4834650000000 1.0
C      1  0.4401680000000  0.4840530000000  0.5782730000000 1.0
C      1  0.5195600000000  0.4197560000000  0.4405960000000 1.0
C      1  0.4814520000000  0.4232370000000  0.5543340000000 1.0
C      1  0.5165660000000  0.5778330000000  0.5600260000000 1.0
C      1  0.4183370000000  0.5620560000000  0.4836420000000 1.0
C      1  0.5780540000000  0.5610470000000  0.5163070000000 1.0
C      1  0.4234880000000  0.4419520000000  0.5186830000000 1.0
C      1  0.5599930000000  0.5158320000000  0.5766800000000 1.0
C      1  0.4400390000000  0.5149880000000  0.4203190000000 1.0
C      1  0.5625780000000  0.4818630000000  0.4194570000000 1.0
C      1  0.4838710000000  0.5590640000000  0.5369740000000 1.0
C      1  0.5582940000000  0.5381740000000  0.4840370000000 1.0
C      1  0.5380140000000  0.4841440000000  0.5547950000000 1.0
C      1  0.5127710000000  0.4456020000000  0.5315820000000 1.0
C      1  0.4797500000000  0.4407740000000  0.4603040000000 1.0
C      1  0.5149770000000  0.5555950000000  0.4649200000000 1.0
C      1  0.4448680000000  0.4623450000000  0.4856120000000 1.0
C      1  0.5568390000000  0.4658640000000  0.5110620000000 1.0
C      1  0.4395550000000  0.5425470000000  0.5215590000000 1.0
C      1  0.4645350000000  0.5132340000000  0.5549910000000 1.0
C      1  0.5392390000000  0.5146850000000  0.4443540000000 1.0
C      1  0.4630140000000  0.4846790000000  0.4433510000000 1.0
C      1  0.5187830000000  0.5193910000000  0.4898120000000 1.0
C      1  0.5028950000000  0.4989850000000  0.5125400000000 1.0
C      1  0.4799910000000  0.5175650000000  0.5101790000000 1.0
C      1  0.4969400000000  0.4764890000000  0.4942310000000 1.0
END
