TITL C-3577088-510-231 -1.29653198090042e-05 125000 -1196.8245701367 0 0 189 (C1) n - 1
REM
REM in /home/bkarasulu/work/CARBON/AIRSS/Generating-Clusters/EDIP-Nigel-Params/with-SteepDescent/Higher-Symm/SD-CG/HFTN-CG
REM
REM
REM
REM
REM
REM ./C.cell (12c818d87b63d06a65506943cc24bca4)
REM
REM compiler GCC version 9.2.1 20190827 (Red Hat 9.2.1-1)
REM options -cpp -mtune=generic -march=x86-64 -g -O0 -fpre-include=/usr/include/finclude/math-vector-fortran.h
REM seed -1049125290 -134223081 521020402 -2075663300 1274070261 2139909757 484459312 -669315145 665404830 406588672 864859105 1017031205 -1180816696 -1081132262 1089044637 -446933527 819500575 -1276382398 -1041812583 -23011813 453512738 -176246019 -37453073 -220992001 344486516 -842240699 391116941 491013922 1194402678 538465203 -1977480901 2099733227 -675895929
REM
CELL 1.54180   50.00000   50.00000   50.00000   90.00000   90.00000   90.00000
LATT -1
SFAC C  
C      1  0.4882480000000  0.5026640000000  0.5402390000000 1.0
C      1  0.4867150000000  0.4604740000000  0.4701240000000 1.0
C      1  0.4953240000000  0.5352350000000  0.4784050000000 1.0
C      1  0.5420430000000  0.5096550000000  0.5531400000000 1.0
C      1  0.5079900000000  0.4623860000000  0.4481760000000 1.0
C      1  0.5234140000000  0.5367650000000  0.4862840000000 1.0
C      1  0.4843000000000  0.5099250000000  0.4707240000000 1.0
C      1  0.4882050000000  0.4678310000000  0.4999740000000 1.0
C      1  0.5014580000000  0.5269060000000  0.5314060000000 1.0
C      1  0.5009640000000  0.5059960000000  0.4457540000000 1.0
C      1  0.5031670000000  0.4523810000000  0.5220940000000 1.0
C      1  0.5256640000000  0.5345030000000  0.5456180000000 1.0
C      1  0.5622830000000  0.4401240000000  0.5628480000000 1.0
C      1  0.5709370000000  0.4727460000000  0.4061230000000 1.0
C      1  0.5702920000000  0.5893680000000  0.5253810000000 1.0
C      1  0.4310120000000  0.4297520000000  0.5603360000000 1.0
C      1  0.4311700000000  0.4835570000000  0.4084090000000 1.0
C      1  0.4332750000000  0.5763170000000  0.5331120000000 1.0
C      1  0.5665610000000  0.4321360000000  0.4416550000000 1.0
C      1  0.5692790000000  0.4921770000000  0.5899810000000 1.0
C      1  0.5602940000000  0.5772850000000  0.4728640000000 1.0
C      1  0.4410170000000  0.4379200000000  0.4388290000000 1.0
C      1  0.4316890000000  0.4757000000000  0.5897400000000 1.0
C      1  0.4414280000000  0.5655960000000  0.4755120000000 1.0
C      1  0.5648930000000  0.5233190000000  0.4324290000000 1.0
C      1  0.5618210000000  0.5675450000000  0.5430860000000 1.0
C      1  0.5508290000000  0.4368970000000  0.5354960000000 1.0
C      1  0.4446030000000  0.5226400000000  0.4346020000000 1.0
C      1  0.4586450000000  0.5495380000000  0.5416410000000 1.0
C      1  0.4510670000000  0.4322550000000  0.5213000000000 1.0
C      1  0.5612200000000  0.5184700000000  0.5773460000000 1.0
C      1  0.5560100000000  0.5428720000000  0.4552100000000 1.0
C      1  0.5438770000000  0.4454320000000  0.4776530000000 1.0
C      1  0.4361210000000  0.5222990000000  0.5671620000000 1.0
C      1  0.4577890000000  0.5428500000000  0.4565280000000 1.0
C      1  0.4467470000000  0.4382630000000  0.4900370000000 1.0
C      1  0.5367620000000  0.5563150000000  0.4118130000000 1.0
C      1  0.5458370000000  0.5374040000000  0.5969190000000 1.0
C      1  0.5331610000000  0.3936370000000  0.4887730000000 1.0
C      1  0.4658750000000  0.5587690000000  0.4117550000000 1.0
C      1  0.4521530000000  0.5315370000000  0.5904720000000 1.0
C      1  0.4613730000000  0.3914140000000  0.4813490000000 1.0
C      1  0.5429520000000  0.5664840000000  0.5911100000000 1.0
C      1  0.5472370000000  0.5292280000000  0.4082040000000 1.0
C      1  0.5338920000000  0.3919810000000  0.5175060000000 1.0
C      1  0.4601080000000  0.5598520000000  0.5914750000000 1.0
C      1  0.4580690000000  0.5307600000000  0.4080780000000 1.0
C      1  0.4628760000000  0.3857010000000  0.5115520000000 1.0
C      1  0.3979250000000  0.4733830000000  0.4855140000000 1.0
C      1  0.3878150000000  0.5219640000000  0.4864900000000 1.0
C      1  0.3907120000000  0.4963820000000  0.5294880000000 1.0
C      1  0.6028330000000  0.4766690000000  0.4857510000000 1.0
C      1  0.6064270000000  0.5260590000000  0.4831870000000 1.0
C      1  0.6064840000000  0.5037750000000  0.5274650000000 1.0
C      1  0.3951370000000  0.4723080000000  0.5139760000000 1.0
C      1  0.3883520000000  0.5217060000000  0.5156260000000 1.0
C      1  0.3952600000000  0.4982270000000  0.4717180000000 1.0
C      1  0.6038640000000  0.4777590000000  0.5145000000000 1.0
C      1  0.5963010000000  0.5273870000000  0.5112860000000 1.0
C      1  0.6058260000000  0.5003170000000  0.4694540000000 1.0
C      1  0.4815040000000  0.4684330000000  0.5930640000000 1.0
C      1  0.4822840000000  0.4347100000000  0.4184610000000 1.0
C      1  0.4776830000000  0.5972500000000  0.4730390000000 1.0
C      1  0.5300820000000  0.4824980000000  0.6171320000000 1.0
C      1  0.5278870000000  0.4150080000000  0.4260390000000 1.0
C      1  0.5229640000000  0.6041400000000  0.4701390000000 1.0
C      1  0.4732160000000  0.4774590000000  0.3832720000000 1.0
C      1  0.4714860000000  0.4150190000000  0.5734790000000 1.0
C      1  0.4752250000000  0.6013430000000  0.5371430000000 1.0
C      1  0.5202580000000  0.4633260000000  0.3988210000000 1.0
C      1  0.5150180000000  0.4388150000000  0.5734750000000 1.0
C      1  0.5235930000000  0.6050850000000  0.5288250000000 1.0
C      1  0.4577000000000  0.4663700000000  0.4590150000000 1.0
C      1  0.4745670000000  0.5477220000000  0.4947250000000 1.0
C      1  0.4499260000000  0.4936960000000  0.5605770000000 1.0
C      1  0.5382550000000  0.4583020000000  0.4476680000000 1.0
C      1  0.5331450000000  0.5627180000000  0.4967840000000 1.0
C      1  0.5278850000000  0.4811760000000  0.5591380000000 1.0
C      1  0.4560010000000  0.4558780000000  0.5437090000000 1.0
C      1  0.4843450000000  0.5499510000000  0.5232570000000 1.0
C      1  0.4556000000000  0.4910450000000  0.4376210000000 1.0
C      1  0.5317600000000  0.4622370000000  0.5326600000000 1.0
C      1  0.5462630000000  0.5490200000000  0.5242690000000 1.0
C      1  0.5481830000000  0.4895660000000  0.4395770000000 1.0
C      1  0.4031800000000  0.4480160000000  0.5271000000000 1.0
C      1  0.4021170000000  0.4997760000000  0.4434430000000 1.0
C      1  0.3922470000000  0.5467540000000  0.5305180000000 1.0
C      1  0.5949510000000  0.4544310000000  0.5296750000000 1.0
C      1  0.6010540000000  0.4988280000000  0.4401230000000 1.0
C      1  0.6032490000000  0.5531700000000  0.5250680000000 1.0
C      1  0.4084780000000  0.4505810000000  0.4720080000000 1.0
C      1  0.3978620000000  0.4964060000000  0.5580450000000 1.0
C      1  0.3953200000000  0.5472520000000  0.4741100000000 1.0
C      1  0.5942030000000  0.4516780000000  0.4735020000000 1.0
C      1  0.6025330000000  0.5058090000000  0.5569850000000 1.0
C      1  0.5985620000000  0.5481800000000  0.4667280000000 1.0
C      1  0.5119730000000  0.4123310000000  0.4490490000000 1.0
C      1  0.5173370000000  0.5850170000000  0.4487830000000 1.0
C      1  0.5127020000000  0.5020300000000  0.6069570000000 1.0
C      1  0.4845180000000  0.4188300000000  0.4432840000000 1.0
C      1  0.4885410000000  0.5833400000000  0.4498610000000 1.0
C      1  0.4860620000000  0.4951280000000  0.6004860000000 1.0
C      1  0.5127290000000  0.4168790000000  0.5552060000000 1.0
C      1  0.5194030000000  0.5929730000000  0.5550640000000 1.0
C      1  0.5189390000000  0.4915140000000  0.3917340000000 1.0
C      1  0.4859370000000  0.4089220000000  0.5505360000000 1.0
C      1  0.4896410000000  0.5891280000000  0.5604830000000 1.0
C      1  0.4912910000000  0.4991540000000  0.3831240000000 1.0
C      1  0.5878900000000  0.4747970000000  0.4288360000000 1.0
C      1  0.5926890000000  0.5764720000000  0.5094160000000 1.0
C      1  0.5852100000000  0.4581180000000  0.5571880000000 1.0
C      1  0.4145040000000  0.4773140000000  0.4306980000000 1.0
C      1  0.4115750000000  0.5648920000000  0.5178050000000 1.0
C      1  0.4132710000000  0.4498570000000  0.5533130000000 1.0
C      1  0.5909220000000  0.4825490000000  0.5721650000000 1.0
C      1  0.5880020000000  0.5722670000000  0.4801930000000 1.0
C      1  0.5862130000000  0.4518270000000  0.4459060000000 1.0
C      1  0.4119240000000  0.4733750000000  0.5690260000000 1.0
C      1  0.4163910000000  0.5590140000000  0.4898080000000 1.0
C      1  0.4178830000000  0.4527060000000  0.4451050000000 1.0
C      1  0.5416780000000  0.4469060000000  0.5826380000000 1.0
C      1  0.5482070000000  0.4550440000000  0.4051000000000 1.0
C      1  0.5473940000000  0.6016950000000  0.5124300000000 1.0
C      1  0.4505500000000  0.4317020000000  0.5799730000000 1.0
C      1  0.4530560000000  0.4677310000000  0.4003020000000 1.0
C      1  0.4561890000000  0.5875920000000  0.5196490000000 1.0
C      1  0.5508310000000  0.4289160000000  0.4185360000000 1.0
C      1  0.5449300000000  0.4750430000000  0.5933910000000 1.0
C      1  0.5480350000000  0.6018880000000  0.4830300000000 1.0
C      1  0.4552970000000  0.4425580000000  0.4145080000000 1.0
C      1  0.4551180000000  0.4591960000000  0.5875980000000 1.0
C      1  0.4566020000000  0.5870970000000  0.4895590000000 1.0
C      1  0.4696340000000  0.4200370000000  0.4766090000000 1.0
C      1  0.4791100000000  0.5565750000000  0.4390410000000 1.0
C      1  0.4764870000000  0.5145500000000  0.5807010000000 1.0
C      1  0.5211520000000  0.4189190000000  0.4779460000000 1.0
C      1  0.5292820000000  0.5567700000000  0.4407360000000 1.0
C      1  0.5175050000000  0.5296850000000  0.5989250000000 1.0
C      1  0.4748330000000  0.4114790000000  0.5220280000000 1.0
C      1  0.4785180000000  0.5603360000000  0.5679000000000 1.0
C      1  0.4851790000000  0.5168580000000  0.4069610000000 1.0
C      1  0.5313620000000  0.4151000000000  0.5336310000000 1.0
C      1  0.5396610000000  0.5729060000000  0.5629670000000 1.0
C      1  0.5280300000000  0.5062530000000  0.4169400000000 1.0
C      1  0.4606970000000  0.4741550000000  0.5111280000000 1.0
C      1  0.4552070000000  0.5057040000000  0.4784190000000 1.0
C      1  0.4477910000000  0.5243860000000  0.5248320000000 1.0
C      1  0.5420760000000  0.4817680000000  0.5146530000000 1.0
C      1  0.5451180000000  0.4965720000000  0.4686460000000 1.0
C      1  0.5638330000000  0.5261430000000  0.5099790000000 1.0
C      1  0.4418880000000  0.4765220000000  0.4851020000000 1.0
C      1  0.4607330000000  0.4985730000000  0.5321850000000 1.0
C      1  0.4487410000000  0.5301620000000  0.4953110000000 1.0
C      1  0.5433770000000  0.4751710000000  0.4875960000000 1.0
C      1  0.5547870000000  0.5038690000000  0.5268650000000 1.0
C      1  0.5487490000000  0.5240870000000  0.4785220000000 1.0
C      1  0.5240700000000  0.5803920000000  0.6081480000000 1.0
C      1  0.5098720000000  0.3629110000000  0.5104120000000 1.0
C      1  0.5090840000000  0.5538710000000  0.3689310000000 1.0
C      1  0.4709170000000  0.5693030000000  0.6150910000000 1.0
C      1  0.4813310000000  0.3607780000000  0.5057190000000 1.0
C      1  0.4817160000000  0.5562010000000  0.3646930000000 1.0
C      1  0.5194450000000  0.5670210000000  0.3916310000000 1.0
C      1  0.5180360000000  0.3695840000000  0.4829560000000 1.0
C      1  0.5164930000000  0.5727900000000  0.6336590000000 1.0
C      1  0.4806280000000  0.5711650000000  0.3893800000000 1.0
C      1  0.4806830000000  0.3686610000000  0.4755650000000 1.0
C      1  0.4910820000000  0.5824360000000  0.6281260000000 1.0
C      1  0.4109440000000  0.4252990000000  0.4850390000000 1.0
C      1  0.4016200000000  0.5457150000000  0.4469500000000 1.0
C      1  0.4065990000000  0.5220200000000  0.5698310000000 1.0
C      1  0.5728000000000  0.4360040000000  0.4872340000000 1.0
C      1  0.6054940000000  0.5470270000000  0.4395130000000 1.0
C      1  0.5868700000000  0.5292180000000  0.5659460000000 1.0
C      1  0.4139020000000  0.4252130000000  0.5132540000000 1.0
C      1  0.3932340000000  0.5439510000000  0.5584150000000 1.0
C      1  0.4138300000000  0.5246770000000  0.4336600000000 1.0
C      1  0.5754380000000  0.4360660000000  0.5169020000000 1.0
C      1  0.5877070000000  0.5539820000000  0.5504070000000 1.0
C      1  0.5944050000000  0.5244300000000  0.4270710000000 1.0
C      1  0.4883380000000  0.4532880000000  0.5496660000000 1.0
C      1  0.5052470000000  0.5767260000000  0.4903950000000 1.0
C      1  0.4990210000000  0.5768440000000  0.5197350000000 1.0
C      1  0.4979100000000  0.4607250000000  0.4199410000000 1.0
C      1  0.4830690000000  0.4917280000000  0.4259910000000 1.0
C      1  0.4976110000000  0.4817470000000  0.5604600000000 1.0
C      1  0.4997490000000  0.5366540000000  0.5742070000000 1.0
C      1  0.5040950000000  0.5374710000000  0.4351950000000 1.0
C      1  0.4949900000000  0.4252820000000  0.4956430000000 1.0
END
