TITL C-3577080-309-586 -3.23042551219455e-07 125000 -274.103809459506 0 0 47 (C1) n - 1
REM
REM in /home/bkarasulu/work/CARBON/AIRSS/Generating-Clusters/EDIP-Nigel-Params/with-SteepDescent/Higher-Symm/SD-CG/HFTN-CG
REM
REM
REM
REM
REM
REM ./C.cell (12c818d87b63d06a65506943cc24bca4)
REM
REM compiler GCC version 9.2.1 20190827 (Red Hat 9.2.1-1)
REM options -cpp -mtune=generic -march=x86-64 -g -O0 -fpre-include=/usr/include/finclude/math-vector-fortran.h
REM seed -1504855632 1565360491 2050387030 -1743248288 -1828702454 556447090 1142537372 887220705 -1348609645 958782499 -737427941 677995428 233949206 -1150383550 -2048273418 2022085492 -1971801910 20107641 -1440391532 495004042 374081767 367535187 -1140653281 1107093923 -282304215 441692843 -74126290 632775286 1285094328 498578332 598399853 -954710812 219479312
REM
CELL 1.54180   50.00000   50.00000   50.00000   90.00000   90.00000   90.00000
LATT -1
SFAC C  
C      1  0.5084720000000  0.4459440000000  0.4660690000000 1.0
C      1  0.5028360000000  0.5334620000000  0.4677170000000 1.0
C      1  0.4995780000000  0.5440810000000  0.5175930000000 1.0
C      1  0.4942290000000  0.4710350000000  0.5528760000000 1.0
C      1  0.5365960000000  0.4764070000000  0.5112320000000 1.0
C      1  0.4549800000000  0.4963550000000  0.4784150000000 1.0
C      1  0.5524460000000  0.5206830000000  0.4959190000000 1.0
C      1  0.4609000000000  0.5088530000000  0.5270770000000 1.0
C      1  0.5620410000000  0.5034250000000  0.5429840000000 1.0
C      1  0.4483360000000  0.4585170000000  0.5056660000000 1.0
C      1  0.5566170000000  0.4899150000000  0.4608060000000 1.0
C      1  0.4338260000000  0.5399270000000  0.5004760000000 1.0
C      1  0.5486160000000  0.5345240000000  0.4503970000000 1.0
C      1  0.4569890000000  0.5553890000000  0.5383500000000 1.0
C      1  0.5413580000000  0.4630820000000  0.5575380000000 1.0
C      1  0.4606420000000  0.4509990000000  0.4609050000000 1.0
C      1  0.4421680000000  0.5149350000000  0.4589070000000 1.0
C      1  0.5613430000000  0.5433290000000  0.5129350000000 1.0
C      1  0.4534810000000  0.4870250000000  0.5457070000000 1.0
C      1  0.5430120000000  0.4548760000000  0.4922050000000 1.0
C      1  0.4449700000000  0.4675140000000  0.4778470000000 1.0
C      1  0.5635750000000  0.5179290000000  0.4676420000000 1.0
C      1  0.4432090000000  0.5332620000000  0.5272370000000 1.0
C      1  0.5540220000000  0.4763810000000  0.5358460000000 1.0
C      1  0.4824260000000  0.4439590000000  0.4772410000000 1.0
C      1  0.5234590000000  0.5213640000000  0.4492780000000 1.0
C      1  0.4754810000000  0.5618950000000  0.5178760000000 1.0
C      1  0.5194170000000  0.4800900000000  0.5629700000000 1.0
C      1  0.5280720000000  0.4926220000000  0.4537870000000 1.0
C      1  0.4618420000000  0.5638820000000  0.4923810000000 1.0
C      1  0.5276750000000  0.5075070000000  0.5584400000000 1.0
C      1  0.4765600000000  0.4507940000000  0.5048580000000 1.0
C      1  0.5152890000000  0.4449710000000  0.4393830000000 1.0
C      1  0.4785080000000  0.5399000000000  0.4534420000000 1.0
C      1  0.5200450000000  0.5503610000000  0.5372300000000 1.0
C      1  0.4845180000000  0.4451620000000  0.5547040000000 1.0
C      1  0.5622840000000  0.4720370000000  0.4825730000000 1.0
C      1  0.4278320000000  0.5180820000000  0.4829090000000 1.0
C      1  0.5736560000000  0.5192930000000  0.5219600000000 1.0
C      1  0.4383180000000  0.4776780000000  0.5246800000000 1.0
C      1  0.4767150000000  0.5628280000000  0.4684450000000 1.0
C      1  0.5106710000000  0.5291150000000  0.5519800000000 1.0
C      1  0.4908570000000  0.4417270000000  0.5279490000000 1.0
C      1  0.5142310000000  0.4725910000000  0.4384690000000 1.0
C      1  0.4753540000000  0.5041990000000  0.5005480000000 1.0
C      1  0.5273650000000  0.5050880000000  0.5025820000000 1.0
C      1  0.5009820000000  0.5204930000000  0.4965020000000 1.0
END
