TITL C-3577086-586-302 2.78919462753028e-06 125000 -641.178263066735 0 0 104 (C1) n - 1
REM
REM in /home/bkarasulu/work/CARBON/AIRSS/Generating-Clusters/EDIP-Nigel-Params/with-SteepDescent/Higher-Symm/SD-CG/HFTN-CG
REM
REM
REM
REM
REM
REM ./C.cell (12c818d87b63d06a65506943cc24bca4)
REM
REM compiler GCC version 9.2.1 20190827 (Red Hat 9.2.1-1)
REM options -cpp -mtune=generic -march=x86-64 -g -O0 -fpre-include=/usr/include/finclude/math-vector-fortran.h
REM seed 1438859362 487108306 745515155 -1705914552 961087376 1299697181 2052792634 -91828326 1304584710 -1640160509 -284214422 -1942188545 -1467645760 1912183295 -298470419 -1294523126 1523243937 -1250277748 715160209 537878331 683195267 1771098295 1361417245 -75880831 -1624381607 -1628425911 1197200081 -601772442 -2039637114 -280121747 -1362888545 -842024424 -1297852002
REM
CELL 1.54180   50.00000   50.00000   50.00000   90.00000   90.00000   90.00000
LATT -1
SFAC C  
C      1  0.4607870000000  0.5364210000000  0.4810080000000 1.0
C      1  0.4721030000000  0.5222020000000  0.4586500000000 1.0
C      1  0.4586490000000  0.4961870000000  0.4623270000000 1.0
C      1  0.4718050000000  0.4701720000000  0.4603960000000 1.0
C      1  0.4771670000000  0.4586110000000  0.4880080000000 1.0
C      1  0.4625830000000  0.4508270000000  0.5130600000000 1.0
C      1  0.4709140000000  0.4703480000000  0.5344700000000 1.0
C      1  0.4727550000000  0.4940380000000  0.5184540000000 1.0
C      1  0.4700160000000  0.5126010000000  0.5410840000000 1.0
C      1  0.4603890000000  0.5359060000000  0.5254370000000 1.0
C      1  0.4733400000000  0.5490530000000  0.5032810000000 1.0
C      1  0.4672620000000  0.5073930000000  0.5904130000000 1.0
C      1  0.4669090000000  0.5568680000000  0.5731840000000 1.0
C      1  0.4692050000000  0.5888160000000  0.5314140000000 1.0
C      1  0.4669950000000  0.5915090000000  0.4795870000000 1.0
C      1  0.4668590000000  0.5652230000000  0.4347140000000 1.0
C      1  0.4657610000000  0.5197940000000  0.4104950000000 1.0
C      1  0.4656120000000  0.4686350000000  0.4164260000000 1.0
C      1  0.4682140000000  0.4257590000000  0.4463440000000 1.0
C      1  0.4678470000000  0.4072070000000  0.4952290000000 1.0
C      1  0.4666360000000  0.4205900000000  0.5450890000000 1.0
C      1  0.4691980000000  0.4581550000000  0.5806170000000 1.0
C      1  0.5398190000000  0.4570160000000  0.4320050000000 1.0
C      1  0.5384920000000  0.4184900000000  0.4725720000000 1.0
C      1  0.5436720000000  0.4235150000000  0.5285410000000 1.0
C      1  0.5399440000000  0.4403870000000  0.5539380000000 1.0
C      1  0.5426840000000  0.4945840000000  0.5828530000000 1.0
C      1  0.5383140000000  0.5240680000000  0.5785400000000 1.0
C      1  0.5390440000000  0.5731510000000  0.5573150000000 1.0
C      1  0.5401980000000  0.5777180000000  0.4979460000000 1.0
C      1  0.5384520000000  0.5683440000000  0.4694820000000 1.0
C      1  0.5366650000000  0.5401260000000  0.4233920000000 1.0
C      1  0.5432530000000  0.4832790000000  0.4169260000000 1.0
C      1  0.4369470000000  0.5521430000000  0.4727450000000 1.0
C      1  0.4286830000000  0.5302050000000  0.4465960000000 1.0
C      1  0.4353160000000  0.4973580000000  0.4437400000000 1.0
C      1  0.4311550000000  0.4603020000000  0.4539550000000 1.0
C      1  0.4322850000000  0.4407830000000  0.4775100000000 1.0
C      1  0.4326280000000  0.4461660000000  0.5081940000000 1.0
C      1  0.4347200000000  0.4594620000000  0.5453020000000 1.0
C      1  0.4372380000000  0.4879940000000  0.5571610000000 1.0
C      1  0.4346370000000  0.5191640000000  0.5568200000000 1.0
C      1  0.4362200000000  0.5509280000000  0.5339720000000 1.0
C      1  0.4300220000000  0.5648760000000  0.5047360000000 1.0
C      1  0.5120120000000  0.4191790000000  0.5212140000000 1.0
C      1  0.5092940000000  0.4425230000000  0.5599880000000 1.0
C      1  0.5125220000000  0.4844390000000  0.5823220000000 1.0
C      1  0.5076810000000  0.5291490000000  0.5773210000000 1.0
C      1  0.5115410000000  0.5664460000000  0.5500890000000 1.0
C      1  0.5103360000000  0.5800650000000  0.5041810000000 1.0
C      1  0.5100720000000  0.5735990000000  0.4599540000000 1.0
C      1  0.5082540000000  0.5392000000000  0.4277510000000 1.0
C      1  0.5106310000000  0.4931400000000  0.4130410000000 1.0
C      1  0.5094610000000  0.4510490000000  0.4323250000000 1.0
C      1  0.5100350000000  0.4239040000000  0.4739530000000 1.0
C      1  0.4959040000000  0.5085580000000  0.5957400000000 1.0
C      1  0.4967390000000  0.5578740000000  0.5756280000000 1.0
C      1  0.4993600000000  0.5882590000000  0.5324290000000 1.0
C      1  0.4967410000000  0.5913720000000  0.4787830000000 1.0
C      1  0.4969370000000  0.5661480000000  0.4347370000000 1.0
C      1  0.4955710000000  0.5199970000000  0.4070540000000 1.0
C      1  0.4944630000000  0.4669310000000  0.4103620000000 1.0
C      1  0.4980010000000  0.4254510000000  0.4455000000000 1.0
C      1  0.4979660000000  0.4063060000000  0.4958030000000 1.0
C      1  0.4958370000000  0.4178660000000  0.5476930000000 1.0
C      1  0.4991590000000  0.4555850000000  0.5851040000000 1.0
C      1  0.5007630000000  0.4645260000000  0.5394810000000 1.0
C      1  0.5129970000000  0.4899440000000  0.5507560000000 1.0
C      1  0.5002460000000  0.5179090000000  0.5487600000000 1.0
C      1  0.5123420000000  0.5411230000000  0.5322260000000 1.0
C      1  0.5037140000000  0.5494770000000  0.5043160000000 1.0
C      1  0.5177340000000  0.5312290000000  0.4810970000000 1.0
C      1  0.5024570000000  0.5236090000000  0.4546750000000 1.0
C      1  0.5135020000000  0.4970890000000  0.4452270000000 1.0
C      1  0.5023590000000  0.4711990000000  0.4539110000000 1.0
C      1  0.5062980000000  0.4525350000000  0.4861490000000 1.0
C      1  0.5116880000000  0.4500210000000  0.5148860000000 1.0
C      1  0.5549680000000  0.5610320000000  0.5152720000000 1.0
C      1  0.5505080000000  0.5413680000000  0.4678560000000 1.0
C      1  0.5530710000000  0.5278240000000  0.4422770000000 1.0
C      1  0.5525610000000  0.4977340000000  0.4427060000000 1.0
C      1  0.5513700000000  0.4621880000000  0.4587500000000 1.0
C      1  0.5498200000000  0.4427520000000  0.4806930000000 1.0
C      1  0.5551010000000  0.4450100000000  0.5103310000000 1.0
C      1  0.5527760000000  0.4644290000000  0.5419440000000 1.0
C      1  0.5564600000000  0.4897720000000  0.5569130000000 1.0
C      1  0.5519240000000  0.5265140000000  0.5527510000000 1.0
C      1  0.5535940000000  0.5540970000000  0.5424870000000 1.0
C      1  0.4598160000000  0.5769980000000  0.5048390000000 1.0
C      1  0.4516410000000  0.5763240000000  0.4583420000000 1.0
C      1  0.4579640000000  0.5360270000000  0.4347080000000 1.0
C      1  0.4509280000000  0.4943170000000  0.4166040000000 1.0
C      1  0.4519110000000  0.4484030000000  0.4342130000000 1.0
C      1  0.4559060000000  0.4227830000000  0.4727770000000 1.0
C      1  0.4520260000000  0.4142360000000  0.5197360000000 1.0
C      1  0.4530410000000  0.4409150000000  0.5617380000000 1.0
C      1  0.4599620000000  0.4849160000000  0.5745260000000 1.0
C      1  0.4535330000000  0.5302830000000  0.5778780000000 1.0
C      1  0.4529050000000  0.5716000000000  0.5507130000000 1.0
C      1  0.5721210000000  0.4969010000000  0.5034360000000 1.0
C      1  0.5455000000000  0.4972100000000  0.5026970000000 1.0
C      1  0.5206030000000  0.5051210000000  0.4938890000000 1.0
C      1  0.4967470000000  0.4952490000000  0.5041020000000 1.0
C      1  0.5976520000000  0.4989480000000  0.5024230000000 1.0
END
