TITL C-3577089-586-567 7.94945218996392e-07 125000 -628.505371759563 0 0 99 (C1) n - 1
REM
REM in /home/bkarasulu/work/CARBON/AIRSS/Generating-Clusters/EDIP-Nigel-Params/with-SteepDescent/Higher-Symm/SD-CG/HFTN-CG
REM
REM
REM
REM
REM
REM ./C.cell (12c818d87b63d06a65506943cc24bca4)
REM
REM compiler GCC version 9.2.1 20190827 (Red Hat 9.2.1-1)
REM options -cpp -mtune=generic -march=x86-64 -g -O0 -fpre-include=/usr/include/finclude/math-vector-fortran.h
REM seed -979710205 79555895 629612694 -137620472 -199219682 186416294 -1950038279 -1781501933 -891538272 -1568975700 529295445 937541377 1943672872 391524035 -1233982846 1856684836 -773673788 -135025777 1108411696 129173925 -205722914 -2056137343 -2129244491 -383745670 -73164837 -999399978 2097672593 -647799227 -1280213102 -624265119 -1794147115 1540579784 -1343906485
REM
CELL 1.54180   50.00000   50.00000   50.00000   90.00000   90.00000   90.00000
LATT -1
SFAC C  
C      1  0.5033950000000  0.6064030000000  0.4706720000000 1.0
C      1  0.5262110000000  0.6073730000000  0.5090290000000 1.0
C      1  0.4802030000000  0.6123010000000  0.5106770000000 1.0
C      1  0.5032340000000  0.3930110000000  0.4717440000000 1.0
C      1  0.5260380000000  0.3939070000000  0.5100650000000 1.0
C      1  0.4801190000000  0.3895840000000  0.5117680000000 1.0
C      1  0.5047290000000  0.6202210000000  0.5225130000000 1.0
C      1  0.5280080000000  0.6144010000000  0.4817980000000 1.0
C      1  0.4810880000000  0.6188910000000  0.4830920000000 1.0
C      1  0.5044530000000  0.3819860000000  0.5241850000000 1.0
C      1  0.5277770000000  0.3853720000000  0.4832760000000 1.0
C      1  0.4807610000000  0.3813800000000  0.4846380000000 1.0
C      1  0.5185620000000  0.4537090000000  0.5649690000000 1.0
C      1  0.4330980000000  0.4527090000000  0.4856000000000 1.0
C      1  0.5483940000000  0.4531480000000  0.4495210000000 1.0
C      1  0.5177710000000  0.5503730000000  0.5653570000000 1.0
C      1  0.4306100000000  0.5526920000000  0.4888230000000 1.0
C      1  0.5484250000000  0.5463660000000  0.4503030000000 1.0
C      1  0.5225340000000  0.4546300000000  0.4344910000000 1.0
C      1  0.4346610000000  0.4522380000000  0.5164020000000 1.0
C      1  0.5455880000000  0.4548460000000  0.5521010000000 1.0
C      1  0.5225490000000  0.5446610000000  0.4352170000000 1.0
C      1  0.4328700000000  0.5511100000000  0.5177040000000 1.0
C      1  0.5437500000000  0.5460850000000  0.5506320000000 1.0
C      1  0.5430230000000  0.5170590000000  0.5374720000000 1.0
C      1  0.4475430000000  0.5263780000000  0.5283060000000 1.0
C      1  0.5005680000000  0.5157940000000  0.4422360000000 1.0
C      1  0.5480580000000  0.4757090000000  0.5294760000000 1.0
C      1  0.4480360000000  0.4768490000000  0.5284630000000 1.0
C      1  0.5007880000000  0.4822880000000  0.4426930000000 1.0
C      1  0.5465680000000  0.5226950000000  0.4693940000000 1.0
C      1  0.4480530000000  0.5254270000000  0.4681260000000 1.0
C      1  0.5019630000000  0.5248810000000  0.5584280000000 1.0
C      1  0.5462850000000  0.4765400000000  0.4686620000000 1.0
C      1  0.4469120000000  0.4770980000000  0.4731460000000 1.0
C      1  0.5037750000000  0.4797630000000  0.5578860000000 1.0
C      1  0.5002630000000  0.5634850000000  0.4419540000000 1.0
C      1  0.5500170000000  0.5668460000000  0.5298820000000 1.0
C      1  0.4490880000000  0.5733440000000  0.5302860000000 1.0
C      1  0.5012310000000  0.4341030000000  0.4406090000000 1.0
C      1  0.5506280000000  0.4355220000000  0.5284890000000 1.0
C      1  0.4496400000000  0.4292910000000  0.5293030000000 1.0
C      1  0.5022520000000  0.5733590000000  0.5567150000000 1.0
C      1  0.5491910000000  0.5689450000000  0.4693380000000 1.0
C      1  0.4496500000000  0.5683730000000  0.4741590000000 1.0
C      1  0.5028810000000  0.4304470000000  0.5560820000000 1.0
C      1  0.5492450000000  0.4303730000000  0.4682100000000 1.0
C      1  0.4499660000000  0.4327170000000  0.4719020000000 1.0
C      1  0.4505760000000  0.4411650000000  0.4443750000000 1.0
C      1  0.5717830000000  0.4309060000000  0.4844850000000 1.0
C      1  0.4781790000000  0.4292100000000  0.5690160000000 1.0
C      1  0.4504310000000  0.5581730000000  0.4476390000000 1.0
C      1  0.5708190000000  0.5673210000000  0.4868400000000 1.0
C      1  0.4774980000000  0.5739690000000  0.5695840000000 1.0
C      1  0.4553400000000  0.4400910000000  0.5571040000000 1.0
C      1  0.5737690000000  0.4416190000000  0.5102520000000 1.0
C      1  0.4751560000000  0.4441790000000  0.4291840000000 1.0
C      1  0.4548050000000  0.5625880000000  0.5578280000000 1.0
C      1  0.5709700000000  0.5555980000000  0.5124070000000 1.0
C      1  0.4739580000000  0.5529820000000  0.4317050000000 1.0
C      1  0.5712680000000  0.5264590000000  0.5134080000000 1.0
C      1  0.4527720000000  0.5322630000000  0.5578970000000 1.0
C      1  0.4747140000000  0.5233300000000  0.4277450000000 1.0
C      1  0.5726550000000  0.4709340000000  0.5122020000000 1.0
C      1  0.4531990000000  0.4704750000000  0.5577550000000 1.0
C      1  0.4761410000000  0.4734230000000  0.4281660000000 1.0
C      1  0.5698010000000  0.5142310000000  0.4873180000000 1.0
C      1  0.4498310000000  0.5115460000000  0.4405050000000 1.0
C      1  0.4754080000000  0.5170720000000  0.5717720000000 1.0
C      1  0.5706980000000  0.4844780000000  0.4857110000000 1.0
C      1  0.4493020000000  0.4801140000000  0.4420530000000 1.0
C      1  0.4762420000000  0.4859270000000  0.5710960000000 1.0
C      1  0.5241520000000  0.5639650000000  0.4852170000000 1.0
C      1  0.5003350000000  0.5715190000000  0.5278690000000 1.0
C      1  0.4754700000000  0.5703650000000  0.4868620000000 1.0
C      1  0.5242660000000  0.4358590000000  0.4842790000000 1.0
C      1  0.5006630000000  0.4310240000000  0.5270520000000 1.0
C      1  0.4757250000000  0.4303960000000  0.4855350000000 1.0
C      1  0.5258770000000  0.5774560000000  0.5134950000000 1.0
C      1  0.5000290000000  0.5763830000000  0.4701170000000 1.0
C      1  0.4754540000000  0.5823650000000  0.5145570000000 1.0
C      1  0.5259300000000  0.4239910000000  0.5128580000000 1.0
C      1  0.5002320000000  0.4229660000000  0.4695210000000 1.0
C      1  0.4756700000000  0.4197000000000  0.5140070000000 1.0
C      1  0.4988590000000  0.4859510000000  0.5277360000000 1.0
C      1  0.4726550000000  0.4857190000000  0.4861050000000 1.0
C      1  0.5218580000000  0.4670690000000  0.4854130000000 1.0
C      1  0.4977440000000  0.5165120000000  0.5276760000000 1.0
C      1  0.4726280000000  0.5160220000000  0.4849340000000 1.0
C      1  0.5222070000000  0.5324830000000  0.4861460000000 1.0
C      1  0.4968760000000  0.4756840000000  0.4715890000000 1.0
C      1  0.4740530000000  0.4774980000000  0.5142630000000 1.0
C      1  0.5231230000000  0.4776350000000  0.5130600000000 1.0
C      1  0.4976610000000  0.5236730000000  0.4713280000000 1.0
C      1  0.4734000000000  0.5256780000000  0.5131080000000 1.0
C      1  0.5227490000000  0.5219730000000  0.5143360000000 1.0
C      1  0.5233850000000  0.5031260000000  0.5628890000000 1.0
C      1  0.5400050000000  0.4998510000000  0.4531800000000 1.0
C      1  0.4332300000000  0.5015010000000  0.5250340000000 1.0
END
