TITL C-3578196-9646-749 4.29841217468258e-06 125000 -765.672260580927 0 0 122 (C1) n - 1
REM
REM in /home/bkarasulu/work/CARBON/AIRSS/Generating-Clusters/EDIP-Nigel-Params/with-SteepDescent/Higher-Symm/SD-CG/HFTN-CG
REM
REM
REM
REM
REM
REM ./C.cell (12c818d87b63d06a65506943cc24bca4)
REM
REM compiler GCC version 9.2.1 20190827 (Red Hat 9.2.1-1)
REM options -cpp -mtune=generic -march=x86-64 -g -O0 -fpre-include=/usr/include/finclude/math-vector-fortran.h
REM seed 1000593204 -1758900910 506950885 795032800 -230330826 219253220 201379595 -218483936 -1143015286 645590023 -112130101 1151924585 -299648744 -1787923401 314976063 -1911041737 -56084378 2002372 -1378788986 909473295 -1672459008 241322066 -543623240 1376443925 -205170050 -422309434 313899022 802594219 1848181609 -701168413 1157355378 -621328922 1160257086
REM
CELL 1.54180   50.00000   50.00000   50.00000   90.00000   90.00000   90.00000
LATT -1
SFAC C  
C      1  0.4826930000000  0.4154030000000  0.4358640000000 1.0
C      1  0.5665230000000  0.5768460000000  0.5344750000000 1.0
C      1  0.5301970000000  0.4760590000000  0.4176220000000 1.0
C      1  0.4902580000000  0.4077280000000  0.4998750000000 1.0
C      1  0.5597520000000  0.4894290000000  0.5813330000000 1.0
C      1  0.5741140000000  0.5071750000000  0.5650870000000 1.0
C      1  0.4493690000000  0.5679010000000  0.4862150000000 1.0
C      1  0.5057720000000  0.4838410000000  0.5970240000000 1.0
C      1  0.4521310000000  0.4307720000000  0.4873520000000 1.0
C      1  0.5963790000000  0.4838230000000  0.5301510000000 1.0
C      1  0.4799660000000  0.5256170000000  0.4162840000000 1.0
C      1  0.4122490000000  0.5215150000000  0.4434810000000 1.0
C      1  0.4975280000000  0.4082510000000  0.4710250000000 1.0
C      1  0.4518810000000  0.4563910000000  0.4224780000000 1.0
C      1  0.5137530000000  0.5919000000000  0.5244220000000 1.0
C      1  0.4425630000000  0.4934910000000  0.5160720000000 1.0
C      1  0.5355080000000  0.5089080000000  0.4936320000000 1.0
C      1  0.5229910000000  0.5898020000000  0.4764070000000 1.0
C      1  0.5274590000000  0.4510570000000  0.4707550000000 1.0
C      1  0.4787200000000  0.4620690000000  0.5238450000000 1.0
C      1  0.4141580000000  0.4821660000000  0.5190530000000 1.0
C      1  0.5760550000000  0.5265370000000  0.5180950000000 1.0
C      1  0.4981350000000  0.5711740000000  0.5644930000000 1.0
C      1  0.4025500000000  0.5120990000000  0.5172800000000 1.0
C      1  0.5140680000000  0.4285400000000  0.5426000000000 1.0
C      1  0.4061330000000  0.5064620000000  0.4675680000000 1.0
C      1  0.5090710000000  0.4737800000000  0.4567010000000 1.0
C      1  0.4813220000000  0.5515550000000  0.4274230000000 1.0
C      1  0.4096620000000  0.4662670000000  0.4936880000000 1.0
C      1  0.5688070000000  0.5602750000000  0.4471310000000 1.0
C      1  0.4572300000000  0.4643600000000  0.5814100000000 1.0
C      1  0.4562210000000  0.4314060000000  0.4375660000000 1.0
C      1  0.4583620000000  0.4427900000000  0.5379100000000 1.0
C      1  0.5459160000000  0.5476200000000  0.4339760000000 1.0
C      1  0.5219280000000  0.5839680000000  0.5523170000000 1.0
C      1  0.5265920000000  0.5696890000000  0.4360200000000 1.0
C      1  0.4693570000000  0.4861450000000  0.4815480000000 1.0
C      1  0.4464870000000  0.5523310000000  0.4611300000000 1.0
C      1  0.5213660000000  0.4977230000000  0.4018970000000 1.0
C      1  0.4292750000000  0.4458190000000  0.4934680000000 1.0
C      1  0.5608400000000  0.4496370000000  0.5519330000000 1.0
C      1  0.4994500000000  0.5634850000000  0.4454090000000 1.0
C      1  0.5067290000000  0.5135910000000  0.4202630000000 1.0
C      1  0.4550780000000  0.4979600000000  0.5449370000000 1.0
C      1  0.4601890000000  0.5095980000000  0.4328290000000 1.0
C      1  0.5416320000000  0.5861300000000  0.4550100000000 1.0
C      1  0.5100710000000  0.5007900000000  0.5321790000000 1.0
C      1  0.5447490000000  0.4272280000000  0.5401690000000 1.0
C      1  0.4693510000000  0.4391380000000  0.4643170000000 1.0
C      1  0.5787680000000  0.4518310000000  0.4768600000000 1.0
C      1  0.4788390000000  0.4686780000000  0.4614200000000 1.0
C      1  0.5018890000000  0.3886900000000  0.5170260000000 1.0
C      1  0.4825810000000  0.5097290000000  0.5777360000000 1.0
C      1  0.4734450000000  0.4851970000000  0.5959710000000 1.0
C      1  0.4721550000000  0.4428650000000  0.5657640000000 1.0
C      1  0.5990700000000  0.4713890000000  0.4753540000000 1.0
C      1  0.5497360000000  0.4266030000000  0.5100190000000 1.0
C      1  0.5381750000000  0.5384230000000  0.5449890000000 1.0
C      1  0.5543400000000  0.4579440000000  0.4598250000000 1.0
C      1  0.4767530000000  0.5773820000000  0.4924340000000 1.0
C      1  0.5124550000000  0.5128370000000  0.5870940000000 1.0
C      1  0.5129360000000  0.5093710000000  0.4491920000000 1.0
C      1  0.5404590000000  0.5242950000000  0.4524800000000 1.0
C      1  0.5593800000000  0.5744740000000  0.5072100000000 1.0
C      1  0.4218170000000  0.5343120000000  0.5256840000000 1.0
C      1  0.5048770000000  0.4011810000000  0.5409880000000 1.0
C      1  0.5753280000000  0.4603770000000  0.5264630000000 1.0
C      1  0.4954860000000  0.5824990000000  0.4686000000000 1.0
C      1  0.5841850000000  0.4953260000000  0.4837870000000 1.0
C      1  0.4035850000000  0.5496020000000  0.4833440000000 1.0
C      1  0.5826690000000  0.5147960000000  0.4609700000000 1.0
C      1  0.5556930000000  0.4890430000000  0.4912810000000 1.0
C      1  0.5389550000000  0.4898740000000  0.5381690000000 1.0
C      1  0.4934820000000  0.5455660000000  0.5174880000000 1.0
C      1  0.5109840000000  0.5303960000000  0.5372310000000 1.0
C      1  0.4572200000000  0.5490900000000  0.5595780000000 1.0
C      1  0.4169640000000  0.5483110000000  0.4559410000000 1.0
C      1  0.4706250000000  0.4773820000000  0.4331530000000 1.0
C      1  0.4767320000000  0.5681840000000  0.5443450000000 1.0
C      1  0.4084860000000  0.4648430000000  0.4437680000000 1.0
C      1  0.4651580000000  0.4195080000000  0.5100140000000 1.0
C      1  0.5579160000000  0.5161330000000  0.5413430000000 1.0
C      1  0.5080190000000  0.5493100000000  0.4864390000000 1.0
C      1  0.4574370000000  0.4713090000000  0.5026180000000 1.0
C      1  0.4843670000000  0.4865520000000  0.5410700000000 1.0
C      1  0.5976170000000  0.4954880000000  0.5557510000000 1.0
C      1  0.4250420000000  0.4636230000000  0.4226860000000 1.0
C      1  0.5462190000000  0.5664490000000  0.5513740000000 1.0
C      1  0.4037570000000  0.4782390000000  0.4676360000000 1.0
C      1  0.4932430000000  0.5257130000000  0.4680020000000 1.0
C      1  0.4248730000000  0.5572430000000  0.5030340000000 1.0
C      1  0.4446410000000  0.5276350000000  0.5443420000000 1.0
C      1  0.5085260000000  0.4313610000000  0.4312740000000 1.0
C      1  0.5769130000000  0.4383950000000  0.5041100000000 1.0
C      1  0.5304610000000  0.4494790000000  0.5027310000000 1.0
C      1  0.5022930000000  0.4421380000000  0.5667800000000 1.0
C      1  0.5061560000000  0.4615720000000  0.4273040000000 1.0
C      1  0.4388510000000  0.4781540000000  0.5616940000000 1.0
C      1  0.5185750000000  0.4250360000000  0.4587000000000 1.0
C      1  0.4872140000000  0.5073030000000  0.4911710000000 1.0
C      1  0.5648630000000  0.5463410000000  0.4955220000000 1.0
C      1  0.3953510000000  0.5215360000000  0.4896810000000 1.0
C      1  0.5178520000000  0.4643960000000  0.5776760000000 1.0
C      1  0.5526910000000  0.4784700000000  0.4375270000000 1.0
C      1  0.4460210000000  0.5253460000000  0.4962090000000 1.0
C      1  0.4840460000000  0.5872590000000  0.5200080000000 1.0
C      1  0.4324060000000  0.5130380000000  0.4253280000000 1.0
C      1  0.5375200000000  0.5352470000000  0.4820830000000 1.0
C      1  0.5112290000000  0.4972710000000  0.5032200000000 1.0
C      1  0.5686360000000  0.5031590000000  0.4378880000000 1.0
C      1  0.5438700000000  0.4724320000000  0.5639120000000 1.0
C      1  0.4304580000000  0.4589190000000  0.5410030000000 1.0
C      1  0.5314240000000  0.5827950000000  0.5028120000000 1.0
C      1  0.5162310000000  0.5378000000000  0.6000390000000 1.0
C      1  0.5047420000000  0.4450390000000  0.5186510000000 1.0
C      1  0.4621290000000  0.5258730000000  0.4595890000000 1.0
C      1  0.5494430000000  0.4721950000000  0.5143950000000 1.0
C      1  0.4954880000000  0.5537570000000  0.5887020000000 1.0
C      1  0.4732090000000  0.5247720000000  0.5103940000000 1.0
C      1  0.5949800000000  0.5055970000000  0.5095090000000 1.0
C      1  0.4713450000000  0.5374420000000  0.5831840000000 1.0
C      1  0.5801320000000  0.5439490000000  0.4687140000000 1.0
END
