TITL C-3577078-809-651 8.61909713415598e-09 125000 -309.685845867557 0 0 51 (C1) n - 1
REM
REM in /home/bkarasulu/work/CARBON/AIRSS/Generating-Clusters/EDIP-Nigel-Params/with-SteepDescent/Higher-Symm/SD-CG/HFTN-CG
REM
REM
REM
REM
REM
REM ./C.cell (12c818d87b63d06a65506943cc24bca4)
REM
REM compiler GCC version 9.2.1 20190827 (Red Hat 9.2.1-1)
REM options -cpp -mtune=generic -march=x86-64 -g -O0 -fpre-include=/usr/include/finclude/math-vector-fortran.h
REM seed -72413721 -2018784763 -2115927840 2041994142 -977082054 -73589576 1160133301 -1863245814 699486751 -1917905330 1956760961 -12475298 -570832758 852993381 -532043179 684809320 2140178857 1877806140 -317205145 -1083721174 -478759483 -1724932426 2073171633 1712960322 -1414570517 972461956 -1388391318 -1249715551 282984014 1154957453 -872464671 -1837982437 800236660
REM
CELL 1.54180   50.00000   50.00000   50.00000   90.00000   90.00000   90.00000
LATT -1
SFAC C  
C      1  0.4416630000000  0.5424050000000  0.4992800000000 1.0
C      1  0.5680060000000  0.5429520000000  0.5044340000000 1.0
C      1  0.4896330000000  0.4544680000000  0.5121380000000 1.0
C      1  0.5043310000000  0.4542400000000  0.4842690000000 1.0
C      1  0.5006520000000  0.5094140000000  0.4717510000000 1.0
C      1  0.5047430000000  0.5120990000000  0.5191530000000 1.0
C      1  0.5608920000000  0.5070440000000  0.5319980000000 1.0
C      1  0.4396790000000  0.5104620000000  0.4654600000000 1.0
C      1  0.4561470000000  0.5069900000000  0.5280600000000 1.0
C      1  0.5452810000000  0.5122700000000  0.4756990000000 1.0
C      1  0.5010280000000  0.4909220000000  0.4472920000000 1.0
C      1  0.5005940000000  0.4824830000000  0.5581650000000 1.0
C      1  0.5340990000000  0.4560170000000  0.4825750000000 1.0
C      1  0.4602860000000  0.4503070000000  0.5178450000000 1.0
C      1  0.4495580000000  0.4871020000000  0.5502120000000 1.0
C      1  0.5480890000000  0.4934450000000  0.4521540000000 1.0
C      1  0.5467870000000  0.4692350000000  0.5059090000000 1.0
C      1  0.4415390000000  0.4609760000000  0.4963880000000 1.0
C      1  0.5296100000000  0.5443160000000  0.5366810000000 1.0
C      1  0.4833640000000  0.5359210000000  0.4673180000000 1.0
C      1  0.4917120000000  0.4628610000000  0.4581950000000 1.0
C      1  0.5070180000000  0.4613590000000  0.5358550000000 1.0
C      1  0.5148240000000  0.5303310000000  0.5584450000000 1.0
C      1  0.4878770000000  0.5337610000000  0.4368250000000 1.0
C      1  0.5361660000000  0.4573180000000  0.5314750000000 1.0
C      1  0.4449140000000  0.4486630000000  0.4710880000000 1.0
C      1  0.4625170000000  0.4662330000000  0.4579450000000 1.0
C      1  0.5520180000000  0.4641100000000  0.5538630000000 1.0
C      1  0.5448010000000  0.4665030000000  0.4590500000000 1.0
C      1  0.4523440000000  0.4602500000000  0.5429600000000 1.0
C      1  0.4297170000000  0.4975480000000  0.4904090000000 1.0
C      1  0.5748050000000  0.4953450000000  0.5091670000000 1.0
C      1  0.4787640000000  0.5046970000000  0.4320380000000 1.0
C      1  0.5232500000000  0.5014670000000  0.5646280000000 1.0
C      1  0.5266510000000  0.5017320000000  0.4338360000000 1.0
C      1  0.4756250000000  0.5003300000000  0.5612410000000 1.0
C      1  0.5332490000000  0.4969610000000  0.4991850000000 1.0
C      1  0.4652130000000  0.4901550000000  0.5040330000000 1.0
C      1  0.5189420000000  0.5315700000000  0.4372970000000 1.0
C      1  0.4840550000000  0.5301940000000  0.5535130000000 1.0
C      1  0.4884550000000  0.5355240000000  0.5231660000000 1.0
C      1  0.5278960000000  0.5375360000000  0.4663140000000 1.0
C      1  0.5710070000000  0.5183840000000  0.4902560000000 1.0
C      1  0.4328780000000  0.5187270000000  0.5122190000000 1.0
C      1  0.5043890000000  0.5570540000000  0.5112600000000 1.0
C      1  0.5048900000000  0.5550170000000  0.4817250000000 1.0
C      1  0.4532730000000  0.5347610000000  0.4745770000000 1.0
C      1  0.5556880000000  0.5349650000000  0.5284540000000 1.0
C      1  0.5499080000000  0.4922970000000  0.5548010000000 1.0
C      1  0.4546910000000  0.4928340000000  0.4463920000000 1.0
C      1  0.4949250000000  0.4951270000000  0.4974320000000 1.0
END
