TITL C-3577090-796-593 -1.93950588760942e-05 125000 -321.836763111544 0 0 53 (C1) n - 1
REM
REM in /home/bkarasulu/work/CARBON/AIRSS/Generating-Clusters/EDIP-Nigel-Params/with-SteepDescent/Higher-Symm/SD-CG/HFTN-CG
REM
REM
REM
REM
REM
REM ./C.cell (12c818d87b63d06a65506943cc24bca4)
REM
REM compiler GCC version 9.2.1 20190827 (Red Hat 9.2.1-1)
REM options -cpp -mtune=generic -march=x86-64 -g -O0 -fpre-include=/usr/include/finclude/math-vector-fortran.h
REM seed -989310567 -1955414776 -401560898 -1975742837 491225911 1489953623 1881110198 594108265 100807724 -198687019 -1286821798 1514749252 845534473 699857219 1203802416 1867908509 721416678 108335116 1039507392 266057848 1850364175 1265322229 -1497735238 -866795331 -1807404802 1169309703 494716976 -29691771 -580892029 -1963847925 415985984 873216209 -2043767789
REM
CELL 1.54180   50.00000   50.00000   50.00000   90.00000   90.00000   90.00000
LATT -1
SFAC C  
C      1  0.4606870000000  0.5455530000000  0.5169450000000 1.0
C      1  0.5369170000000  0.5504490000000  0.4716110000000 1.0
C      1  0.4548320000000  0.4706760000000  0.4587320000000 1.0
C      1  0.5440850000000  0.4632410000000  0.5475790000000 1.0
C      1  0.5053900000000  0.4580650000000  0.4635310000000 1.0
C      1  0.4998520000000  0.4665420000000  0.5331860000000 1.0
C      1  0.4764610000000  0.4378200000000  0.4977730000000 1.0
C      1  0.5250730000000  0.4364570000000  0.5082950000000 1.0
C      1  0.5239660000000  0.5236140000000  0.4310680000000 1.0
C      1  0.4872100000000  0.5333380000000  0.5556620000000 1.0
C      1  0.5740630000000  0.5048710000000  0.5180760000000 1.0
C      1  0.4380750000000  0.4853090000000  0.4781530000000 1.0
C      1  0.4508480000000  0.5123150000000  0.4831350000000 1.0
C      1  0.5583780000000  0.5270370000000  0.5104890000000 1.0
C      1  0.5153810000000  0.5302360000000  0.5672830000000 1.0
C      1  0.4941080000000  0.5248710000000  0.4285940000000 1.0
C      1  0.5344990000000  0.5466660000000  0.4438830000000 1.0
C      1  0.4864660000000  0.5455650000000  0.5281860000000 1.0
C      1  0.4805150000000  0.5149820000000  0.4727430000000 1.0
C      1  0.5343080000000  0.5327090000000  0.5273480000000 1.0
C      1  0.5232390000000  0.4481230000000  0.5360090000000 1.0
C      1  0.4774510000000  0.4549930000000  0.4724120000000 1.0
C      1  0.5300460000000  0.4987110000000  0.4466620000000 1.0
C      1  0.4763470000000  0.5055020000000  0.5517080000000 1.0
C      1  0.4601870000000  0.4996460000000  0.5277470000000 1.0
C      1  0.5324490000000  0.5033730000000  0.4764730000000 1.0
C      1  0.4997840000000  0.4884940000000  0.5528210000000 1.0
C      1  0.5071510000000  0.4808070000000  0.4441130000000 1.0
C      1  0.5507200000000  0.5265770000000  0.4819320000000 1.0
C      1  0.4484540000000  0.5209080000000  0.5116570000000 1.0
C      1  0.5389890000000  0.5574360000000  0.5411230000000 1.0
C      1  0.4867540000000  0.5440200000000  0.4678120000000 1.0
C      1  0.4730810000000  0.4539460000000  0.5233890000000 1.0
C      1  0.5209320000000  0.4606280000000  0.4898320000000 1.0
C      1  0.5636330000000  0.4828120000000  0.5066030000000 1.0
C      1  0.4326910000000  0.4707680000000  0.5017360000000 1.0
C      1  0.5467080000000  0.4874080000000  0.5601790000000 1.0
C      1  0.4605170000000  0.4870850000000  0.4360990000000 1.0
C      1  0.5445690000000  0.4785780000000  0.4869750000000 1.0
C      1  0.4504070000000  0.4728480000000  0.5232280000000 1.0
C      1  0.5311260000000  0.5533510000000  0.5663800000000 1.0
C      1  0.4860880000000  0.5495330000000  0.4401790000000 1.0
C      1  0.4844620000000  0.5008480000000  0.4448330000000 1.0
C      1  0.5245300000000  0.5046430000000  0.5533200000000 1.0
C      1  0.5049210000000  0.4024310000000  0.4795300000000 1.0
C      1  0.5061350000000  0.5807080000000  0.4930880000000 1.0
C      1  0.5086610000000  0.5345910000000  0.5103060000000 1.0
C      1  0.5100520000000  0.5536570000000  0.4853980000000 1.0
C      1  0.4992040000000  0.4765560000000  0.5038870000000 1.0
C      1  0.5035220000000  0.5068210000000  0.4930200000000 1.0
C      1  0.5010360000000  0.4197180000000  0.5010310000000 1.0
C      1  0.5029360000000  0.6041500000000  0.5029560000000 1.0
C      1  0.5078820000000  0.3832720000000  0.4627720000000 1.0
END
