TITL C-3578205-846-661 -7.05723677920155e-06 125000 -1017.79963132826 0 0 160 (C1) n - 1
REM
REM in /home/bkarasulu/work/CARBON/AIRSS/Generating-Clusters/EDIP-Nigel-Params/with-SteepDescent/Higher-Symm/SD-CG/HFTN-CG
REM
REM
REM
REM
REM
REM ./C.cell (12c818d87b63d06a65506943cc24bca4)
REM
REM compiler GCC version 9.2.1 20190827 (Red Hat 9.2.1-1)
REM options -cpp -mtune=generic -march=x86-64 -g -O0 -fpre-include=/usr/include/finclude/math-vector-fortran.h
REM seed 1369299706 2137792078 -386253870 -911883985 -1067284319 -685402047 -1341495577 763049427 -1726516164 1119293049 -1977203971 -353549365 1771007589 1985735189 -1564466081 -2097060352 2096916373 -12792508 463601170 1666344027 -860353290 -678512317 -348573948 594905476 1900587042 571253614 1252352321 704875640 61920733 1463856292 1484906314 -510992320 1676999340
REM
CELL 1.54180   50.00000   50.00000   50.00000   90.00000   90.00000   90.00000
LATT -1
SFAC C  
C      1  0.5023680000000  0.4789370000000  0.4558000000000 1.0
C      1  0.4770650000000  0.4500810000000  0.5054950000000 1.0
C      1  0.4562920000000  0.4992900000000  0.4710280000000 1.0
C      1  0.5138130000000  0.5347380000000  0.5564910000000 1.0
C      1  0.4988490000000  0.4752990000000  0.5409860000000 1.0
C      1  0.4896730000000  0.5302820000000  0.4510210000000 1.0
C      1  0.4755760000000  0.5352360000000  0.4999120000000 1.0
C      1  0.5272180000000  0.4579060000000  0.4984460000000 1.0
C      1  0.5310130000000  0.5537530000000  0.5142620000000 1.0
C      1  0.4516910000000  0.4935550000000  0.5204770000000 1.0
C      1  0.5442210000000  0.5044520000000  0.5294260000000 1.0
C      1  0.5533390000000  0.4855040000000  0.4663100000000 1.0
C      1  0.5010280000000  0.4578000000000  0.4799680000000 1.0
C      1  0.4791620000000  0.5018640000000  0.4516020000000 1.0
C      1  0.4501020000000  0.4658980000000  0.5082740000000 1.0
C      1  0.5109240000000  0.5532880000000  0.5350670000000 1.0
C      1  0.4975800000000  0.5362930000000  0.4781410000000 1.0
C      1  0.4886930000000  0.4494080000000  0.5333950000000 1.0
C      1  0.4766840000000  0.4972810000000  0.5399360000000 1.0
C      1  0.5282770000000  0.4975380000000  0.4583350000000 1.0
C      1  0.5328230000000  0.5133680000000  0.5549670000000 1.0
C      1  0.4525850000000  0.5148320000000  0.4960670000000 1.0
C      1  0.5436720000000  0.5284300000000  0.5055910000000 1.0
C      1  0.5527380000000  0.4674980000000  0.4876690000000 1.0
C      1  0.4437300000000  0.4772340000000  0.4319560000000 1.0
C      1  0.4926730000000  0.4264940000000  0.4587000000000 1.0
C      1  0.4259480000000  0.4621630000000  0.4896020000000 1.0
C      1  0.4661470000000  0.5073120000000  0.5715790000000 1.0
C      1  0.5384560000000  0.4939140000000  0.5768020000000 1.0
C      1  0.5387530000000  0.5079500000000  0.4297010000000 1.0
C      1  0.4898090000000  0.5739290000000  0.5411420000000 1.0
C      1  0.5071460000000  0.4268830000000  0.5410500000000 1.0
C      1  0.5077200000000  0.5858910000000  0.4597700000000 1.0
C      1  0.4204120000000  0.5357010000000  0.5035360000000 1.0
C      1  0.5763400000000  0.4594310000000  0.5038760000000 1.0
C      1  0.5707820000000  0.5370170000000  0.4915940000000 1.0
C      1  0.4504130000000  0.4267380000000  0.4790050000000 1.0
C      1  0.4888090000000  0.4589030000000  0.4247990000000 1.0
C      1  0.4107790000000  0.5005000000000  0.4577430000000 1.0
C      1  0.4647440000000  0.5656710000000  0.5084210000000 1.0
C      1  0.5361200000000  0.5773370000000  0.4963210000000 1.0
C      1  0.5352680000000  0.4284140000000  0.5087030000000 1.0
C      1  0.4958460000000  0.5413720000000  0.5793130000000 1.0
C      1  0.5106040000000  0.5416030000000  0.4315290000000 1.0
C      1  0.5065440000000  0.4595840000000  0.5815170000000 1.0
C      1  0.4264690000000  0.5054310000000  0.5355210000000 1.0
C      1  0.5761190000000  0.5036890000000  0.4594390000000 1.0
C      1  0.5716000000000  0.4904340000000  0.5374600000000 1.0
C      1  0.4346800000000  0.5433630000000  0.4085050000000 1.0
C      1  0.5488170000000  0.4109900000000  0.4291870000000 1.0
C      1  0.4139380000000  0.4316280000000  0.5450740000000 1.0
C      1  0.4343320000000  0.4514290000000  0.5858410000000 1.0
C      1  0.5691770000000  0.5484690000000  0.5868850000000 1.0
C      1  0.5681320000000  0.4525920000000  0.4103680000000 1.0
C      1  0.5490040000000  0.5895030000000  0.5665660000000 1.0
C      1  0.4544670000000  0.4110650000000  0.5651110000000 1.0
C      1  0.4532260000000  0.5865720000000  0.4263100000000 1.0
C      1  0.4136130000000  0.5661180000000  0.4470500000000 1.0
C      1  0.5877630000000  0.4313610000000  0.4513390000000 1.0
C      1  0.5877220000000  0.5670010000000  0.5446070000000 1.0
C      1  0.4351340000000  0.4126110000000  0.5434100000000 1.0
C      1  0.5481240000000  0.4324950000000  0.4099690000000 1.0
C      1  0.4111030000000  0.5487340000000  0.4240940000000 1.0
C      1  0.4345510000000  0.5854940000000  0.4479200000000 1.0
C      1  0.5687000000000  0.5884940000000  0.5454600000000 1.0
C      1  0.5667230000000  0.4119350000000  0.4512790000000 1.0
C      1  0.5497550000000  0.5699870000000  0.5875640000000 1.0
C      1  0.4560250000000  0.5632140000000  0.4094530000000 1.0
C      1  0.4526040000000  0.4295230000000  0.5871670000000 1.0
C      1  0.4140770000000  0.4516280000000  0.5656560000000 1.0
C      1  0.5884650000000  0.4519840000000  0.4306890000000 1.0
C      1  0.5879140000000  0.5471520000000  0.5653650000000 1.0
C      1  0.4968230000000  0.4333910000000  0.5887460000000 1.0
C      1  0.4408690000000  0.5759080000000  0.4908010000000 1.0
C      1  0.5864040000000  0.4964720000000  0.4327800000000 1.0
C      1  0.4996960000000  0.5655100000000  0.4172180000000 1.0
C      1  0.5040360000000  0.4360570000000  0.4134990000000 1.0
C      1  0.5017890000000  0.5688720000000  0.5893320000000 1.0
C      1  0.4288090000000  0.4124240000000  0.4923020000000 1.0
C      1  0.5638900000000  0.5862030000000  0.5013350000000 1.0
C      1  0.5606070000000  0.4166100000000  0.4950280000000 1.0
C      1  0.5837940000000  0.4988820000000  0.5639600000000 1.0
C      1  0.4191870000000  0.4955020000000  0.5619100000000 1.0
C      1  0.4018980000000  0.5022950000000  0.4302430000000 1.0
C      1  0.4970200000000  0.5888750000000  0.4333680000000 1.0
C      1  0.4401530000000  0.4951360000000  0.5804350000000 1.0
C      1  0.5844880000000  0.4326080000000  0.4958110000000 1.0
C      1  0.4987800000000  0.4143820000000  0.5674440000000 1.0
C      1  0.5051510000000  0.4161570000000  0.4339050000000 1.0
C      1  0.4998040000000  0.5877420000000  0.5670370000000 1.0
C      1  0.4241920000000  0.4931290000000  0.4130120000000 1.0
C      1  0.5656950000000  0.4996080000000  0.5865370000000 1.0
C      1  0.5634340000000  0.4964190000000  0.4156200000000 1.0
C      1  0.5819520000000  0.5636260000000  0.5006620000000 1.0
C      1  0.4167870000000  0.5613060000000  0.4911110000000 1.0
C      1  0.4101860000000  0.4346120000000  0.4957310000000 1.0
C      1  0.5249780000000  0.4367560000000  0.3947280000000 1.0
C      1  0.4365430000000  0.4014050000000  0.5175930000000 1.0
C      1  0.3922550000000  0.5278840000000  0.4233690000000 1.0
C      1  0.5265250000000  0.5701250000000  0.6032910000000 1.0
C      1  0.4740610000000  0.4306200000000  0.6052600000000 1.0
C      1  0.4807570000000  0.5611010000000  0.3964940000000 1.0
C      1  0.4403670000000  0.5978760000000  0.4725820000000 1.0
C      1  0.5608380000000  0.3971180000000  0.4745170000000 1.0
C      1  0.5674460000000  0.6046340000000  0.5225720000000 1.0
C      1  0.3993070000000  0.4754000000000  0.5637290000000 1.0
C      1  0.6001550000000  0.5220810000000  0.5627240000000 1.0
C      1  0.6046300000000  0.4747810000000  0.4314900000000 1.0
C      1  0.5251870000000  0.3963630000000  0.4325830000000 1.0
C      1  0.4355940000000  0.5162120000000  0.4001780000000 1.0
C      1  0.3988320000000  0.4340610000000  0.5216950000000 1.0
C      1  0.5241410000000  0.6025530000000  0.5644540000000 1.0
C      1  0.4745570000000  0.6048560000000  0.4282010000000 1.0
C      1  0.4776890000000  0.3951970000000  0.5651880000000 1.0
C      1  0.4386040000000  0.4751060000000  0.6004430000000 1.0
C      1  0.5636040000000  0.4762010000000  0.3958060000000 1.0
C      1  0.5674860000000  0.5241740000000  0.6010420000000 1.0
C      1  0.3980270000000  0.5637600000000  0.4701230000000 1.0
C      1  0.6020760000000  0.5638130000000  0.5206940000000 1.0
C      1  0.6031900000000  0.4313180000000  0.4746020000000 1.0
C      1  0.4007050000000  0.4776060000000  0.4993970000000 1.0
C      1  0.4664730000000  0.4971270000000  0.4249950000000 1.0
C      1  0.4935380000000  0.4075150000000  0.4808640000000 1.0
C      1  0.3940970000000  0.5209740000000  0.5019120000000 1.0
C      1  0.6003750000000  0.4773390000000  0.4998760000000 1.0
C      1  0.5948650000000  0.5209320000000  0.4991640000000 1.0
C      1  0.4800510000000  0.5007420000000  0.5987730000000 1.0
C      1  0.5237350000000  0.5004700000000  0.6020880000000 1.0
C      1  0.5115930000000  0.4968860000000  0.4048480000000 1.0
C      1  0.4925110000000  0.5970020000000  0.5217780000000 1.0
C      1  0.4978700000000  0.4042690000000  0.5245540000000 1.0
C      1  0.5005560000000  0.6059280000000  0.4793040000000 1.0
C      1  0.3908420000000  0.4991220000000  0.4787050000000 1.0
C      1  0.4718420000000  0.4190660000000  0.4997130000000 1.0
C      1  0.4867970000000  0.4832550000000  0.4080370000000 1.0
C      1  0.4009920000000  0.4989740000000  0.5215050000000 1.0
C      1  0.6000040000000  0.5002060000000  0.4774450000000 1.0
C      1  0.5953710000000  0.4988120000000  0.5210740000000 1.0
C      1  0.4765480000000  0.6005590000000  0.4970500000000 1.0
C      1  0.5185920000000  0.6010670000000  0.5041630000000 1.0
C      1  0.5143970000000  0.4067530000000  0.5021390000000 1.0
C      1  0.5005740000000  0.5226470000000  0.6023750000000 1.0
C      1  0.5145980000000  0.5249470000000  0.4068010000000 1.0
C      1  0.5019230000000  0.4785770000000  0.6031310000000 1.0
C      1  0.4315390000000  0.5364350000000  0.5330800000000 1.0
C      1  0.5669530000000  0.4604820000000  0.5331180000000 1.0
C      1  0.5650140000000  0.5332260000000  0.4617800000000 1.0
C      1  0.5318980000000  0.5710950000000  0.4664540000000 1.0
C      1  0.4338890000000  0.4824470000000  0.4616140000000 1.0
C      1  0.4608140000000  0.4509870000000  0.4318980000000 1.0
C      1  0.4668800000000  0.5378760000000  0.5690610000000 1.0
C      1  0.5321920000000  0.4641760000000  0.5678000000000 1.0
C      1  0.5391880000000  0.5460290000000  0.4515100000000 1.0
C      1  0.4569510000000  0.5511410000000  0.5435480000000 1.0
C      1  0.5404060000000  0.4482180000000  0.5421550000000 1.0
C      1  0.4636120000000  0.4303770000000  0.4528260000000 1.0
C      1  0.4893210000000  0.5175100000000  0.5207050000000 1.0
C      1  0.5211100000000  0.4817130000000  0.5201600000000 1.0
C      1  0.5065100000000  0.5011610000000  0.5040020000000 1.0
C      1  0.5209140000000  0.5173550000000  0.4841970000000 1.0
END
