TITL C-3577087-600-488 -2.52870651445741e-06 125000 -396.569928298624 0 0 67 (C1) n - 1
REM
REM in /home/bkarasulu/work/CARBON/AIRSS/Generating-Clusters/EDIP-Nigel-Params/with-SteepDescent/Higher-Symm/SD-CG/HFTN-CG
REM
REM
REM
REM
REM
REM ./C.cell (12c818d87b63d06a65506943cc24bca4)
REM
REM compiler GCC version 9.2.1 20190827 (Red Hat 9.2.1-1)
REM options -cpp -mtune=generic -march=x86-64 -g -O0 -fpre-include=/usr/include/finclude/math-vector-fortran.h
REM seed 922078139 1280903346 1897447950 1136224602 1153801292 1902918804 -180356174 397918610 1777499651 -2016042520 88833278 -376433749 1846997818 1518835882 406007073 1140686605 2050613774 -762310240 1622621246 -883303839 266617326 2089461674 912605742 1931485763 -106234052 -615836353 -1916320101 1887717228 1970012771 -495048400 1826517016 509590262 1689288866
REM
CELL 1.54180   50.00000   50.00000   50.00000   90.00000   90.00000   90.00000
LATT -1
SFAC C  
C      1  0.4870970000000  0.5225820000000  0.4187650000000 1.0
C      1  0.4234500000000  0.4899150000000  0.5100440000000 1.0
C      1  0.5138310000000  0.4230860000000  0.4902620000000 1.0
C      1  0.5060100000000  0.5154210000000  0.5794700000000 1.0
C      1  0.4844000000000  0.4988320000000  0.5879760000000 1.0
C      1  0.5067310000000  0.4975990000000  0.4133460000000 1.0
C      1  0.5884460000000  0.4861830000000  0.4976460000000 1.0
C      1  0.4159960000000  0.5096090000000  0.4908270000000 1.0
C      1  0.5873970000000  0.5126370000000  0.5010530000000 1.0
C      1  0.4928420000000  0.4201060000000  0.5126220000000 1.0
C      1  0.5148570000000  0.5753410000000  0.5085390000000 1.0
C      1  0.4968020000000  0.5866090000000  0.4897820000000 1.0
C      1  0.5326080000000  0.5029770000000  0.4745360000000 1.0
C      1  0.4723770000000  0.5438230000000  0.5067590000000 1.0
C      1  0.5059790000000  0.4726020000000  0.5489750000000 1.0
C      1  0.4497750000000  0.4984990000000  0.5214660000000 1.0
C      1  0.5421620000000  0.4904350000000  0.5330280000000 1.0
C      1  0.4619950000000  0.4870730000000  0.4720710000000 1.0
C      1  0.5229760000000  0.5478520000000  0.4989870000000 1.0
C      1  0.4772680000000  0.4452920000000  0.5031850000000 1.0
C      1  0.5251950000000  0.4496360000000  0.5002580000000 1.0
C      1  0.4887690000000  0.4829960000000  0.4556630000000 1.0
C      1  0.4998270000000  0.5321740000000  0.4442650000000 1.0
C      1  0.4992810000000  0.5239200000000  0.5518700000000 1.0
C      1  0.4810350000000  0.4846680000000  0.4265770000000 1.0
C      1  0.4455130000000  0.4616540000000  0.4747720000000 1.0
C      1  0.4650200000000  0.4395190000000  0.4760540000000 1.0
C      1  0.5286000000000  0.4765500000000  0.5671620000000 1.0
C      1  0.4688210000000  0.5317920000000  0.5543820000000 1.0
C      1  0.5320190000000  0.5308950000000  0.4383600000000 1.0
C      1  0.5595000000000  0.4644820000000  0.5300070000000 1.0
C      1  0.4480640000000  0.5289760000000  0.5216610000000 1.0
C      1  0.5531400000000  0.5256950000000  0.4702750000000 1.0
C      1  0.5307740000000  0.4490250000000  0.5302530000000 1.0
C      1  0.4764970000000  0.5611800000000  0.5310810000000 1.0
C      1  0.5288630000000  0.5556540000000  0.4681280000000 1.0
C      1  0.5465370000000  0.5173230000000  0.5497110000000 1.0
C      1  0.5468330000000  0.5372210000000  0.5160410000000 1.0
C      1  0.5200220000000  0.5449570000000  0.5433760000000 1.0
C      1  0.4504610000000  0.5110440000000  0.4566340000000 1.0
C      1  0.5374260000000  0.4763240000000  0.4580320000000 1.0
C      1  0.4590280000000  0.4830560000000  0.5478800000000 1.0
C      1  0.4546120000000  0.5384800000000  0.4724070000000 1.0
C      1  0.5482280000000  0.4600320000000  0.4833890000000 1.0
C      1  0.4547360000000  0.4541490000000  0.5224210000000 1.0
C      1  0.4814270000000  0.5527710000000  0.4574260000000 1.0
C      1  0.5096210000000  0.4612410000000  0.4568690000000 1.0
C      1  0.4825490000000  0.4516690000000  0.5493800000000 1.0
C      1  0.5707790000000  0.4650600000000  0.5023740000000 1.0
C      1  0.5023500000000  0.5714110000000  0.4662850000000 1.0
C      1  0.4633810000000  0.5042810000000  0.5693130000000 1.0
C      1  0.4323600000000  0.4622540000000  0.5022650000000 1.0
C      1  0.5676570000000  0.5312130000000  0.4956680000000 1.0
C      1  0.4318630000000  0.5330870000000  0.4952000000000 1.0
C      1  0.5042430000000  0.5690460000000  0.5349520000000 1.0
C      1  0.5029700000000  0.4305100000000  0.5385200000000 1.0
C      1  0.5005570000000  0.4341570000000  0.4658030000000 1.0
C      1  0.5313680000000  0.5002390000000  0.4302710000000 1.0
C      1  0.4600060000000  0.5086340000000  0.4279560000000 1.0
C      1  0.5333660000000  0.5039890000000  0.5742640000000 1.0
C      1  0.5297680000000  0.4981830000000  0.5049090000000 1.0
C      1  0.4984510000000  0.5294670000000  0.5018760000000 1.0
C      1  0.5036140000000  0.5086090000000  0.4634110000000 1.0
C      1  0.4985340000000  0.4981210000000  0.5360850000000 1.0
C      1  0.4689650000000  0.4966060000000  0.4994770000000 1.0
C      1  0.5001460000000  0.4656250000000  0.4998080000000 1.0
C      1  0.4988580000000  0.4977910000000  0.5061600000000 1.0
END
