TITL C-3578197-9521-751 -5.10179347647318e-06 125000 -646.861593449516 0 0 106 (C1) n - 1
REM
REM in /home/bkarasulu/work/CARBON/AIRSS/Generating-Clusters/EDIP-Nigel-Params/with-SteepDescent/Higher-Symm/SD-CG/HFTN-CG
REM
REM
REM
REM
REM
REM ./C.cell (12c818d87b63d06a65506943cc24bca4)
REM
REM compiler GCC version 9.2.1 20190827 (Red Hat 9.2.1-1)
REM options -cpp -mtune=generic -march=x86-64 -g -O0 -fpre-include=/usr/include/finclude/math-vector-fortran.h
REM seed -2082242530 1362968328 -378176956 -1707997831 465456773 -761194054 -506155499 -1659091478 627720279 2102238958 594334185 -971433981 584935795 -1205414499 -130282087 -1315206950 898241931 -752987802 1062371149 -243572081 1460902386 1884984517 440283230 -1396532429 488871081 1006999866 535789529 -1659468339 101951054 -2099593415 1438853738 1723251603 952096386
REM
CELL 1.54180   50.00000   50.00000   50.00000   90.00000   90.00000   90.00000
LATT -1
SFAC C  
C      1  0.5753580000000  0.4520550000000  0.4842910000000 1.0
C      1  0.5080950000000  0.4120090000000  0.4837930000000 1.0
C      1  0.4333270000000  0.4331700000000  0.4840280000000 1.0
C      1  0.4110390000000  0.5093400000000  0.4830630000000 1.0
C      1  0.4461670000000  0.5746710000000  0.4828500000000 1.0
C      1  0.5313310000000  0.5826820000000  0.4809090000000 1.0
C      1  0.5866180000000  0.5323350000000  0.4845690000000 1.0
C      1  0.4925610000000  0.4768400000000  0.5235450000000 1.0
C      1  0.4714530000000  0.4827420000000  0.5455200000000 1.0
C      1  0.4689710000000  0.5128520000000  0.5344050000000 1.0
C      1  0.4922010000000  0.5327680000000  0.5392670000000 1.0
C      1  0.5299490000000  0.5235550000000  0.5400770000000 1.0
C      1  0.5400050000000  0.4946540000000  0.5335170000000 1.0
C      1  0.5206960000000  0.4692510000000  0.5297090000000 1.0
C      1  0.5806440000000  0.4642950000000  0.5116360000000 1.0
C      1  0.5167920000000  0.4199900000000  0.5108840000000 1.0
C      1  0.4463990000000  0.4336850000000  0.5107650000000 1.0
C      1  0.4176220000000  0.4951610000000  0.5168010000000 1.0
C      1  0.4542290000000  0.5585840000000  0.5071320000000 1.0
C      1  0.5228610000000  0.5843450000000  0.5096970000000 1.0
C      1  0.5755170000000  0.5372540000000  0.5118900000000 1.0
C      1  0.4788440000000  0.4332200000000  0.5522190000000 1.0
C      1  0.4357390000000  0.4655690000000  0.5571740000000 1.0
C      1  0.4407300000000  0.5364150000000  0.5466880000000 1.0
C      1  0.4836990000000  0.5602950000000  0.5510780000000 1.0
C      1  0.5488000000000  0.5599740000000  0.5568490000000 1.0
C      1  0.5723070000000  0.4873460000000  0.5541080000000 1.0
C      1  0.5267060000000  0.4377600000000  0.5523800000000 1.0
C      1  0.5445090000000  0.4267030000000  0.5093570000000 1.0
C      1  0.4754020000000  0.4345550000000  0.5036540000000 1.0
C      1  0.4294170000000  0.4733600000000  0.5013680000000 1.0
C      1  0.4435680000000  0.5318470000000  0.5026610000000 1.0
C      1  0.4965530000000  0.5716330000000  0.5064970000000 1.0
C      1  0.5496120000000  0.5489370000000  0.5067840000000 1.0
C      1  0.5810510000000  0.4936770000000  0.5055100000000 1.0
C      1  0.4559070000000  0.5599610000000  0.5375170000000 1.0
C      1  0.5211370000000  0.5647430000000  0.5421710000000 1.0
C      1  0.5652820000000  0.5362250000000  0.5492520000000 1.0
C      1  0.5690170000000  0.4623270000000  0.5396240000000 1.0
C      1  0.5041800000000  0.4290040000000  0.5365640000000 1.0
C      1  0.4545170000000  0.4477680000000  0.5400580000000 1.0
C      1  0.4317810000000  0.4931880000000  0.5447410000000 1.0
C      1  0.5313900000000  0.4176750000000  0.4652710000000 1.0
C      1  0.4527750000000  0.4235700000000  0.4641370000000 1.0
C      1  0.4066050000000  0.4889610000000  0.4620250000000 1.0
C      1  0.4327860000000  0.5571450000000  0.4630030000000 1.0
C      1  0.5063240000000  0.5847560000000  0.4640370000000 1.0
C      1  0.5703770000000  0.5488710000000  0.4645410000000 1.0
C      1  0.5845570000000  0.4700850000000  0.4632570000000 1.0
C      1  0.4889510000000  0.5329780000000  0.5855210000000 1.0
C      1  0.5177340000000  0.5299840000000  0.5819380000000 1.0
C      1  0.5348530000000  0.5059680000000  0.5799640000000 1.0
C      1  0.5243390000000  0.4786510000000  0.5774650000000 1.0
C      1  0.4961460000000  0.4706450000000  0.5800820000000 1.0
C      1  0.4730400000000  0.4855170000000  0.5885310000000 1.0
C      1  0.4700520000000  0.5121780000000  0.5786410000000 1.0
C      1  0.4796530000000  0.4208560000000  0.4779190000000 1.0
C      1  0.4133420000000  0.4653010000000  0.4777990000000 1.0
C      1  0.4332040000000  0.5289210000000  0.4760320000000 1.0
C      1  0.4836580000000  0.5796550000000  0.4816780000000 1.0
C      1  0.5440440000000  0.5552720000000  0.4787240000000 1.0
C      1  0.5926240000000  0.5032040000000  0.4802910000000 1.0
C      1  0.5549900000000  0.4291900000000  0.4828560000000 1.0
C      1  0.4552840000000  0.5157600000000  0.4589100000000 1.0
C      1  0.4833450000000  0.5305120000000  0.4630350000000 1.0
C      1  0.5221880000000  0.5331520000000  0.4671790000000 1.0
C      1  0.5370000000000  0.5056610000000  0.4689640000000 1.0
C      1  0.5263530000000  0.4746730000000  0.4735400000000 1.0
C      1  0.4973170000000  0.4681390000000  0.4733840000000 1.0
C      1  0.4585240000000  0.4871610000000  0.4635850000000 1.0
C      1  0.4640920000000  0.5112730000000  0.5051950000000 1.0
C      1  0.5005340000000  0.5410120000000  0.5104230000000 1.0
C      1  0.5280220000000  0.5323010000000  0.5132110000000 1.0
C      1  0.5509530000000  0.4959790000000  0.5037320000000 1.0
C      1  0.5373870000000  0.4640880000000  0.5025950000000 1.0
C      1  0.4812120000000  0.4646100000000  0.4988770000000 1.0
C      1  0.4571330000000  0.4826570000000  0.4929240000000 1.0
C      1  0.5341910000000  0.5025420000000  0.4198840000000 1.0
C      1  0.5223920000000  0.4763140000000  0.4224070000000 1.0
C      1  0.4946380000000  0.4743250000000  0.4294870000000 1.0
C      1  0.4689460000000  0.4820990000000  0.4175250000000 1.0
C      1  0.4647340000000  0.5110140000000  0.4120990000000 1.0
C      1  0.4871990000000  0.5288950000000  0.4188380000000 1.0
C      1  0.5164800000000  0.5257330000000  0.4191370000000 1.0
C      1  0.5283390000000  0.5453230000000  0.4380590000000 1.0
C      1  0.5542580000000  0.5054990000000  0.4424130000000 1.0
C      1  0.5378630000000  0.4620460000000  0.4445580000000 1.0
C      1  0.4924220000000  0.4512880000000  0.4482140000000 1.0
C      1  0.4488360000000  0.4719120000000  0.4389140000000 1.0
C      1  0.4425800000000  0.5203530000000  0.4302830000000 1.0
C      1  0.4794460000000  0.5508170000000  0.4379260000000 1.0
C      1  0.5059960000000  0.5678960000000  0.4394930000000 1.0
C      1  0.5626280000000  0.5355940000000  0.4394850000000 1.0
C      1  0.5664320000000  0.4759480000000  0.4420400000000 1.0
C      1  0.5223780000000  0.4349540000000  0.4431530000000 1.0
C      1  0.4620480000000  0.4425840000000  0.4434080000000 1.0
C      1  0.4234050000000  0.4914350000000  0.4368640000000 1.0
C      1  0.4467220000000  0.5532150000000  0.4363970000000 1.0
C      1  0.5414930000000  0.4583180000000  0.5655490000000 1.0
C      1  0.4880760000000  0.4441190000000  0.5763380000000 1.0
C      1  0.4501840000000  0.4708490000000  0.5810790000000 1.0
C      1  0.4428390000000  0.5183700000000  0.5690670000000 1.0
C      1  0.4802810000000  0.5589880000000  0.5797900000000 1.0
C      1  0.5307150000000  0.5551420000000  0.5786500000000 1.0
C      1  0.5620170000000  0.5111290000000  0.5676360000000 1.0
C      1  0.4875110000000  0.5227670000000  0.4917740000000 1.0
END
