TITL C-3577081-279-253 -1.49504658634094e-06 125000 -928.8840921775 0 0 147 (C1) n - 1
REM
REM in /home/bkarasulu/work/CARBON/AIRSS/Generating-Clusters/EDIP-Nigel-Params/with-SteepDescent/Higher-Symm/SD-CG/HFTN-CG
REM
REM
REM
REM
REM
REM ./C.cell (12c818d87b63d06a65506943cc24bca4)
REM
REM compiler GCC version 9.2.1 20190827 (Red Hat 9.2.1-1)
REM options -cpp -mtune=generic -march=x86-64 -g -O0 -fpre-include=/usr/include/finclude/math-vector-fortran.h
REM seed 180776530 33457633 1720043094 -865570385 -602956046 -803831644 1845467805 -1323746811 -706209665 -834572941 -215024293 1877302796 -2111564426 293387061 -1526858123 -1640331488 -891462987 -764615908 -736835924 -1254186472 -2072610995 1961662300 285339454 -495694589 610149799 -1355775005 -657161508 -1810140338 1647167462 -514072764 412434635 956173504 1348628722
REM
CELL 1.54180   50.00000   50.00000   50.00000   90.00000   90.00000   90.00000
LATT -1
SFAC C  
C      1  0.4789130000000  0.4114810000000  0.4544460000000 1.0
C      1  0.4845660000000  0.5949510000000  0.5582100000000 1.0
C      1  0.4802450000000  0.4170810000000  0.5374560000000 1.0
C      1  0.4797210000000  0.5914690000000  0.4443630000000 1.0
C      1  0.4364390000000  0.5821590000000  0.5182700000000 1.0
C      1  0.4331410000000  0.4233520000000  0.4715380000000 1.0
C      1  0.4366440000000  0.5917420000000  0.4903930000000 1.0
C      1  0.4333430000000  0.4230440000000  0.5279030000000 1.0
C      1  0.4138600000000  0.5389210000000  0.4672450000000 1.0
C      1  0.4125570000000  0.4662030000000  0.5306000000000 1.0
C      1  0.4154990000000  0.5386770000000  0.5364730000000 1.0
C      1  0.4172510000000  0.4677850000000  0.4668360000000 1.0
C      1  0.4655820000000  0.4272010000000  0.5611070000000 1.0
C      1  0.4630110000000  0.5743610000000  0.4283060000000 1.0
C      1  0.4637270000000  0.4244940000000  0.4331990000000 1.0
C      1  0.4712150000000  0.5755250000000  0.5752080000000 1.0
C      1  0.4769320000000  0.5493290000000  0.4200510000000 1.0
C      1  0.4782840000000  0.4412030000000  0.5831280000000 1.0
C      1  0.4896630000000  0.5549410000000  0.5847250000000 1.0
C      1  0.4782360000000  0.4477370000000  0.4214950000000 1.0
C      1  0.4678120000000  0.4686720000000  0.5819180000000 1.0
C      1  0.4777440000000  0.5283930000000  0.4439070000000 1.0
C      1  0.4799430000000  0.4692380000000  0.4446410000000 1.0
C      1  0.4770990000000  0.5281810000000  0.5804800000000 1.0
C      1  0.5437800000000  0.5887360000000  0.5122700000000 1.0
C      1  0.5472030000000  0.4124740000000  0.4828170000000 1.0
C      1  0.5425170000000  0.5882120000000  0.4826950000000 1.0
C      1  0.5493420000000  0.4109630000000  0.5121180000000 1.0
C      1  0.4212610000000  0.5576680000000  0.5144650000000 1.0
C      1  0.4174660000000  0.4442580000000  0.4848620000000 1.0
C      1  0.4133610000000  0.5612640000000  0.4864150000000 1.0
C      1  0.4234200000000  0.4459350000000  0.5132170000000 1.0
C      1  0.5203050000000  0.4436370000000  0.5184090000000 1.0
C      1  0.5198420000000  0.5509640000000  0.4868750000000 1.0
C      1  0.5250040000000  0.4502420000000  0.4880610000000 1.0
C      1  0.5129210000000  0.5575570000000  0.5166640000000 1.0
C      1  0.4036240000000  0.5143610000000  0.5304830000000 1.0
C      1  0.4044590000000  0.4920910000000  0.4715460000000 1.0
C      1  0.4188490000000  0.5143720000000  0.4809020000000 1.0
C      1  0.4133750000000  0.4915580000000  0.5185230000000 1.0
C      1  0.4273390000000  0.4855370000000  0.5752860000000 1.0
C      1  0.4447800000000  0.5153790000000  0.4253440000000 1.0
C      1  0.4478340000000  0.4823300000000  0.4268690000000 1.0
C      1  0.4353590000000  0.5148160000000  0.5777350000000 1.0
C      1  0.4717920000000  0.5318250000000  0.4738980000000 1.0
C      1  0.4785620000000  0.4712220000000  0.5283120000000 1.0
C      1  0.4770200000000  0.5253980000000  0.5264810000000 1.0
C      1  0.4769950000000  0.4627390000000  0.4751500000000 1.0
C      1  0.5126890000000  0.5909810000000  0.5523240000000 1.0
C      1  0.5080720000000  0.4160850000000  0.4529960000000 1.0
C      1  0.5073940000000  0.5846770000000  0.4482590000000 1.0
C      1  0.5098190000000  0.4113240000000  0.5459650000000 1.0
C      1  0.4855190000000  0.4832470000000  0.3922940000000 1.0
C      1  0.4755700000000  0.5110220000000  0.6073970000000 1.0
C      1  0.4780360000000  0.4810100000000  0.6079840000000 1.0
C      1  0.4853000000000  0.5126590000000  0.3932930000000 1.0
C      1  0.4466270000000  0.5640180000000  0.5637800000000 1.0
C      1  0.4376650000000  0.4334990000000  0.4438540000000 1.0
C      1  0.4414110000000  0.5670500000000  0.4464190000000 1.0
C      1  0.4386010000000  0.4362410000000  0.5541360000000 1.0
C      1  0.4314290000000  0.5392110000000  0.5607590000000 1.0
C      1  0.4290930000000  0.4622880000000  0.4408860000000 1.0
C      1  0.4349160000000  0.5383310000000  0.4468400000000 1.0
C      1  0.4300800000000  0.4652840000000  0.5533510000000 1.0
C      1  0.4551160000000  0.4801820000000  0.4862580000000 1.0
C      1  0.4524060000000  0.5120990000000  0.5167600000000 1.0
C      1  0.4508780000000  0.4805920000000  0.5173280000000 1.0
C      1  0.4492240000000  0.5114810000000  0.4858220000000 1.0
C      1  0.5107460000000  0.5247790000000  0.4015390000000 1.0
C      1  0.5066360000000  0.4692620000000  0.6032760000000 1.0
C      1  0.5176090000000  0.5434740000000  0.6088390000000 1.0
C      1  0.5114850000000  0.4712900000000  0.4003140000000 1.0
C      1  0.5185060000000  0.5945530000000  0.5244840000000 1.0
C      1  0.5193670000000  0.4132560000000  0.4783310000000 1.0
C      1  0.5152860000000  0.5874310000000  0.4750370000000 1.0
C      1  0.5233400000000  0.4048360000000  0.5219140000000 1.0
C      1  0.5254240000000  0.5666330000000  0.5940830000000 1.0
C      1  0.5073140000000  0.4445070000000  0.4125790000000 1.0
C      1  0.5061480000000  0.5517890000000  0.4118060000000 1.0
C      1  0.5077350000000  0.4447210000000  0.5840240000000 1.0
C      1  0.5206370000000  0.5166060000000  0.5545980000000 1.0
C      1  0.5379860000000  0.4860510000000  0.4531470000000 1.0
C      1  0.5381530000000  0.5170750000000  0.4535710000000 1.0
C      1  0.5206010000000  0.4847980000000  0.5556380000000 1.0
C      1  0.4626860000000  0.4681360000000  0.4041450000000 1.0
C      1  0.4473840000000  0.5191330000000  0.6036850000000 1.0
C      1  0.4419090000000  0.4718330000000  0.5958520000000 1.0
C      1  0.4615480000000  0.5283050000000  0.4030790000000 1.0
C      1  0.5609920000000  0.4681490000000  0.5594430000000 1.0
C      1  0.5639630000000  0.5336520000000  0.4292680000000 1.0
C      1  0.5632870000000  0.4676460000000  0.4298850000000 1.0
C      1  0.5612010000000  0.5335880000000  0.5586040000000 1.0
C      1  0.4704690000000  0.5577190000000  0.4869750000000 1.0
C      1  0.4879040000000  0.4412940000000  0.5193700000000 1.0
C      1  0.4800950000000  0.5562320000000  0.5162280000000 1.0
C      1  0.4774250000000  0.4367010000000  0.4909010000000 1.0
C      1  0.4632590000000  0.5771540000000  0.5323230000000 1.0
C      1  0.4595310000000  0.4135350000000  0.4847740000000 1.0
C      1  0.4560690000000  0.5790470000000  0.4716930000000 1.0
C      1  0.4563650000000  0.4072110000000  0.5163770000000 1.0
C      1  0.5269730000000  0.5184200000000  0.5982480000000 1.0
C      1  0.5368620000000  0.4842040000000  0.3934300000000 1.0
C      1  0.5361330000000  0.5132910000000  0.3937710000000 1.0
C      1  0.5273920000000  0.4886030000000  0.5991040000000 1.0
C      1  0.5510930000000  0.4420850000000  0.4415530000000 1.0
C      1  0.5516540000000  0.5598290000000  0.5515190000000 1.0
C      1  0.5506310000000  0.4423160000000  0.5506150000000 1.0
C      1  0.5492230000000  0.5578010000000  0.4412930000000 1.0
C      1  0.5605860000000  0.4723870000000  0.4018160000000 1.0
C      1  0.5489930000000  0.5226450000000  0.5809320000000 1.0
C      1  0.5481170000000  0.4782440000000  0.5825550000000 1.0
C      1  0.5591360000000  0.5262810000000  0.4021620000000 1.0
C      1  0.5782270000000  0.4860240000000  0.5430900000000 1.0
C      1  0.5817350000000  0.5160320000000  0.4472660000000 1.0
C      1  0.5817740000000  0.4853980000000  0.4473240000000 1.0
C      1  0.5780010000000  0.5161870000000  0.5424050000000 1.0
C      1  0.5030980000000  0.4720860000000  0.4846610000000 1.0
C      1  0.5002100000000  0.5142110000000  0.5099530000000 1.0
C      1  0.5011470000000  0.4845180000000  0.5112730000000 1.0
C      1  0.5006340000000  0.5255480000000  0.4816510000000 1.0
C      1  0.4878350000000  0.5144620000000  0.5554950000000 1.0
C      1  0.5059320000000  0.4844600000000  0.4423000000000 1.0
C      1  0.5066470000000  0.5146620000000  0.4442390000000 1.0
C      1  0.4857170000000  0.4825860000000  0.5565570000000 1.0
C      1  0.5451570000000  0.5260210000000  0.4823360000000 1.0
C      1  0.5265610000000  0.4756260000000  0.5264830000000 1.0
C      1  0.5245360000000  0.5265000000000  0.5251000000000 1.0
C      1  0.5470670000000  0.4767710000000  0.4816640000000 1.0
C      1  0.5843690000000  0.4450440000000  0.4806680000000 1.0
C      1  0.5815790000000  0.5571050000000  0.5111280000000 1.0
C      1  0.5850340000000  0.4452330000000  0.5116680000000 1.0
C      1  0.5812420000000  0.5572780000000  0.4804690000000 1.0
C      1  0.5565820000000  0.5668130000000  0.4686540000000 1.0
C      1  0.5621220000000  0.4331450000000  0.5253150000000 1.0
C      1  0.5573000000000  0.5665520000000  0.5240670000000 1.0
C      1  0.5605200000000  0.4337490000000  0.4684050000000 1.0
C      1  0.5228420000000  0.4347590000000  0.4355230000000 1.0
C      1  0.5270520000000  0.5690560000000  0.5653050000000 1.0
C      1  0.5236730000000  0.4330030000000  0.5608630000000 1.0
C      1  0.5213630000000  0.5636430000000  0.4337330000000 1.0
C      1  0.5915740000000  0.5303780000000  0.5205790000000 1.0
C      1  0.5791730000000  0.4740050000000  0.4754540000000 1.0
C      1  0.5785420000000  0.5280170000000  0.4751520000000 1.0
C      1  0.5926100000000  0.4725840000000  0.5211920000000 1.0
C      1  0.5955890000000  0.4871150000000  0.4962120000000 1.0
C      1  0.5954870000000  0.5157090000000  0.4959100000000 1.0
C      1  0.5419190000000  0.5009330000000  0.5012790000000 1.0
END
