TITL C-3577091-527-13 -1.21387389498746e-08 125000 -380.43410949765 0 0 64 (C1) n - 1
REM
REM in /home/bkarasulu/work/CARBON/AIRSS/Generating-Clusters/EDIP-Nigel-Params/with-SteepDescent/Higher-Symm/SD-CG/HFTN-CG
REM
REM
REM
REM
REM
REM ./C.cell (12c818d87b63d06a65506943cc24bca4)
REM
REM compiler GCC version 9.2.1 20190827 (Red Hat 9.2.1-1)
REM options -cpp -mtune=generic -march=x86-64 -g -O0 -fpre-include=/usr/include/finclude/math-vector-fortran.h
REM seed 577734384 1735329878 1068467962 -1834603269 258526409 -951520724 1667617954 -763437922 -1851494016 1207490052 703877208 684692840 451339683 1450089691 1181798747 -1850955163 -2090685730 1107316562 2062223091 -642617413 744481231 -1588220343 -2038006102 -596706368 434166089 1803759119 -483160072 -1689197370 -712083301 1745565637 204754312 -672998247 -1145753235
REM
CELL 1.54180   50.00000   50.00000   50.00000   90.00000   90.00000   90.00000
LATT -1
SFAC C  
C      1  0.5275260000000  0.4884290000000  0.5616990000000 1.0
C      1  0.5103680000000  0.5314610000000  0.5657720000000 1.0
C      1  0.4641360000000  0.5162110000000  0.5600200000000 1.0
C      1  0.4857490000000  0.4663760000000  0.5517930000000 1.0
C      1  0.5327610000000  0.5160780000000  0.5592530000000 1.0
C      1  0.5148710000000  0.4651090000000  0.5519340000000 1.0
C      1  0.4750570000000  0.4901610000000  0.5628170000000 1.0
C      1  0.4840930000000  0.5389390000000  0.5594080000000 1.0
C      1  0.4702210000000  0.5525390000000  0.4644950000000 1.0
C      1  0.4507950000000  0.4703370000000  0.4630190000000 1.0
C      1  0.5291810000000  0.4474240000000  0.4643250000000 1.0
C      1  0.5428500000000  0.5260800000000  0.4692100000000 1.0
C      1  0.4703370000000  0.4479200000000  0.4642590000000 1.0
C      1  0.4579130000000  0.5260310000000  0.4695650000000 1.0
C      1  0.5300430000000  0.5523370000000  0.4639000000000 1.0
C      1  0.5478970000000  0.4704680000000  0.4642030000000 1.0
C      1  0.5294110000000  0.4534020000000  0.5276450000000 1.0
C      1  0.5441140000000  0.5258380000000  0.5321450000000 1.0
C      1  0.4766670000000  0.5531120000000  0.5299710000000 1.0
C      1  0.4462600000000  0.4748810000000  0.5218530000000 1.0
C      1  0.5245830000000  0.5567780000000  0.5217560000000 1.0
C      1  0.5536730000000  0.4740810000000  0.5226400000000 1.0
C      1  0.4704120000000  0.4544720000000  0.5277280000000 1.0
C      1  0.4544510000000  0.5237750000000  0.5306410000000 1.0
C      1  0.4684740000000  0.5758500000000  0.5107720000000 1.0
C      1  0.4227290000000  0.4661890000000  0.5064510000000 1.0
C      1  0.5314900000000  0.4260090000000  0.5126100000000 1.0
C      1  0.5701610000000  0.5278740000000  0.5128770000000 1.0
C      1  0.4679600000000  0.4266900000000  0.5130380000000 1.0
C      1  0.4295910000000  0.5285840000000  0.5115580000000 1.0
C      1  0.5352180000000  0.5796170000000  0.5074300000000 1.0
C      1  0.5769260000000  0.4655360000000  0.5067540000000 1.0
C      1  0.5580880000000  0.4187370000000  0.5088770000000 1.0
C      1  0.5772620000000  0.5548820000000  0.5101240000000 1.0
C      1  0.4408570000000  0.5770670000000  0.5082550000000 1.0
C      1  0.4228400000000  0.4382990000000  0.5047130000000 1.0
C      1  0.5629010000000  0.5770890000000  0.5050470000000 1.0
C      1  0.5766010000000  0.4376840000000  0.5044780000000 1.0
C      1  0.4412920000000  0.4194490000000  0.5097200000000 1.0
C      1  0.4243970000000  0.5559660000000  0.5094920000000 1.0
C      1  0.4856860000000  0.4550410000000  0.4405090000000 1.0
C      1  0.5372570000000  0.4847690000000  0.4416130000000 1.0
C      1  0.5144810000000  0.5443700000000  0.4404070000000 1.0
C      1  0.4654080000000  0.5132520000000  0.4445800000000 1.0
C      1  0.4856760000000  0.5448450000000  0.4405820000000 1.0
C      1  0.5353050000000  0.5130150000000  0.4443070000000 1.0
C      1  0.5140690000000  0.4546940000000  0.4404370000000 1.0
C      1  0.4624340000000  0.4850820000000  0.4410990000000 1.0
C      1  0.5150470000000  0.5361670000000  0.5018190000000 1.0
C      1  0.4756380000000  0.5117070000000  0.5141940000000 1.0
C      1  0.4848290000000  0.4654160000000  0.5017670000000 1.0
C      1  0.5346990000000  0.4891420000000  0.5019630000000 1.0
C      1  0.5153060000000  0.4652770000000  0.5018720000000 1.0
C      1  0.4651780000000  0.4889470000000  0.5003090000000 1.0
C      1  0.4858300000000  0.5366420000000  0.5020500000000 1.0
C      1  0.5236250000000  0.5120220000000  0.5159030000000 1.0
C      1  0.5159550000000  0.4295940000000  0.4859630000000 1.0
C      1  0.5658560000000  0.5153430000000  0.4853820000000 1.0
C      1  0.4838820000000  0.5714600000000  0.4844260000000 1.0
C      1  0.4310210000000  0.4840960000000  0.4821310000000 1.0
C      1  0.5171190000000  0.5721400000000  0.4831820000000 1.0
C      1  0.5683560000000  0.4836920000000  0.4828090000000 1.0
C      1  0.4831420000000  0.4297200000000  0.4859890000000 1.0
C      1  0.4340460000000  0.5158070000000  0.4844610000000 1.0
END
