TITL C-3577086-586-562 -7.63467397072327e-07 125000 -1235.86959769542 0 0 197 (C1) n - 1
REM
REM in /home/bkarasulu/work/CARBON/AIRSS/Generating-Clusters/EDIP-Nigel-Params/with-SteepDescent/Higher-Symm/SD-CG/HFTN-CG
REM
REM
REM
REM
REM
REM ./C.cell (12c818d87b63d06a65506943cc24bca4)
REM
REM compiler GCC version 9.2.1 20190827 (Red Hat 9.2.1-1)
REM options -cpp -mtune=generic -march=x86-64 -g -O0 -fpre-include=/usr/include/finclude/math-vector-fortran.h
REM seed -807402621 1973093257 -1317215227 -1990764809 -2018172915 1248541781 -1022759076 -1122543325 -347313132 -2056233549 480059693 1672185323 233886844 326520017 -850912053 -871941970 666525217 -2139478803 1669311387 723514796 -1458808434 -253282359 -1829640663 -1008438927 1188968451 -1773854904 1992905163 1974569375 1280974938 -674884834 152652228 -289534888 519045226
REM
CELL 1.54180   50.00000   50.00000   50.00000   90.00000   90.00000   90.00000
LATT -1
SFAC C  
C      1  0.4873350000000  0.4780260000000  0.6024620000000 1.0
C      1  0.5031840000000  0.5804030000000  0.5592680000000 1.0
C      1  0.4772480000000  0.5807880000000  0.4400030000000 1.0
C      1  0.4939610000000  0.4587010000000  0.4110570000000 1.0
C      1  0.4748270000000  0.4044410000000  0.5169670000000 1.0
C      1  0.5153780000000  0.4747650000000  0.5968470000000 1.0
C      1  0.5219690000000  0.5694420000000  0.5796050000000 1.0
C      1  0.5259060000000  0.5648940000000  0.4355980000000 1.0
C      1  0.5232500000000  0.4640100000000  0.4201390000000 1.0
C      1  0.5339410000000  0.4034460000000  0.4962110000000 1.0
C      1  0.3913120000000  0.4576620000000  0.4641280000000 1.0
C      1  0.3943640000000  0.4594580000000  0.5260460000000 1.0
C      1  0.3956560000000  0.5192820000000  0.5484340000000 1.0
C      1  0.3987610000000  0.5596560000000  0.4998900000000 1.0
C      1  0.3941630000000  0.5243060000000  0.4431680000000 1.0
C      1  0.6041760000000  0.4641900000000  0.4575490000000 1.0
C      1  0.6122820000000  0.4493820000000  0.5230820000000 1.0
C      1  0.5995370000000  0.5087360000000  0.5547420000000 1.0
C      1  0.5852380000000  0.5585230000000  0.5106180000000 1.0
C      1  0.5952510000000  0.5293720000000  0.4494080000000 1.0
C      1  0.5144410000000  0.5411300000000  0.5842280000000 1.0
C      1  0.5214170000000  0.5900650000000  0.4715300000000 1.0
C      1  0.5184620000000  0.5052890000000  0.4102290000000 1.0
C      1  0.5140880000000  0.4130990000000  0.4678710000000 1.0
C      1  0.5277430000000  0.4291630000000  0.5702550000000 1.0
C      1  0.4844970000000  0.5390630000000  0.5893340000000 1.0
C      1  0.4909090000000  0.5848390000000  0.4689400000000 1.0
C      1  0.4888300000000  0.5023430000000  0.4083080000000 1.0
C      1  0.4836320000000  0.4069710000000  0.4648590000000 1.0
C      1  0.4960000000000  0.4300300000000  0.5738590000000 1.0
C      1  0.5034730000000  0.4640400000000  0.4676240000000 1.0
C      1  0.5201740000000  0.4473490000000  0.5277780000000 1.0
C      1  0.5081220000000  0.5014340000000  0.5544660000000 1.0
C      1  0.5237460000000  0.5548270000000  0.5118370000000 1.0
C      1  0.5088970000000  0.5244900000000  0.4580020000000 1.0
C      1  0.4773560000000  0.4542000000000  0.4574950000000 1.0
C      1  0.4908700000000  0.4511990000000  0.5261370000000 1.0
C      1  0.4795440000000  0.5033670000000  0.5589630000000 1.0
C      1  0.4947440000000  0.5533000000000  0.5136480000000 1.0
C      1  0.4816380000000  0.5289890000000  0.4495850000000 1.0
C      1  0.5107560000000  0.5569040000000  0.4131020000000 1.0
C      1  0.5215890000000  0.4254810000000  0.4166650000000 1.0
C      1  0.5245950000000  0.3964420000000  0.5257340000000 1.0
C      1  0.5166360000000  0.5051550000000  0.6203380000000 1.0
C      1  0.5266810000000  0.6162040000000  0.5480010000000 1.0
C      1  0.4812690000000  0.5601850000000  0.4184670000000 1.0
C      1  0.4956360000000  0.4308220000000  0.4079540000000 1.0
C      1  0.4970350000000  0.3922110000000  0.5276400000000 1.0
C      1  0.4883490000000  0.5003720000000  0.6203920000000 1.0
C      1  0.5023080000000  0.6083130000000  0.5564130000000 1.0
C      1  0.5676540000000  0.4652730000000  0.4190720000000 1.0
C      1  0.5829340000000  0.4121320000000  0.5086880000000 1.0
C      1  0.5736370000000  0.4748220000000  0.5842610000000 1.0
C      1  0.5610290000000  0.5811870000000  0.5481980000000 1.0
C      1  0.5694130000000  0.5738580000000  0.4393520000000 1.0
C      1  0.4258070000000  0.4528570000000  0.4300540000000 1.0
C      1  0.4252590000000  0.4194120000000  0.5188850000000 1.0
C      1  0.4285660000000  0.4999640000000  0.5792730000000 1.0
C      1  0.4383860000000  0.5773310000000  0.5259760000000 1.0
C      1  0.4343230000000  0.5572870000000  0.4314980000000 1.0
C      1  0.4288510000000  0.4191640000000  0.4729970000000 1.0
C      1  0.4328010000000  0.4562700000000  0.5624020000000 1.0
C      1  0.4384000000000  0.5477720000000  0.5621790000000 1.0
C      1  0.4423410000000  0.5765160000000  0.4739240000000 1.0
C      1  0.4338890000000  0.4984240000000  0.4184190000000 1.0
C      1  0.5701460000000  0.4255660000000  0.4673100000000 1.0
C      1  0.5784940000000  0.4345410000000  0.5617000000000 1.0
C      1  0.5656800000000  0.5429640000000  0.5794680000000 1.0
C      1  0.5641780000000  0.5954550000000  0.4824850000000 1.0
C      1  0.5647380000000  0.5106010000000  0.4115660000000 1.0
C      1  0.4405220000000  0.5448420000000  0.5919540000000 1.0
C      1  0.4525270000000  0.6014310000000  0.4884330000000 1.0
C      1  0.4487520000000  0.5193550000000  0.4021790000000 1.0
C      1  0.4392040000000  0.4106010000000  0.4469960000000 1.0
C      1  0.4433050000000  0.4289800000000  0.5616330000000 1.0
C      1  0.5566120000000  0.5232870000000  0.5993280000000 1.0
C      1  0.5456950000000  0.6080390000000  0.5036020000000 1.0
C      1  0.5537530000000  0.5366570000000  0.4045770000000 1.0
C      1  0.5577950000000  0.4215150000000  0.4420890000000 1.0
C      1  0.5677310000000  0.4102590000000  0.5500620000000 1.0
C      1  0.5249410000000  0.5338520000000  0.4000640000000 1.0
C      1  0.5299780000000  0.4140030000000  0.4415160000000 1.0
C      1  0.5385100000000  0.4066000000000  0.5512700000000 1.0
C      1  0.5291120000000  0.5276010000000  0.6070250000000 1.0
C      1  0.5186940000000  0.6124320000000  0.4913830000000 1.0
C      1  0.4716950000000  0.5105750000000  0.3874730000000 1.0
C      1  0.4648860000000  0.3987610000000  0.4454160000000 1.0
C      1  0.4684270000000  0.4184980000000  0.5723940000000 1.0
C      1  0.4648840000000  0.5526970000000  0.6039920000000 1.0
C      1  0.4809070000000  0.6083060000000  0.4837250000000 1.0
C      1  0.4542710000000  0.5458700000000  0.4139730000000 1.0
C      1  0.4284290000000  0.4252100000000  0.4260550000000 1.0
C      1  0.4286650000000  0.4120230000000  0.5454030000000 1.0
C      1  0.4303070000000  0.5199520000000  0.5987840000000 1.0
C      1  0.4427670000000  0.6022520000000  0.5143550000000 1.0
C      1  0.5632880000000  0.5615680000000  0.4145600000000 1.0
C      1  0.5649440000000  0.4377740000000  0.4206940000000 1.0
C      1  0.5837270000000  0.3963200000000  0.5317710000000 1.0
C      1  0.5660200000000  0.4968510000000  0.5995590000000 1.0
C      1  0.5447990000000  0.6011840000000  0.5329900000000 1.0
C      1  0.4051090000000  0.4363940000000  0.4798760000000 1.0
C      1  0.4073470000000  0.4671890000000  0.5519100000000 1.0
C      1  0.4128350000000  0.5431380000000  0.5469730000000 1.0
C      1  0.4135180000000  0.5663110000000  0.4748050000000 1.0
C      1  0.4066180000000  0.4975710000000  0.4319400000000 1.0
C      1  0.5963690000000  0.4382010000000  0.4713600000000 1.0
C      1  0.5965210000000  0.4539290000000  0.5485250000000 1.0
C      1  0.5826950000000  0.5352380000000  0.5568040000000 1.0
C      1  0.5691250000000  0.5653470000000  0.4855180000000 1.0
C      1  0.5866490000000  0.5068360000000  0.4301410000000 1.0
C      1  0.5358610000000  0.4418030000000  0.5025480000000 1.0
C      1  0.5201390000000  0.4783360000000  0.5688530000000 1.0
C      1  0.5391930000000  0.5383440000000  0.5318480000000 1.0
C      1  0.5266850000000  0.5481540000000  0.4585540000000 1.0
C      1  0.5248480000000  0.4761210000000  0.4488400000000 1.0
C      1  0.4782800000000  0.4309490000000  0.5068490000000 1.0
C      1  0.4729220000000  0.4781440000000  0.5755970000000 1.0
C      1  0.4836840000000  0.5610570000000  0.5447570000000 1.0
C      1  0.4650960000000  0.5452170000000  0.4691090000000 1.0
C      1  0.4723540000000  0.4676680000000  0.4301850000000 1.0
C      1  0.4417330000000  0.4084560000000  0.4975150000000 1.0
C      1  0.4440330000000  0.4757630000000  0.5801480000000 1.0
C      1  0.4544100000000  0.5692940000000  0.5484100000000 1.0
C      1  0.4487280000000  0.5781850000000  0.4455230000000 1.0
C      1  0.4445820000000  0.4705590000000  0.4178570000000 1.0
C      1  0.5623960000000  0.4092350000000  0.4895140000000 1.0
C      1  0.5602880000000  0.4477000000000  0.5804350000000 1.0
C      1  0.5517820000000  0.5698060000000  0.5747620000000 1.0
C      1  0.5552830000000  0.5955190000000  0.4538090000000 1.0
C      1  0.5512060000000  0.4849960000000  0.4031970000000 1.0
C      1  0.5486260000000  0.4876350000000  0.4765300000000 1.0
C      1  0.5516760000000  0.4690280000000  0.5011950000000 1.0
C      1  0.5414470000000  0.4860360000000  0.5247200000000 1.0
C      1  0.5497920000000  0.5137410000000  0.5165880000000 1.0
C      1  0.5382510000000  0.5119300000000  0.4891720000000 1.0
C      1  0.4638910000000  0.4937100000000  0.4722670000000 1.0
C      1  0.4493080000000  0.4761580000000  0.4933880000000 1.0
C      1  0.4519520000000  0.4927340000000  0.5191820000000 1.0
C      1  0.4617680000000  0.5196910000000  0.5109650000000 1.0
C      1  0.4532090000000  0.5213250000000  0.4829630000000 1.0
C      1  0.5689380000000  0.5544270000000  0.5362830000000 1.0
C      1  0.5802520000000  0.5552870000000  0.4585900000000 1.0
C      1  0.5897930000000  0.4773110000000  0.4337140000000 1.0
C      1  0.6028670000000  0.4315820000000  0.5007660000000 1.0
C      1  0.5940480000000  0.4791760000000  0.5643040000000 1.0
C      1  0.4128300000000  0.5634320000000  0.5259940000000 1.0
C      1  0.4127970000000  0.5477960000000  0.4503850000000 1.0
C      1  0.4022910000000  0.4674050000000  0.4389220000000 1.0
C      1  0.4042620000000  0.4368750000000  0.5095060000000 1.0
C      1  0.4055580000000  0.4953190000000  0.5623940000000 1.0
C      1  0.3673100000000  0.4683230000000  0.5205620000000 1.0
C      1  0.3710880000000  0.5187430000000  0.5336130000000 1.0
C      1  0.3695490000000  0.5551580000000  0.4987840000000 1.0
C      1  0.3723620000000  0.5208110000000  0.4619050000000 1.0
C      1  0.3665460000000  0.4692870000000  0.4730550000000 1.0
C      1  0.6327870000000  0.4685850000000  0.5159300000000 1.0
C      1  0.6264640000000  0.5140550000000  0.5441090000000 1.0
C      1  0.6134700000000  0.5491330000000  0.5088000000000 1.0
C      1  0.6221750000000  0.5269480000000  0.4610650000000 1.0
C      1  0.6302290000000  0.4752850000000  0.4643020000000 1.0
C      1  0.6399750000000  0.4685130000000  0.4892530000000 1.0
C      1  0.6361280000000  0.4924230000000  0.5297510000000 1.0
C      1  0.6262410000000  0.5386500000000  0.5312060000000 1.0
C      1  0.6250620000000  0.5409660000000  0.4847760000000 1.0
C      1  0.6340630000000  0.5020840000000  0.4583150000000 1.0
C      1  0.3559020000000  0.4594900000000  0.4968100000000 1.0
C      1  0.3599990000000  0.4941060000000  0.5278130000000 1.0
C      1  0.3612740000000  0.5416420000000  0.5214290000000 1.0
C      1  0.3621400000000  0.5429980000000  0.4750620000000 1.0
C      1  0.3609670000000  0.4956580000000  0.4656390000000 1.0
C      1  0.5782100000000  0.4950180000000  0.4713710000000 1.0
C      1  0.5845340000000  0.4709450000000  0.4962250000000 1.0
C      1  0.5935910000000  0.4888780000000  0.5216010000000 1.0
C      1  0.5795080000000  0.5158580000000  0.5171300000000 1.0
C      1  0.5862690000000  0.5218310000000  0.4866830000000 1.0
C      1  0.4118250000000  0.4960780000000  0.4707990000000 1.0
C      1  0.4189130000000  0.4750740000000  0.4937330000000 1.0
C      1  0.4195580000000  0.4945020000000  0.5209750000000 1.0
C      1  0.4102940000000  0.5234820000000  0.5073940000000 1.0
C      1  0.4234010000000  0.5234930000000  0.4793300000000 1.0
C      1  0.4805610000000  0.4517270000000  0.5573720000000 1.0
C      1  0.4744780000000  0.5332860000000  0.5630730000000 1.0
C      1  0.4824140000000  0.5622210000000  0.4867550000000 1.0
C      1  0.4728870000000  0.5025110000000  0.4353490000000 1.0
C      1  0.4690300000000  0.4299800000000  0.4769080000000 1.0
C      1  0.5329410000000  0.4555700000000  0.5543410000000 1.0
C      1  0.5218600000000  0.5277750000000  0.5573310000000 1.0
C      1  0.5355280000000  0.5618270000000  0.4845770000000 1.0
C      1  0.5202390000000  0.5037590000000  0.4399680000000 1.0
C      1  0.5157700000000  0.4405420000000  0.4807500000000 1.0
C      1  0.5111080000000  0.4945510000000  0.5268800000000 1.0
C      1  0.5083130000000  0.5127810000000  0.4858050000000 1.0
C      1  0.4921960000000  0.4861730000000  0.4850070000000 1.0
C      1  0.4879540000000  0.4786150000000  0.5148370000000 1.0
C      1  0.4912800000000  0.5242430000000  0.5115640000000 1.0
C      1  0.6110250000000  0.5002430000000  0.4945610000000 1.0
C      1  0.3877950000000  0.4995610000000  0.4973750000000 1.0
END
