TITL C-3578206-1180-226 1.60222320349171e-06 125000 -1196.76765126605 0 0 189 (C1) n - 1
REM
REM in /home/bkarasulu/work/CARBON/AIRSS/Generating-Clusters/EDIP-Nigel-Params/with-SteepDescent/Higher-Symm/SD-CG/HFTN-CG
REM
REM
REM
REM
REM
REM ./C.cell (12c818d87b63d06a65506943cc24bca4)
REM
REM compiler GCC version 9.2.1 20190827 (Red Hat 9.2.1-1)
REM options -cpp -mtune=generic -march=x86-64 -g -O0 -fpre-include=/usr/include/finclude/math-vector-fortran.h
REM seed 1934976675 1703580134 -1613691320 1545253080 -1526186894 -591845224 842838220 257046468 1485116472 1249846380 1476544164 1611514511 106866024 -2115484327 378080847 741168596 1247392559 2078020731 -977699429 -2147181989 1743777702 61434975 -1875206096 -291052907 -237990327 1201947780 -1355444389 -1993441375 -661897469 906554717 24890733 1250172606 150736657
REM
CELL 1.54180   50.00000   50.00000   50.00000   90.00000   90.00000   90.00000
LATT -1
SFAC C  
C      1  0.5529840000000  0.5452530000000  0.4378130000000 1.0
C      1  0.4744480000000  0.5689280000000  0.4154210000000 1.0
C      1  0.4873440000000  0.4948710000000  0.4371080000000 1.0
C      1  0.5240460000000  0.5526380000000  0.4876710000000 1.0
C      1  0.5416060000000  0.5104650000000  0.5493910000000 1.0
C      1  0.4642150000000  0.5095740000000  0.5851800000000 1.0
C      1  0.4655110000000  0.5208100000000  0.5556400000000 1.0
C      1  0.4627900000000  0.5549260000000  0.5971980000000 1.0
C      1  0.5428980000000  0.4802790000000  0.5480060000000 1.0
C      1  0.5088260000000  0.5995280000000  0.4349720000000 1.0
C      1  0.5052310000000  0.5775120000000  0.4888710000000 1.0
C      1  0.4081260000000  0.4412280000000  0.4844770000000 1.0
C      1  0.5023410000000  0.4451060000000  0.4615930000000 1.0
C      1  0.5415160000000  0.4939460000000  0.4780800000000 1.0
C      1  0.4663660000000  0.4549090000000  0.5921560000000 1.0
C      1  0.5845160000000  0.5173330000000  0.5583230000000 1.0
C      1  0.5580030000000  0.4753780000000  0.5755630000000 1.0
C      1  0.4047120000000  0.5707430000000  0.5161960000000 1.0
C      1  0.4968500000000  0.4542120000000  0.3898810000000 1.0
C      1  0.4659150000000  0.6165230000000  0.4967740000000 1.0
C      1  0.4998940000000  0.6099690000000  0.4596350000000 1.0
C      1  0.4910410000000  0.5112670000000  0.4783020000000 1.0
C      1  0.5962590000000  0.5383670000000  0.4824890000000 1.0
C      1  0.4627630000000  0.5933820000000  0.5353790000000 1.0
C      1  0.5142060000000  0.4241540000000  0.4788770000000 1.0
C      1  0.5569920000000  0.3935800000000  0.5063490000000 1.0
C      1  0.4656850000000  0.5059090000000  0.5144260000000 1.0
C      1  0.5887630000000  0.5557130000000  0.5288210000000 1.0
C      1  0.5753170000000  0.4501730000000  0.5762760000000 1.0
C      1  0.5768310000000  0.4299450000000  0.4494690000000 1.0
C      1  0.6068760000000  0.4828030000000  0.4950680000000 1.0
C      1  0.5050370000000  0.4607740000000  0.5038150000000 1.0
C      1  0.4365720000000  0.4685670000000  0.5142930000000 1.0
C      1  0.5402310000000  0.5532570000000  0.5161030000000 1.0
C      1  0.5349910000000  0.4418130000000  0.4233360000000 1.0
C      1  0.3898470000000  0.5216060000000  0.5274650000000 1.0
C      1  0.4673290000000  0.4950910000000  0.4871270000000 1.0
C      1  0.5557380000000  0.5878970000000  0.5641400000000 1.0
C      1  0.5681930000000  0.5670570000000  0.4499360000000 1.0
C      1  0.4853920000000  0.6117000000000  0.5416500000000 1.0
C      1  0.5291970000000  0.5085640000000  0.4562090000000 1.0
C      1  0.4498730000000  0.5801250000000  0.5586770000000 1.0
C      1  0.4902070000000  0.5022100000000  0.5316790000000 1.0
C      1  0.5494740000000  0.5507880000000  0.5933200000000 1.0
C      1  0.5668250000000  0.4981540000000  0.4197380000000 1.0
C      1  0.5863250000000  0.4386100000000  0.5522620000000 1.0
C      1  0.4022720000000  0.5416460000000  0.5075260000000 1.0
C      1  0.5267090000000  0.4572920000000  0.3984680000000 1.0
C      1  0.3967430000000  0.5396090000000  0.4771450000000 1.0
C      1  0.5656120000000  0.4429780000000  0.4256060000000 1.0
C      1  0.4594350000000  0.4522760000000  0.4873890000000 1.0
C      1  0.5915760000000  0.5164370000000  0.4600050000000 1.0
C      1  0.5125660000000  0.6008650000000  0.5505340000000 1.0
C      1  0.5279250000000  0.5916610000000  0.5758300000000 1.0
C      1  0.6037630000000  0.4807770000000  0.5243200000000 1.0
C      1  0.4210210000000  0.5541520000000  0.4651150000000 1.0
C      1  0.4373050000000  0.4594750000000  0.4340720000000 1.0
C      1  0.5975110000000  0.4589500000000  0.4810260000000 1.0
C      1  0.4523710000000  0.4234530000000  0.4754790000000 1.0
C      1  0.5246500000000  0.4593080000000  0.4478850000000 1.0
C      1  0.4936110000000  0.5741860000000  0.5198180000000 1.0
C      1  0.5357820000000  0.3950880000000  0.5256260000000 1.0
C      1  0.5540620000000  0.4751860000000  0.5191690000000 1.0
C      1  0.4147200000000  0.4547280000000  0.5306120000000 1.0
C      1  0.5159570000000  0.4886050000000  0.4368720000000 1.0
C      1  0.4802230000000  0.5192390000000  0.4520670000000 1.0
C      1  0.5629020000000  0.5605500000000  0.5696800000000 1.0
C      1  0.4825750000000  0.5687510000000  0.4685570000000 1.0
C      1  0.4704800000000  0.5669650000000  0.5732920000000 1.0
C      1  0.5501780000000  0.5209470000000  0.5983480000000 1.0
C      1  0.4345920000000  0.5314130000000  0.5431600000000 1.0
C      1  0.5423740000000  0.3904980000000  0.5533580000000 1.0
C      1  0.4599520000000  0.4498230000000  0.5188410000000 1.0
C      1  0.5657350000000  0.5725710000000  0.5174610000000 1.0
C      1  0.5948830000000  0.5083210000000  0.5319060000000 1.0
C      1  0.4807120000000  0.5487190000000  0.5522180000000 1.0
C      1  0.4052870000000  0.4867130000000  0.5590410000000 1.0
C      1  0.5333430000000  0.5110700000000  0.3935760000000 1.0
C      1  0.4915970000000  0.5907560000000  0.4151910000000 1.0
C      1  0.4956460000000  0.4054970000000  0.4260430000000 1.0
C      1  0.5104120000000  0.5478940000000  0.5602370000000 1.0
C      1  0.5014600000000  0.5303030000000  0.6079260000000 1.0
C      1  0.5263480000000  0.5389740000000  0.4558520000000 1.0
C      1  0.4621890000000  0.4774960000000  0.5544800000000 1.0
C      1  0.4361400000000  0.5247080000000  0.4269670000000 1.0
C      1  0.4493350000000  0.4122460000000  0.4308460000000 1.0
C      1  0.5767020000000  0.4675390000000  0.4601300000000 1.0
C      1  0.4849960000000  0.5414070000000  0.4103680000000 1.0
C      1  0.4413450000000  0.5383930000000  0.4832710000000 1.0
C      1  0.5562680000000  0.5005880000000  0.5027710000000 1.0
C      1  0.4093540000000  0.4313750000000  0.5121590000000 1.0
C      1  0.4220310000000  0.5057740000000  0.4478680000000 1.0
C      1  0.5166620000000  0.5179620000000  0.5632490000000 1.0
C      1  0.5215160000000  0.5367960000000  0.4011950000000 1.0
C      1  0.4533310000000  0.4233130000000  0.5637190000000 1.0
C      1  0.5830940000000  0.4424660000000  0.5013210000000 1.0
C      1  0.4892080000000  0.6223970000000  0.5142550000000 1.0
C      1  0.4617420000000  0.5201620000000  0.4111040000000 1.0
C      1  0.4788360000000  0.4003760000000  0.5079690000000 1.0
C      1  0.5479890000000  0.4663400000000  0.4711180000000 1.0
C      1  0.4715790000000  0.6064360000000  0.4691270000000 1.0
C      1  0.4931890000000  0.4852080000000  0.3915330000000 1.0
C      1  0.3908560000000  0.4738070000000  0.5357700000000 1.0
C      1  0.5608150000000  0.5058960000000  0.3934490000000 1.0
C      1  0.5778240000000  0.5605210000000  0.4759310000000 1.0
C      1  0.5702990000000  0.5839260000000  0.4903010000000 1.0
C      1  0.4536430000000  0.5702460000000  0.4354950000000 1.0
C      1  0.4079650000000  0.5161280000000  0.5513610000000 1.0
C      1  0.5973900000000  0.5322690000000  0.5134770000000 1.0
C      1  0.4488170000000  0.5919090000000  0.4549400000000 1.0
C      1  0.4319040000000  0.5512610000000  0.4369360000000 1.0
C      1  0.5198360000000  0.4203620000000  0.5285960000000 1.0
C      1  0.5370900000000  0.5960620000000  0.4319350000000 1.0
C      1  0.5217380000000  0.5632810000000  0.5863690000000 1.0
C      1  0.4969460000000  0.4724070000000  0.5282870000000 1.0
C      1  0.5178700000000  0.3892170000000  0.5669930000000 1.0
C      1  0.4723150000000  0.4915850000000  0.4120660000000 1.0
C      1  0.5014490000000  0.5321370000000  0.4972000000000 1.0
C      1  0.3849030000000  0.4949730000000  0.5152710000000 1.0
C      1  0.4734570000000  0.5301710000000  0.6041860000000 1.0
C      1  0.5758590000000  0.4085730000000  0.4690940000000 1.0
C      1  0.4507460000000  0.4056170000000  0.4994240000000 1.0
C      1  0.4300340000000  0.5317950000000  0.5111470000000 1.0
C      1  0.5720310000000  0.5207520000000  0.4377370000000 1.0
C      1  0.4797370000000  0.5477480000000  0.5128650000000 1.0
C      1  0.5232160000000  0.4379930000000  0.5036480000000 1.0
C      1  0.4723250000000  0.4408840000000  0.5460170000000 1.0
C      1  0.4875560000000  0.4627380000000  0.4806610000000 1.0
C      1  0.4645960000000  0.5553950000000  0.4887020000000 1.0
C      1  0.4049040000000  0.5737430000000  0.5438300000000 1.0
C      1  0.4299980000000  0.4315830000000  0.4386220000000 1.0
C      1  0.4470120000000  0.4908350000000  0.5299660000000 1.0
C      1  0.5514060000000  0.4518490000000  0.4993260000000 1.0
C      1  0.4449120000000  0.6042280000000  0.5137300000000 1.0
C      1  0.5771090000000  0.4716540000000  0.4287650000000 1.0
C      1  0.3937920000000  0.4670930000000  0.4484790000000 1.0
C      1  0.3943920000000  0.4904190000000  0.4877370000000 1.0
C      1  0.4253790000000  0.5831560000000  0.4719520000000 1.0
C      1  0.5540150000000  0.5915920000000  0.4555530000000 1.0
C      1  0.4917610000000  0.3944820000000  0.5579250000000 1.0
C      1  0.4972910000000  0.4846650000000  0.5704590000000 1.0
C      1  0.5132570000000  0.4853340000000  0.5968110000000 1.0
C      1  0.3920460000000  0.4639210000000  0.4761160000000 1.0
C      1  0.4901860000000  0.4133140000000  0.5340300000000 1.0
C      1  0.4756790000000  0.4089750000000  0.5774940000000 1.0
C      1  0.5117540000000  0.5166950000000  0.5174810000000 1.0
C      1  0.5847690000000  0.5008410000000  0.4857810000000 1.0
C      1  0.5615450000000  0.4105670000000  0.5615650000000 1.0
C      1  0.4280380000000  0.4104650000000  0.5156810000000 1.0
C      1  0.5879010000000  0.4138080000000  0.4958280000000 1.0
C      1  0.5406150000000  0.5211930000000  0.5218160000000 1.0
C      1  0.5212940000000  0.6109450000000  0.4784070000000 1.0
C      1  0.4478960000000  0.5126040000000  0.4680710000000 1.0
C      1  0.5424180000000  0.5808890000000  0.4089760000000 1.0
C      1  0.4727200000000  0.4184010000000  0.4156200000000 1.0
C      1  0.5234660000000  0.4126650000000  0.4230090000000 1.0
C      1  0.5704390000000  0.5035230000000  0.5820140000000 1.0
C      1  0.5131960000000  0.4400920000000  0.5611210000000 1.0
C      1  0.5188910000000  0.5653160000000  0.5358970000000 1.0
C      1  0.5503980000000  0.3986420000000  0.4787320000000 1.0
C      1  0.4256370000000  0.5858240000000  0.5010650000000 1.0
C      1  0.5570870000000  0.4280210000000  0.5839490000000 1.0
C      1  0.4633920000000  0.4831140000000  0.5967020000000 1.0
C      1  0.4321470000000  0.4661020000000  0.5629880000000 1.0
C      1  0.5207830000000  0.5141210000000  0.5938440000000 1.0
C      1  0.5577630000000  0.5956150000000  0.5354250000000 1.0
C      1  0.5165860000000  0.6166960000000  0.5056960000000 1.0
C      1  0.4564790000000  0.4654710000000  0.4138640000000 1.0
C      1  0.4759180000000  0.4104290000000  0.4588890000000 1.0
C      1  0.4166120000000  0.4784550000000  0.4372080000000 1.0
C      1  0.4163500000000  0.4236170000000  0.4630730000000 1.0
C      1  0.5314770000000  0.6071870000000  0.5291690000000 1.0
C      1  0.5088250000000  0.3768450000000  0.4727520000000 1.0
C      1  0.4901720000000  0.4348270000000  0.5852840000000 1.0
C      1  0.5139520000000  0.4684030000000  0.5515120000000 1.0
C      1  0.5290970000000  0.4392440000000  0.5888640000000 1.0
C      1  0.5434880000000  0.5531480000000  0.4107470000000 1.0
C      1  0.5837660000000  0.5465100000000  0.5562560000000 1.0
C      1  0.5343490000000  0.3820480000000  0.4620120000000 1.0
C      1  0.4283420000000  0.5608550000000  0.5524620000000 1.0
C      1  0.4774610000000  0.4460780000000  0.4101960000000 1.0
C      1  0.4413480000000  0.4437510000000  0.5808870000000 1.0
C      1  0.3977220000000  0.5119200000000  0.4672560000000 1.0
C      1  0.5204740000000  0.4879480000000  0.4058410000000 1.0
C      1  0.4955250000000  0.5465650000000  0.4470810000000 1.0
C      1  0.5367020000000  0.3916400000000  0.4357990000000 1.0
C      1  0.4951830000000  0.4012320000000  0.4810930000000 1.0
C      1  0.5362440000000  0.4675490000000  0.5955020000000 1.0
C      1  0.5915280000000  0.4533490000000  0.5280710000000 1.0
END
