TITL C-3577079-311-334 -8.39591463943932e-07 125000 -1061.21466953299 0 0 169 (C1) n - 1
REM
REM in /home/bkarasulu/work/CARBON/AIRSS/Generating-Clusters/EDIP-Nigel-Params/with-SteepDescent/Higher-Symm/SD-CG/HFTN-CG
REM
REM
REM
REM
REM
REM ./C.cell (12c818d87b63d06a65506943cc24bca4)
REM
REM compiler GCC version 9.2.1 20190827 (Red Hat 9.2.1-1)
REM options -cpp -mtune=generic -march=x86-64 -g -O0 -fpre-include=/usr/include/finclude/math-vector-fortran.h
REM seed -2139644234 1402614966 -54127520 1532275769 -994267793 -356479576 534087013 -478700917 -92622740 1164741146 1990701128 1998570410 413627265 9981071 482820600 -1231575677 1682500833 -1678411586 -631220529 -246635214 -1387579718 968498456 -271206210 1576064794 138923271 -2055014769 -2071192866 -124736647 -400988443 -263088308 518392109 848512704 -1775632963
REM
CELL 1.54180   50.00000   50.00000   50.00000   90.00000   90.00000   90.00000
LATT -1
SFAC C  
C      1  0.5884090000000  0.5357200000000  0.4669090000000 1.0
C      1  0.4257720000000  0.5533000000000  0.4721330000000 1.0
C      1  0.4905470000000  0.4072330000000  0.4637130000000 1.0
C      1  0.5835870000000  0.4607560000000  0.4648110000000 1.0
C      1  0.4271260000000  0.4449450000000  0.4637660000000 1.0
C      1  0.4862650000000  0.5817970000000  0.4735880000000 1.0
C      1  0.5032050000000  0.3911460000000  0.5214430000000 1.0
C      1  0.5947570000000  0.5580030000000  0.5193120000000 1.0
C      1  0.4011650000000  0.5486920000000  0.5153430000000 1.0
C      1  0.4966830000000  0.6084610000000  0.5188960000000 1.0
C      1  0.5913270000000  0.4392590000000  0.5213330000000 1.0
C      1  0.4044350000000  0.4506280000000  0.5207650000000 1.0
C      1  0.4802640000000  0.5633730000000  0.4255660000000 1.0
C      1  0.4539160000000  0.4486730000000  0.4186400000000 1.0
C      1  0.5680800000000  0.4849580000000  0.4206950000000 1.0
C      1  0.4796370000000  0.4340890000000  0.4187900000000 1.0
C      1  0.4541010000000  0.5500700000000  0.4242290000000 1.0
C      1  0.5681880000000  0.5146800000000  0.4216290000000 1.0
C      1  0.4978020000000  0.4443970000000  0.5891860000000 1.0
C      1  0.5488940000000  0.5317230000000  0.5838220000000 1.0
C      1  0.4476990000000  0.5335000000000  0.5936190000000 1.0
C      1  0.4995600000000  0.5591020000000  0.5810910000000 1.0
C      1  0.5436670000000  0.4761450000000  0.5776820000000 1.0
C      1  0.4471790000000  0.4756210000000  0.5910070000000 1.0
C      1  0.4327830000000  0.5168010000000  0.5257590000000 1.0
C      1  0.5199050000000  0.4320950000000  0.5276170000000 1.0
C      1  0.5508050000000  0.5541440000000  0.5265360000000 1.0
C      1  0.4312580000000  0.4866660000000  0.5245280000000 1.0
C      1  0.5205280000000  0.5687690000000  0.5263740000000 1.0
C      1  0.5466600000000  0.4457310000000  0.5249770000000 1.0
C      1  0.4088610000000  0.5371950000000  0.5614020000000 1.0
C      1  0.5204570000000  0.4053490000000  0.5663520000000 1.0
C      1  0.5724430000000  0.5710830000000  0.5634740000000 1.0
C      1  0.4057930000000  0.4769910000000  0.5637040000000 1.0
C      1  0.5212640000000  0.5987140000000  0.5624070000000 1.0
C      1  0.5677830000000  0.4342400000000  0.5647020000000 1.0
C      1  0.4543400000000  0.5911760000000  0.5046920000000 1.0
C      1  0.4389070000000  0.4191650000000  0.4977060000000 1.0
C      1  0.6008930000000  0.4816350000000  0.4997750000000 1.0
C      1  0.4628730000000  0.4035220000000  0.4981340000000 1.0
C      1  0.4259980000000  0.5941870000000  0.5056050000000 1.0
C      1  0.6009370000000  0.5102030000000  0.5008310000000 1.0
C      1  0.5555270000000  0.4409210000000  0.4337780000000 1.0
C      1  0.5223370000000  0.5751690000000  0.4403860000000 1.0
C      1  0.4223740000000  0.4800860000000  0.4338150000000 1.0
C      1  0.5571570000000  0.5576940000000  0.4373370000000 1.0
C      1  0.5217260000000  0.4216050000000  0.4335370000000 1.0
C      1  0.4221700000000  0.5190280000000  0.4367520000000 1.0
C      1  0.4062200000000  0.5280020000000  0.5341350000000 1.0
C      1  0.5232120000000  0.4043730000000  0.5380140000000 1.0
C      1  0.5733290000000  0.5721630000000  0.5350460000000 1.0
C      1  0.4051790000000  0.4765170000000  0.5353580000000 1.0
C      1  0.5202960000000  0.5977610000000  0.5341580000000 1.0
C      1  0.5686340000000  0.4295280000000  0.5367860000000 1.0
C      1  0.5347300000000  0.5151150000000  0.4612080000000 1.0
C      1  0.4712600000000  0.5179750000000  0.4595690000000 1.0
C      1  0.4982300000000  0.4627110000000  0.4577660000000 1.0
C      1  0.5329930000000  0.4820580000000  0.4581930000000 1.0
C      1  0.4694210000000  0.4787690000000  0.4575750000000 1.0
C      1  0.4999760000000  0.5330540000000  0.4624410000000 1.0
C      1  0.4971330000000  0.5546270000000  0.5373700000000 1.0
C      1  0.4533910000000  0.4722380000000  0.5377180000000 1.0
C      1  0.5492050000000  0.4732740000000  0.5334010000000 1.0
C      1  0.4971540000000  0.4447360000000  0.5404290000000 1.0
C      1  0.4531280000000  0.5281330000000  0.5432060000000 1.0
C      1  0.5518470000000  0.5277050000000  0.5398380000000 1.0
C      1  0.5635930000000  0.5826530000000  0.4541460000000 1.0
C      1  0.3957300000000  0.5113540000000  0.4495790000000 1.0
C      1  0.5401730000000  0.4014590000000  0.4470660000000 1.0
C      1  0.5662880000000  0.4148610000000  0.4467800000000 1.0
C      1  0.3943440000000  0.4822080000000  0.4472060000000 1.0
C      1  0.5375970000000  0.5962350000000  0.4555900000000 1.0
C      1  0.4607500000000  0.4840740000000  0.4857230000000 1.0
C      1  0.5320110000000  0.4713190000000  0.4856070000000 1.0
C      1  0.5021150000000  0.5376140000000  0.4924760000000 1.0
C      1  0.4660560000000  0.5120930000000  0.4881760000000 1.0
C      1  0.5424820000000  0.5206140000000  0.4896640000000 1.0
C      1  0.5063150000000  0.4594170000000  0.4860060000000 1.0
C      1  0.5516890000000  0.5281100000000  0.4001390000000 1.0
C      1  0.4515790000000  0.5303140000000  0.4014200000000 1.0
C      1  0.4993610000000  0.4428290000000  0.3974970000000 1.0
C      1  0.5519050000000  0.4729840000000  0.3980400000000 1.0
C      1  0.4514840000000  0.4698900000000  0.3971200000000 1.0
C      1  0.4991820000000  0.5576420000000  0.4028040000000 1.0
C      1  0.5014560000000  0.6022020000000  0.4889690000000 1.0
C      1  0.4142990000000  0.4599600000000  0.4874460000000 1.0
C      1  0.5765810000000  0.4416810000000  0.4876340000000 1.0
C      1  0.5097960000000  0.4042790000000  0.4873070000000 1.0
C      1  0.4040390000000  0.5400970000000  0.4873470000000 1.0
C      1  0.5898500000000  0.5573230000000  0.4882220000000 1.0
C      1  0.4443370000000  0.4616490000000  0.4446470000000 1.0
C      1  0.5607460000000  0.4688280000000  0.4457690000000 1.0
C      1  0.4965670000000  0.5634780000000  0.4515050000000 1.0
C      1  0.4440590000000  0.5365360000000  0.4498460000000 1.0
C      1  0.5629190000000  0.5295530000000  0.4480170000000 1.0
C      1  0.4953010000000  0.4317380000000  0.4452060000000 1.0
C      1  0.3947810000000  0.5140150000000  0.4782280000000 1.0
C      1  0.5373900000000  0.3984200000000  0.4761770000000 1.0
C      1  0.5704660000000  0.5769630000000  0.4812860000000 1.0
C      1  0.3922680000000  0.4760390000000  0.4758210000000 1.0
C      1  0.5289900000000  0.5980910000000  0.4828100000000 1.0
C      1  0.5706530000000  0.4149450000000  0.4760060000000 1.0
C      1  0.4749640000000  0.5719980000000  0.5466430000000 1.0
C      1  0.4478120000000  0.4438710000000  0.5466720000000 1.0
C      1  0.5758910000000  0.4817080000000  0.5452400000000 1.0
C      1  0.4752930000000  0.4264620000000  0.5499670000000 1.0
C      1  0.4490560000000  0.5566600000000  0.5517890000000 1.0
C      1  0.5791590000000  0.5128250000000  0.5391950000000 1.0
C      1  0.4266470000000  0.5149040000000  0.4069260000000 1.0
C      1  0.5249170000000  0.4287220000000  0.4041370000000 1.0
C      1  0.5510470000000  0.5574090000000  0.4072910000000 1.0
C      1  0.4261420000000  0.4848360000000  0.4037470000000 1.0
C      1  0.5247020000000  0.5714730000000  0.4103130000000 1.0
C      1  0.5512790000000  0.4433230000000  0.4035140000000 1.0
C      1  0.4238410000000  0.4905660000000  0.5806530000000 1.0
C      1  0.5464770000000  0.4458020000000  0.5792900000000 1.0
C      1  0.5243890000000  0.5752300000000  0.5778350000000 1.0
C      1  0.4246160000000  0.5201640000000  0.5801530000000 1.0
C      1  0.5491640000000  0.5599640000000  0.5755880000000 1.0
C      1  0.5220010000000  0.4303770000000  0.5799690000000 1.0
C      1  0.4758590000000  0.4861220000000  0.3935810000000 1.0
C      1  0.5258840000000  0.4862110000000  0.3938000000000 1.0
C      1  0.5007760000000  0.5292430000000  0.3956370000000 1.0
C      1  0.4758340000000  0.5149240000000  0.3951790000000 1.0
C      1  0.5258490000000  0.5149930000000  0.3947830000000 1.0
C      1  0.5008460000000  0.4718270000000  0.3932160000000 1.0
C      1  0.5117890000000  0.4321710000000  0.4986850000000 1.0
C      1  0.5475550000000  0.5502310000000  0.4956040000000 1.0
C      1  0.4432820000000  0.5241560000000  0.4999410000000 1.0
C      1  0.5197100000000  0.5632080000000  0.4957920000000 1.0
C      1  0.5481610000000  0.4476640000000  0.4953610000000 1.0
C      1  0.4335770000000  0.4807450000000  0.4957520000000 1.0
C      1  0.5278100000000  0.4845240000000  0.5496830000000 1.0
C      1  0.5022220000000  0.5297980000000  0.5528600000000 1.0
C      1  0.4780110000000  0.4862400000000  0.5431650000000 1.0
C      1  0.5250070000000  0.5142660000000  0.5376080000000 1.0
C      1  0.5000780000000  0.4707520000000  0.5536270000000 1.0
C      1  0.4780530000000  0.5145260000000  0.5458710000000 1.0
C      1  0.4695230000000  0.5969060000000  0.5293260000000 1.0
C      1  0.4210870000000  0.4315340000000  0.5363600000000 1.0
C      1  0.5995270000000  0.4618010000000  0.5390500000000 1.0
C      1  0.4792620000000  0.3965240000000  0.5386380000000 1.0
C      1  0.4217790000000  0.5680450000000  0.5411460000000 1.0
C      1  0.6079210000000  0.5372340000000  0.5354060000000 1.0
C      1  0.5712650000000  0.4877450000000  0.5746570000000 1.0
C      1  0.4753520000000  0.5740520000000  0.5857660000000 1.0
C      1  0.4484300000000  0.4472790000000  0.5848400000000 1.0
C      1  0.5724210000000  0.5164440000000  0.5771150000000 1.0
C      1  0.4727770000000  0.4310430000000  0.5805690000000 1.0
C      1  0.4500930000000  0.5605580000000  0.5816070000000 1.0
C      1  0.6187750000000  0.4765590000000  0.5229870000000 1.0
C      1  0.4488330000000  0.6111520000000  0.5447800000000 1.0
C      1  0.4248910000000  0.4078310000000  0.5204320000000 1.0
C      1  0.6191420000000  0.5149350000000  0.5224370000000 1.0
C      1  0.4572590000000  0.3874460000000  0.5222850000000 1.0
C      1  0.4240680000000  0.5984650000000  0.5363470000000 1.0
C      1  0.4322550000000  0.4176420000000  0.4695320000000 1.0
C      1  0.6055970000000  0.4774880000000  0.4714070000000 1.0
C      1  0.4592540000000  0.5813090000000  0.4789900000000 1.0
C      1  0.4205560000000  0.5813300000000  0.4780240000000 1.0
C      1  0.6074850000000  0.5158950000000  0.4728950000000 1.0
C      1  0.4647640000000  0.3968780000000  0.4697190000000 1.0
C      1  0.5237050000000  0.5175810000000  0.5893910000000 1.0
C      1  0.4733120000000  0.5184320000000  0.5965450000000 1.0
C      1  0.4976410000000  0.4746320000000  0.5925200000000 1.0
C      1  0.5238670000000  0.4892610000000  0.5957830000000 1.0
C      1  0.4721530000000  0.4892480000000  0.5986800000000 1.0
C      1  0.4996230000000  0.5326300000000  0.5947150000000 1.0
C      1  0.5184100000000  0.5150880000000  0.5066750000000 1.0
END
