TITL C-3578204-4308-576 2.10393046093323e-07 125000 -357.230840146784 0 0 59 (C1) n - 1
REM
REM in /home/bkarasulu/work/CARBON/AIRSS/Generating-Clusters/EDIP-Nigel-Params/with-SteepDescent/Higher-Symm/SD-CG/HFTN-CG
REM
REM
REM
REM
REM
REM ./C.cell (12c818d87b63d06a65506943cc24bca4)
REM
REM compiler GCC version 9.2.1 20190827 (Red Hat 9.2.1-1)
REM options -cpp -mtune=generic -march=x86-64 -g -O0 -fpre-include=/usr/include/finclude/math-vector-fortran.h
REM seed -1973730168 945978266 -564361007 -1034602228 -1438416488 355722677 -122953963 -47654165 -2073190565 2038839497 1478199471 1431464437 -1638680095 -823060679 -833144482 -1238012292 2124799492 -1506714037 354534623 9306264 -2086315324 -2111074395 629925732 1324721195 1422848322 1174414488 -1105467830 754683478 -126127263 -1183257696 1801646626 -440734799 -2122465910
REM
CELL 1.54180   50.00000   50.00000   50.00000   90.00000   90.00000   90.00000
LATT -1
SFAC C  
C      1  0.5603410000000  0.4765760000000  0.5336860000000 1.0
C      1  0.5528150000000  0.5146560000000  0.4673180000000 1.0
C      1  0.4460900000000  0.4858450000000  0.5330420000000 1.0
C      1  0.4400210000000  0.5248850000000  0.4640860000000 1.0
C      1  0.5527660000000  0.5143470000000  0.5329510000000 1.0
C      1  0.5602900000000  0.4767460000000  0.4656890000000 1.0
C      1  0.4395440000000  0.5238130000000  0.5356540000000 1.0
C      1  0.4477960000000  0.4871290000000  0.4674010000000 1.0
C      1  0.5238510000000  0.5166940000000  0.5232500000000 1.0
C      1  0.5313400000000  0.4691700000000  0.4733510000000 1.0
C      1  0.4662590000000  0.5352130000000  0.5289690000000 1.0
C      1  0.4760940000000  0.4786120000000  0.4744080000000 1.0
C      1  0.5321330000000  0.4686330000000  0.5246200000000 1.0
C      1  0.5235950000000  0.5173260000000  0.4765310000000 1.0
C      1  0.4737640000000  0.4780090000000  0.5247700000000 1.0
C      1  0.4673640000000  0.5350710000000  0.4701480000000 1.0
C      1  0.5785600000000  0.5198720000000  0.4848090000000 1.0
C      1  0.5831660000000  0.4883570000000  0.5154170000000 1.0
C      1  0.4176840000000  0.5133470000000  0.4844400000000 1.0
C      1  0.4204790000000  0.4818660000000  0.5153560000000 1.0
C      1  0.5830300000000  0.4884200000000  0.4846280000000 1.0
C      1  0.5786720000000  0.5195700000000  0.5156480000000 1.0
C      1  0.4217680000000  0.4815140000000  0.4847790000000 1.0
C      1  0.4171070000000  0.5132090000000  0.5153010000000 1.0
C      1  0.4728180000000  0.4872380000000  0.5727950000000 1.0
C      1  0.4677170000000  0.5190540000000  0.4243960000000 1.0
C      1  0.5313450000000  0.4784250000000  0.5727670000000 1.0
C      1  0.5263950000000  0.5110120000000  0.4272730000000 1.0
C      1  0.4679630000000  0.5184340000000  0.5745750000000 1.0
C      1  0.4727550000000  0.4879330000000  0.4262540000000 1.0
C      1  0.5252300000000  0.5092630000000  0.5720350000000 1.0
C      1  0.5325360000000  0.4803010000000  0.4254340000000 1.0
C      1  0.4754960000000  0.4516670000000  0.5139270000000 1.0
C      1  0.4710730000000  0.5595180000000  0.4851310000000 1.0
C      1  0.5335410000000  0.4423060000000  0.5129190000000 1.0
C      1  0.5209660000000  0.5456260000000  0.4870270000000 1.0
C      1  0.4681980000000  0.5592170000000  0.5137800000000 1.0
C      1  0.4778760000000  0.4513720000000  0.4854070000000 1.0
C      1  0.5204510000000  0.5446190000000  0.5152110000000 1.0
C      1  0.5295210000000  0.4422760000000  0.4849540000000 1.0
C      1  0.4921520000000  0.4852350000000  0.4498120000000 1.0
C      1  0.4838120000000  0.5316830000000  0.5524550000000 1.0
C      1  0.5161020000000  0.4679570000000  0.4470720000000 1.0
C      1  0.5060240000000  0.5116900000000  0.5482900000000 1.0
C      1  0.4840740000000  0.5321690000000  0.4461050000000 1.0
C      1  0.4913760000000  0.4843770000000  0.5483810000000 1.0
C      1  0.5065190000000  0.5126920000000  0.4505230000000 1.0
C      1  0.5155530000000  0.4667380000000  0.5501430000000 1.0
C      1  0.5609650000000  0.4853740000000  0.4361600000000 1.0
C      1  0.5541810000000  0.5148420000000  0.5634020000000 1.0
C      1  0.4440960000000  0.4841550000000  0.4369880000000 1.0
C      1  0.4390740000000  0.5143500000000  0.5649730000000 1.0
C      1  0.5550160000000  0.5162770000000  0.4370230000000 1.0
C      1  0.5601470000000  0.4840510000000  0.5634100000000 1.0
C      1  0.4391100000000  0.5148750000000  0.4350390000000 1.0
C      1  0.4435170000000  0.4835070000000  0.5636390000000 1.0
C      1  0.5018630000000  0.4329520000000  0.4922850000000 1.0
C      1  0.4994090000000  0.5670800000000  0.4916120000000 1.0
C      1  0.5198320000000  0.4957180000000  0.4995480000000 1.0
END
