TITL C-3577089-586-254 -3.10443941993851e-06 125000 -665.152366908846 0 0 108 (C1) n - 1
REM
REM in /home/bkarasulu/work/CARBON/AIRSS/Generating-Clusters/EDIP-Nigel-Params/with-SteepDescent/Higher-Symm/SD-CG/HFTN-CG
REM
REM
REM
REM
REM
REM ./C.cell (12c818d87b63d06a65506943cc24bca4)
REM
REM compiler GCC version 9.2.1 20190827 (Red Hat 9.2.1-1)
REM options -cpp -mtune=generic -march=x86-64 -g -O0 -fpre-include=/usr/include/finclude/math-vector-fortran.h
REM seed -1701868241 582116918 -1662483568 -2072571292 1888771763 -1971773659 1403880159 1860413290 -795597674 23726845 10385008 1099489380 -534085479 29045055 -1568130234 -1072129358 -1220605929 1885966255 -468084491 885476732 -821792209 -334005013 627341203 2004881290 -709064921 1452738542 -153549713 229062835 222501459 -739955022 -1964862848 -1338486404 -534252360
REM
CELL 1.54180   50.00000   50.00000   50.00000   90.00000   90.00000   90.00000
LATT -1
SFAC C  
C      1  0.4951200000000  0.4623970000000  0.4193100000000 1.0
C      1  0.5780670000000  0.4702700000000  0.4736860000000 1.0
C      1  0.5521800000000  0.4645680000000  0.5665630000000 1.0
C      1  0.4540750000000  0.4670830000000  0.5669660000000 1.0
C      1  0.4205620000000  0.4695280000000  0.4764260000000 1.0
C      1  0.5744540000000  0.4994070000000  0.4704560000000 1.0
C      1  0.5555540000000  0.4949900000000  0.5673610000000 1.0
C      1  0.4589370000000  0.4963780000000  0.5688400000000 1.0
C      1  0.4213600000000  0.4990200000000  0.4796570000000 1.0
C      1  0.4905120000000  0.4895230000000  0.4083630000000 1.0
C      1  0.5517670000000  0.5665830000000  0.5487440000000 1.0
C      1  0.4772220000000  0.5749680000000  0.5468420000000 1.0
C      1  0.4352120000000  0.5768510000000  0.4872890000000 1.0
C      1  0.4847240000000  0.5731730000000  0.4372860000000 1.0
C      1  0.5514260000000  0.5798590000000  0.4741190000000 1.0
C      1  0.4798310000000  0.5045200000000  0.5883650000000 1.0
C      1  0.4159780000000  0.5109610000000  0.5058330000000 1.0
C      1  0.4630540000000  0.5026890000000  0.4101210000000 1.0
C      1  0.5614730000000  0.5074900000000  0.4446280000000 1.0
C      1  0.5799010000000  0.5082870000000  0.5549970000000 1.0
C      1  0.5724240000000  0.5349260000000  0.5434150000000 1.0
C      1  0.4888920000000  0.5319760000000  0.5823240000000 1.0
C      1  0.4268990000000  0.5367440000000  0.5125560000000 1.0
C      1  0.4620880000000  0.5291270000000  0.4231020000000 1.0
C      1  0.5496380000000  0.5342190000000  0.4428930000000 1.0
C      1  0.4256380000000  0.4673470000000  0.5253950000000 1.0
C      1  0.4497600000000  0.4633950000000  0.4360080000000 1.0
C      1  0.5439760000000  0.4618980000000  0.4367820000000 1.0
C      1  0.5796140000000  0.4699040000000  0.5258600000000 1.0
C      1  0.5028420000000  0.4621420000000  0.5772780000000 1.0
C      1  0.5384690000000  0.5120800000000  0.5851530000000 1.0
C      1  0.4395150000000  0.5171150000000  0.5583610000000 1.0
C      1  0.4226160000000  0.5165460000000  0.4565650000000 1.0
C      1  0.5137960000000  0.5081970000000  0.4090720000000 1.0
C      1  0.5862730000000  0.5184010000000  0.4904020000000 1.0
C      1  0.5260440000000  0.5626470000000  0.5618910000000 1.0
C      1  0.4518550000000  0.5669100000000  0.5379850000000 1.0
C      1  0.4400020000000  0.5665200000000  0.4611050000000 1.0
C      1  0.5109220000000  0.5649640000000  0.4425210000000 1.0
C      1  0.5631290000000  0.5698730000000  0.4990780000000 1.0
C      1  0.4739230000000  0.4460850000000  0.4935940000000 1.0
C      1  0.4969630000000  0.4528360000000  0.4724680000000 1.0
C      1  0.5217860000000  0.4422450000000  0.4889960000000 1.0
C      1  0.5180940000000  0.4545760000000  0.5166320000000 1.0
C      1  0.4868640000000  0.4507800000000  0.5216870000000 1.0
C      1  0.4600360000000  0.5791290000000  0.4464500000000 1.0
C      1  0.5220240000000  0.5753200000000  0.4689900000000 1.0
C      1  0.5469950000000  0.5793850000000  0.5225370000000 1.0
C      1  0.5051570000000  0.5724540000000  0.5431560000000 1.0
C      1  0.4415270000000  0.5789490000000  0.5142080000000 1.0
C      1  0.5267980000000  0.4484730000000  0.5675550000000 1.0
C      1  0.4392990000000  0.4524990000000  0.5457990000000 1.0
C      1  0.4334910000000  0.4515150000000  0.4564490000000 1.0
C      1  0.5196450000000  0.4478370000000  0.4281380000000 1.0
C      1  0.5817850000000  0.4571250000000  0.5000330000000 1.0
C      1  0.5616140000000  0.4516630000000  0.4576850000000 1.0
C      1  0.5681100000000  0.4522790000000  0.5452620000000 1.0
C      1  0.4774310000000  0.4502350000000  0.5719070000000 1.0
C      1  0.4223140000000  0.4540150000000  0.5005980000000 1.0
C      1  0.4719450000000  0.4476740000000  0.4273650000000 1.0
C      1  0.5185700000000  0.4128100000000  0.4942360000000 1.0
C      1  0.5070740000000  0.4116210000000  0.5217250000000 1.0
C      1  0.4776730000000  0.4096090000000  0.5150710000000 1.0
C      1  0.4735960000000  0.4081330000000  0.4848780000000 1.0
C      1  0.5004870000000  0.4032900000000  0.4729250000000 1.0
C      1  0.4474760000000  0.5373540000000  0.5347010000000 1.0
C      1  0.4451570000000  0.5369090000000  0.4569050000000 1.0
C      1  0.5218810000000  0.5383120000000  0.4321800000000 1.0
C      1  0.5679580000000  0.5387730000000  0.5045510000000 1.0
C      1  0.5195990000000  0.5356890000000  0.5751340000000 1.0
C      1  0.4716240000000  0.5201650000000  0.4864130000000 1.0
C      1  0.5009880000000  0.5087780000000  0.4458050000000 1.0
C      1  0.5322300000000  0.5209140000000  0.4854560000000 1.0
C      1  0.5350370000000  0.5033050000000  0.5294120000000 1.0
C      1  0.4832780000000  0.5116830000000  0.5352960000000 1.0
C      1  0.5001050000000  0.4864690000000  0.4704270000000 1.0
C      1  0.5240190000000  0.4938800000000  0.4861720000000 1.0
C      1  0.5190190000000  0.4856120000000  0.5136970000000 1.0
C      1  0.4890540000000  0.4893830000000  0.5177000000000 1.0
C      1  0.4794990000000  0.4944040000000  0.4901330000000 1.0
C      1  0.5029160000000  0.4865660000000  0.5926250000000 1.0
C      1  0.4154020000000  0.4937360000000  0.5290390000000 1.0
C      1  0.4411170000000  0.4862340000000  0.4208330000000 1.0
C      1  0.5495940000000  0.4880900000000  0.4261270000000 1.0
C      1  0.5941270000000  0.4931160000000  0.5334030000000 1.0
C      1  0.5105950000000  0.4241540000000  0.4427110000000 1.0
C      1  0.5638760000000  0.4340530000000  0.5011670000000 1.0
C      1  0.5266560000000  0.4276570000000  0.5431890000000 1.0
C      1  0.4533120000000  0.4279410000000  0.5378550000000 1.0
C      1  0.4439280000000  0.4269640000000  0.4687220000000 1.0
C      1  0.4875450000000  0.5329860000000  0.5528510000000 1.0
C      1  0.4612210000000  0.5434470000000  0.4970330000000 1.0
C      1  0.4805440000000  0.5301010000000  0.4447730000000 1.0
C      1  0.5435440000000  0.5426680000000  0.4701800000000 1.0
C      1  0.5475250000000  0.5284590000000  0.5264710000000 1.0
C      1  0.5543480000000  0.4289200000000  0.4738920000000 1.0
C      1  0.5536680000000  0.4319900000000  0.5299380000000 1.0
C      1  0.4780050000000  0.4295860000000  0.5525340000000 1.0
C      1  0.4384030000000  0.4311820000000  0.4963520000000 1.0
C      1  0.4819350000000  0.4284520000000  0.4466130000000 1.0
C      1  0.4143860000000  0.5055670000000  0.5541910000000 1.0
C      1  0.4213920000000  0.5020510000000  0.4327180000000 1.0
C      1  0.5381470000000  0.4961680000000  0.4020410000000 1.0
C      1  0.6021700000000  0.5076250000000  0.5107770000000 1.0
C      1  0.5260530000000  0.4965150000000  0.6046880000000 1.0
C      1  0.4783260000000  0.5664480000000  0.4935540000000 1.0
C      1  0.5178120000000  0.5803150000000  0.5185040000000 1.0
C      1  0.5047600000000  0.5759010000000  0.4930990000000 1.0
END
