TITL C-3577084-3642-25 -8.73582802544586e-07 125000 -897.005891412992 0 0 143 (C1) n - 1
REM
REM in /home/bkarasulu/work/CARBON/AIRSS/Generating-Clusters/EDIP-Nigel-Params/with-SteepDescent/Higher-Symm/SD-CG/HFTN-CG
REM
REM
REM
REM
REM
REM ./C.cell (12c818d87b63d06a65506943cc24bca4)
REM
REM compiler GCC version 9.2.1 20190827 (Red Hat 9.2.1-1)
REM options -cpp -mtune=generic -march=x86-64 -g -O0 -fpre-include=/usr/include/finclude/math-vector-fortran.h
REM seed -510574450 1154319064 406805399 -446147074 -874936807 644176232 -1087702325 1696099803 1306957819 -978600183 -117248417 1954567258 1830299160 2017101755 764980645 545171341 -1709940385 1001169518 1340829754 1141105258 -1124116669 -703509542 -475884228 1023480360 -749142669 -1374665336 31610500 1334230826 485530600 480258598 -248357806 -60551627 -1410498919
REM
CELL 1.54180   50.00000   50.00000   50.00000   90.00000   90.00000   90.00000
LATT -1
SFAC C  
C      1  0.4471040000000  0.5765210000000  0.4825290000000 1.0
C      1  0.5651290000000  0.5822100000000  0.4808400000000 1.0
C      1  0.5901410000000  0.4663890000000  0.4778560000000 1.0
C      1  0.4888790000000  0.4025880000000  0.4816830000000 1.0
C      1  0.4076220000000  0.4838580000000  0.4771040000000 1.0
C      1  0.5309930000000  0.5480820000000  0.5104260000000 1.0
C      1  0.5703540000000  0.4965420000000  0.5132280000000 1.0
C      1  0.5155840000000  0.4197490000000  0.5126000000000 1.0
C      1  0.4392900000000  0.4636460000000  0.5161460000000 1.0
C      1  0.4641310000000  0.5444520000000  0.5198510000000 1.0
C      1  0.5625900000000  0.5434100000000  0.4362360000000 1.0
C      1  0.5656560000000  0.4483040000000  0.4366070000000 1.0
C      1  0.4683540000000  0.4208670000000  0.4410030000000 1.0
C      1  0.4327210000000  0.4891880000000  0.4356790000000 1.0
C      1  0.4527840000000  0.5696010000000  0.4358380000000 1.0
C      1  0.5787780000000  0.4701430000000  0.5038320000000 1.0
C      1  0.4879730000000  0.3938770000000  0.5084390000000 1.0
C      1  0.4184170000000  0.4817020000000  0.5040770000000 1.0
C      1  0.4430400000000  0.5771250000000  0.5124530000000 1.0
C      1  0.5571610000000  0.5756580000000  0.5072580000000 1.0
C      1  0.4235290000000  0.5370160000000  0.4601120000000 1.0
C      1  0.5186630000000  0.5917110000000  0.4609540000000 1.0
C      1  0.5936850000000  0.5158240000000  0.4585910000000 1.0
C      1  0.5363690000000  0.4213460000000  0.4634670000000 1.0
C      1  0.4320280000000  0.4421400000000  0.4564600000000 1.0
C      1  0.4739260000000  0.4998270000000  0.6065620000000 1.0
C      1  0.4960430000000  0.5191950000000  0.6120340000000 1.0
C      1  0.5208910000000  0.5033010000000  0.6079290000000 1.0
C      1  0.5164530000000  0.4737220000000  0.6050270000000 1.0
C      1  0.4880130000000  0.4738350000000  0.5976610000000 1.0
C      1  0.5759210000000  0.5180340000000  0.4345370000000 1.0
C      1  0.5390940000000  0.4379570000000  0.4392840000000 1.0
C      1  0.4451290000000  0.4341160000000  0.4301870000000 1.0
C      1  0.4304720000000  0.5183350000000  0.4348590000000 1.0
C      1  0.5098530000000  0.5660760000000  0.4439590000000 1.0
C      1  0.5845030000000  0.5649650000000  0.4682620000000 1.0
C      1  0.5784160000000  0.4423150000000  0.4635370000000 1.0
C      1  0.4644100000000  0.4105670000000  0.4679180000000 1.0
C      1  0.3911640000000  0.5062090000000  0.4725660000000 1.0
C      1  0.4740770000000  0.5825810000000  0.4728390000000 1.0
C      1  0.5454010000000  0.5507810000000  0.4154280000000 1.0
C      1  0.5703550000000  0.4702680000000  0.4200270000000 1.0
C      1  0.4924150000000  0.4355620000000  0.4346950000000 1.0
C      1  0.4426660000000  0.4787980000000  0.4113740000000 1.0
C      1  0.4498330000000  0.5559200000000  0.4117780000000 1.0
C      1  0.5099250000000  0.5217720000000  0.4196420000000 1.0
C      1  0.5293190000000  0.4983220000000  0.4125440000000 1.0
C      1  0.5103890000000  0.4751270000000  0.4139080000000 1.0
C      1  0.4810400000000  0.4832740000000  0.4107600000000 1.0
C      1  0.4797790000000  0.5137220000000  0.4114260000000 1.0
C      1  0.5103380000000  0.5552860000000  0.4900750000000 1.0
C      1  0.5571710000000  0.5173600000000  0.4832480000000 1.0
C      1  0.5283610000000  0.4532970000000  0.4974530000000 1.0
C      1  0.4566190000000  0.4495420000000  0.4963850000000 1.0
C      1  0.4450800000000  0.5234250000000  0.5071990000000 1.0
C      1  0.5193570000000  0.5865930000000  0.5576860000000 1.0
C      1  0.5862260000000  0.5102930000000  0.5518020000000 1.0
C      1  0.5327600000000  0.4190510000000  0.5531230000000 1.0
C      1  0.4336900000000  0.4427900000000  0.5537290000000 1.0
C      1  0.4280790000000  0.5500600000000  0.5538770000000 1.0
C      1  0.5176480000000  0.5455850000000  0.5351190000000 1.0
C      1  0.5367810000000  0.4960740000000  0.5265300000000 1.0
C      1  0.4911380000000  0.4665720000000  0.5242330000000 1.0
C      1  0.4637130000000  0.4808700000000  0.5271950000000 1.0
C      1  0.4763970000000  0.5318590000000  0.5451240000000 1.0
C      1  0.4729960000000  0.5362570000000  0.4685100000000 1.0
C      1  0.5216360000000  0.5448760000000  0.4630520000000 1.0
C      1  0.5565310000000  0.4923250000000  0.4648750000000 1.0
C      1  0.5033220000000  0.4442330000000  0.4825220000000 1.0
C      1  0.4514810000000  0.4880370000000  0.4756850000000 1.0
C      1  0.4461810000000  0.5260200000000  0.4757570000000 1.0
C      1  0.4778530000000  0.5631250000000  0.4513830000000 1.0
C      1  0.5524310000000  0.5436820000000  0.4649020000000 1.0
C      1  0.5472060000000  0.4626970000000  0.4740230000000 1.0
C      1  0.4571650000000  0.4545040000000  0.4680040000000 1.0
C      1  0.5665670000000  0.4578580000000  0.5480650000000 1.0
C      1  0.4747150000000  0.4109390000000  0.5502130000000 1.0
C      1  0.4163920000000  0.4983550000000  0.5500200000000 1.0
C      1  0.4680780000000  0.5838790000000  0.5571480000000 1.0
C      1  0.5623500000000  0.5546870000000  0.5504850000000 1.0
C      1  0.5469560000000  0.4070310000000  0.5297380000000 1.0
C      1  0.4234030000000  0.4314370000000  0.5284840000000 1.0
C      1  0.4230380000000  0.5565140000000  0.5252710000000 1.0
C      1  0.5158760000000  0.5980810000000  0.5322610000000 1.0
C      1  0.5998400000000  0.5160300000000  0.5262580000000 1.0
C      1  0.4936010000000  0.5872230000000  0.5691390000000 1.0
C      1  0.5762700000000  0.5340260000000  0.5631890000000 1.0
C      1  0.5464260000000  0.4439350000000  0.5641950000000 1.0
C      1  0.4552960000000  0.4270480000000  0.5627800000000 1.0
C      1  0.4212410000000  0.5236510000000  0.5617180000000 1.0
C      1  0.5570950000000  0.4948140000000  0.4259150000000 1.0
C      1  0.5160360000000  0.4473560000000  0.4235050000000 1.0
C      1  0.4552750000000  0.4541400000000  0.4118300000000 1.0
C      1  0.4531220000000  0.5288970000000  0.4181530000000 1.0
C      1  0.5179380000000  0.5513430000000  0.4175880000000 1.0
C      1  0.5004880000000  0.5849720000000  0.4865700000000 1.0
C      1  0.5944720000000  0.5396370000000  0.4791340000000 1.0
C      1  0.5609640000000  0.4217580000000  0.4800220000000 1.0
C      1  0.4379250000000  0.4132250000000  0.4809440000000 1.0
C      1  0.4006700000000  0.5314260000000  0.4795840000000 1.0
C      1  0.4849490000000  0.5137760000000  0.4555490000000 1.0
C      1  0.5122750000000  0.5165400000000  0.4498290000000 1.0
C      1  0.5243080000000  0.4863130000000  0.4542620000000 1.0
C      1  0.4977680000000  0.4659230000000  0.4585890000000 1.0
C      1  0.4734220000000  0.4868400000000  0.4534230000000 1.0
C      1  0.5997030000000  0.4894180000000  0.4653970000000 1.0
C      1  0.5140830000000  0.4058190000000  0.4703010000000 1.0
C      1  0.4184810000000  0.4702470000000  0.4533900000000 1.0
C      1  0.4320700000000  0.5662540000000  0.4579800000000 1.0
C      1  0.5457720000000  0.5948340000000  0.4654350000000 1.0
C      1  0.5354340000000  0.4653690000000  0.5826450000000 1.0
C      1  0.4917130000000  0.4781790000000  0.5679040000000 1.0
C      1  0.4576070000000  0.5117890000000  0.5841190000000 1.0
C      1  0.4962730000000  0.5422170000000  0.5921160000000 1.0
C      1  0.5316160000000  0.5122460000000  0.5811640000000 1.0
C      1  0.4093750000000  0.5026860000000  0.5218360000000 1.0
C      1  0.4682030000000  0.5866420000000  0.5276790000000 1.0
C      1  0.5721610000000  0.5574850000000  0.5227720000000 1.0
C      1  0.5722230000000  0.4484870000000  0.5212210000000 1.0
C      1  0.4649420000000  0.4006890000000  0.5244000000000 1.0
C      1  0.4521490000000  0.5608570000000  0.5688170000000 1.0
C      1  0.5318000000000  0.5585750000000  0.5571340000000 1.0
C      1  0.5681700000000  0.4867380000000  0.5556820000000 1.0
C      1  0.5022320000000  0.4250100000000  0.5449910000000 1.0
C      1  0.4341280000000  0.4741150000000  0.5585670000000 1.0
C      1  0.4708970000000  0.5372170000000  0.5739840000000 1.0
C      1  0.5246500000000  0.5425050000000  0.5815530000000 1.0
C      1  0.5518080000000  0.4894730000000  0.5789800000000 1.0
C      1  0.4955500000000  0.4538780000000  0.5497990000000 1.0
C      1  0.4615150000000  0.4886900000000  0.5650790000000 1.0
C      1  0.5362360000000  0.5193940000000  0.5042970000000 1.0
C      1  0.5183910000000  0.4759410000000  0.5137460000000 1.0
C      1  0.4833900000000  0.4477650000000  0.5041320000000 1.0
C      1  0.4657210000000  0.4997490000000  0.5056010000000 1.0
C      1  0.4863330000000  0.5390750000000  0.4955950000000 1.0
C      1  0.4391430000000  0.4120070000000  0.5115800000000 1.0
C      1  0.4074740000000  0.5319250000000  0.5099090000000 1.0
C      1  0.4939650000000  0.5956510000000  0.5148480000000 1.0
C      1  0.5880020000000  0.5364610000000  0.5087520000000 1.0
C      1  0.5592170000000  0.4249670000000  0.5101840000000 1.0
C      1  0.5143840000000  0.5002080000000  0.5572210000000 1.0
C      1  0.4934150000000  0.5119470000000  0.5076690000000 1.0
C      1  0.5015090000000  0.5211680000000  0.5366940000000 1.0
END
