TITL C-3578194-7807-568 -1.25595148837194e-06 125000 -879.282627879411 0 0 144 (C1) n - 1
REM
REM in /home/bkarasulu/work/CARBON/AIRSS/Generating-Clusters/EDIP-Nigel-Params/with-SteepDescent/Higher-Symm/SD-CG/HFTN-CG
REM
REM
REM
REM
REM
REM ./C.cell (12c818d87b63d06a65506943cc24bca4)
REM
REM compiler GCC version 9.2.1 20190827 (Red Hat 9.2.1-1)
REM options -cpp -mtune=generic -march=x86-64 -g -O0 -fpre-include=/usr/include/finclude/math-vector-fortran.h
REM seed 1468238024 -2091019793 -1200720489 2094847106 -94625058 2139994600 -995776719 -190172731 1345993362 446081550 202939767 870078239 1632099708 1211667610 -972236023 1410392769 1491697968 -1559520019 -499914121 -2073644558 1735067130 483208920 -1155362225 270989443 -1805046965 -977989333 -47151923 1226895461 -25499113 1025629366 -1601988773 1770170276 -1947631356
REM
CELL 1.54180   50.00000   50.00000   50.00000   90.00000   90.00000   90.00000
LATT -1
SFAC C  
C      1  0.4732980000000  0.6001260000000  0.5331720000000 1.0
C      1  0.5906640000000  0.5272830000000  0.5302910000000 1.0
C      1  0.5288110000000  0.4027970000000  0.5337700000000 1.0
C      1  0.4063070000000  0.4700740000000  0.5279470000000 1.0
C      1  0.4319860000000  0.4937630000000  0.4411670000000 1.0
C      1  0.4943780000000  0.5707230000000  0.4430090000000 1.0
C      1  0.5688180000000  0.5064560000000  0.4427560000000 1.0
C      1  0.5049610000000  0.4335300000000  0.4462280000000 1.0
C      1  0.6010360000000  0.4508630000000  0.5211400000000 1.0
C      1  0.4513400000000  0.4047600000000  0.5208950000000 1.0
C      1  0.4051300000000  0.5476670000000  0.5222010000000 1.0
C      1  0.5500210000000  0.5933800000000  0.5220830000000 1.0
C      1  0.5537800000000  0.4293760000000  0.4758850000000 1.0
C      1  0.4371500000000  0.4465140000000  0.4720840000000 1.0
C      1  0.4472460000000  0.5722120000000  0.4755690000000 1.0
C      1  0.5717910000000  0.5550500000000  0.4733910000000 1.0
C      1  0.4952760000000  0.5221380000000  0.5053780000000 1.0
C      1  0.5238350000000  0.5078750000000  0.5021470000000 1.0
C      1  0.5050930000000  0.4742540000000  0.5095890000000 1.0
C      1  0.4789580000000  0.4941170000000  0.5079070000000 1.0
C      1  0.5208690000000  0.5558140000000  0.4183260000000 1.0
C      1  0.5483040000000  0.4745990000000  0.4201300000000 1.0
C      1  0.4737330000000  0.4459420000000  0.4124190000000 1.0
C      1  0.4449230000000  0.5254200000000  0.4188750000000 1.0
C      1  0.4767350000000  0.5011500000000  0.6051640000000 1.0
C      1  0.5001510000000  0.5221760000000  0.6055120000000 1.0
C      1  0.5209580000000  0.4990950000000  0.6060800000000 1.0
C      1  0.4981450000000  0.4779590000000  0.6058490000000 1.0
C      1  0.5971880000000  0.4744810000000  0.4631400000000 1.0
C      1  0.4702720000000  0.4069080000000  0.4656490000000 1.0
C      1  0.4064830000000  0.5262820000000  0.4560120000000 1.0
C      1  0.5272370000000  0.5963530000000  0.4567410000000 1.0
C      1  0.4457040000000  0.5026040000000  0.4727360000000 1.0
C      1  0.5019140000000  0.5575110000000  0.4722040000000 1.0
C      1  0.5574100000000  0.5002030000000  0.4707800000000 1.0
C      1  0.5001620000000  0.4447320000000  0.4748840000000 1.0
C      1  0.5418340000000  0.5330320000000  0.4121230000000 1.0
C      1  0.5281110000000  0.4537210000000  0.4138860000000 1.0
C      1  0.4536210000000  0.4673340000000  0.4064650000000 1.0
C      1  0.4667440000000  0.5458810000000  0.4109890000000 1.0
C      1  0.4474340000000  0.5426200000000  0.5084060000000 1.0
C      1  0.5433020000000  0.5500920000000  0.5066270000000 1.0
C      1  0.5580230000000  0.4605560000000  0.5068590000000 1.0
C      1  0.4589630000000  0.4482820000000  0.5103590000000 1.0
C      1  0.4492620000000  0.4952430000000  0.5232360000000 1.0
C      1  0.4961040000000  0.5510060000000  0.5222300000000 1.0
C      1  0.5519740000000  0.5084070000000  0.5195570000000 1.0
C      1  0.5039160000000  0.4454630000000  0.5240160000000 1.0
C      1  0.3991700000000  0.4572840000000  0.5034070000000 1.0
C      1  0.4585570000000  0.6045760000000  0.5098300000000 1.0
C      1  0.6030390000000  0.5410690000000  0.5082170000000 1.0
C      1  0.5430640000000  0.3968780000000  0.5103010000000 1.0
C      1  0.4669440000000  0.4557000000000  0.4818020000000 1.0
C      1  0.4546770000000  0.5344300000000  0.4797980000000 1.0
C      1  0.5342180000000  0.5463090000000  0.4771280000000 1.0
C      1  0.5475710000000  0.4673700000000  0.4781250000000 1.0
C      1  0.5567690000000  0.4361240000000  0.4485970000000 1.0
C      1  0.4375870000000  0.4412540000000  0.4432530000000 1.0
C      1  0.4439330000000  0.5633780000000  0.4489460000000 1.0
C      1  0.5633760000000  0.5580820000000  0.4466440000000 1.0
C      1  0.4609810000000  0.4243900000000  0.4309360000000 1.0
C      1  0.4314850000000  0.5377930000000  0.4434280000000 1.0
C      1  0.5378930000000  0.5713230000000  0.4422090000000 1.0
C      1  0.5678590000000  0.4625010000000  0.4405460000000 1.0
C      1  0.5065830000000  0.4357580000000  0.5739410000000 1.0
C      1  0.4352840000000  0.4934270000000  0.5722180000000 1.0
C      1  0.4949570000000  0.5627910000000  0.5715830000000 1.0
C      1  0.5618800000000  0.5051720000000  0.5716980000000 1.0
C      1  0.4533780000000  0.5446090000000  0.5527110000000 1.0
C      1  0.5427770000000  0.5468970000000  0.5539750000000 1.0
C      1  0.5470100000000  0.4559550000000  0.5521460000000 1.0
C      1  0.4537110000000  0.4510600000000  0.5544010000000 1.0
C      1  0.4374130000000  0.4280850000000  0.5123530000000 1.0
C      1  0.4271130000000  0.5634850000000  0.5136750000000 1.0
C      1  0.5645390000000  0.5704930000000  0.5137660000000 1.0
C      1  0.5770880000000  0.4383170000000  0.5122250000000 1.0
C      1  0.5939790000000  0.4907940000000  0.4401100000000 1.0
C      1  0.4851610000000  0.4120240000000  0.4429030000000 1.0
C      1  0.4038620000000  0.5031810000000  0.4399070000000 1.0
C      1  0.5029350000000  0.5988810000000  0.4422310000000 1.0
C      1  0.5114510000000  0.5821620000000  0.5582100000000 1.0
C      1  0.5814680000000  0.4879150000000  0.5596640000000 1.0
C      1  0.4900650000000  0.4157560000000  0.5616330000000 1.0
C      1  0.4162730000000  0.5092440000000  0.5575320000000 1.0
C      1  0.4022990000000  0.5184150000000  0.4842110000000 1.0
C      1  0.5205880000000  0.5995270000000  0.4855020000000 1.0
C      1  0.5972600000000  0.4881890000000  0.4890920000000 1.0
C      1  0.4872650000000  0.4027910000000  0.4894040000000 1.0
C      1  0.4334540000000  0.4661790000000  0.4276930000000 1.0
C      1  0.4667430000000  0.5671930000000  0.4312530000000 1.0
C      1  0.5660290000000  0.5344880000000  0.4294250000000 1.0
C      1  0.5334850000000  0.4296820000000  0.4323850000000 1.0
C      1  0.4521760000000  0.4804780000000  0.5516400000000 1.0
C      1  0.4824730000000  0.5460550000000  0.5504740000000 1.0
C      1  0.5456390000000  0.5180970000000  0.5501110000000 1.0
C      1  0.5180430000000  0.4517020000000  0.5515330000000 1.0
C      1  0.5667700000000  0.5596790000000  0.5606270000000 1.0
C      1  0.5625490000000  0.4333800000000  0.5579220000000 1.0
C      1  0.4293930000000  0.4378870000000  0.5587720000000 1.0
C      1  0.4402440000000  0.5684960000000  0.5593330000000 1.0
C      1  0.5637330000000  0.4200140000000  0.5327080000000 1.0
C      1  0.4170650000000  0.4388850000000  0.5325930000000 1.0
C      1  0.4389890000000  0.5822110000000  0.5343060000000 1.0
C      1  0.5817080000000  0.5581820000000  0.5358490000000 1.0
C      1  0.4922060000000  0.5224360000000  0.4413680000000 1.0
C      1  0.5166730000000  0.5047780000000  0.4470090000000 1.0
C      1  0.4960520000000  0.4790290000000  0.4471550000000 1.0
C      1  0.4733670000000  0.4986970000000  0.4387220000000 1.0
C      1  0.4930120000000  0.5748100000000  0.4958080000000 1.0
C      1  0.5766070000000  0.5093920000000  0.4920760000000 1.0
C      1  0.5079980000000  0.4235310000000  0.4948350000000 1.0
C      1  0.4274210000000  0.4914700000000  0.4949890000000 1.0
C      1  0.4989260000000  0.4513000000000  0.5960160000000 1.0
C      1  0.4502050000000  0.5016910000000  0.5946280000000 1.0
C      1  0.5020020000000  0.5483550000000  0.5946210000000 1.0
C      1  0.5468820000000  0.4983740000000  0.5944940000000 1.0
C      1  0.4059080000000  0.4994470000000  0.5324030000000 1.0
C      1  0.5018630000000  0.5946870000000  0.5341830000000 1.0
C      1  0.5948770000000  0.4983410000000  0.5364550000000 1.0
C      1  0.4997690000000  0.4032770000000  0.5375810000000 1.0
C      1  0.5165330000000  0.4699470000000  0.4809040000000 1.0
C      1  0.4693410000000  0.4860110000000  0.4805530000000 1.0
C      1  0.4853410000000  0.5328650000000  0.4781550000000 1.0
C      1  0.5317310000000  0.5151760000000  0.4736660000000 1.0
C      1  0.4901610000000  0.5185350000000  0.5539870000000 1.0
C      1  0.5188290000000  0.5078360000000  0.5520400000000 1.0
C      1  0.5085880000000  0.4787640000000  0.5535560000000 1.0
C      1  0.4793530000000  0.4891490000000  0.5556150000000 1.0
C      1  0.6040860000000  0.4786350000000  0.5160620000000 1.0
C      1  0.4786410000000  0.3984120000000  0.5168310000000 1.0
C      1  0.4009000000000  0.5213080000000  0.5131420000000 1.0
C      1  0.5237450000000  0.5995610000000  0.5145030000000 1.0
C      1  0.5573040000000  0.4774750000000  0.5317050000000 1.0
C      1  0.4740310000000  0.4386740000000  0.5347240000000 1.0
C      1  0.4408680000000  0.5255910000000  0.5324100000000 1.0
C      1  0.5260570000000  0.5584110000000  0.5309660000000 1.0
C      1  0.4640500000000  0.4942180000000  0.4110500000000 1.0
C      1  0.4949030000000  0.5366090000000  0.4154930000000 1.0
C      1  0.5360900000000  0.5033200000000  0.4232320000000 1.0
C      1  0.4989140000000  0.4567760000000  0.4263730000000 1.0
C      1  0.5345150000000  0.4118260000000  0.4877020000000 1.0
C      1  0.4161350000000  0.4658150000000  0.4822420000000 1.0
C      1  0.4672730000000  0.5883990000000  0.4881990000000 1.0
C      1  0.5895350000000  0.5352530000000  0.4838010000000 1.0
END
