TITL C-3577082-504-683 -1.44429303714936e-06 125000 -584.181165494104 0 0 95 (C1) n - 1
REM
REM in /home/bkarasulu/work/CARBON/AIRSS/Generating-Clusters/EDIP-Nigel-Params/with-SteepDescent/Higher-Symm/SD-CG/HFTN-CG
REM
REM
REM
REM
REM
REM ./C.cell (12c818d87b63d06a65506943cc24bca4)
REM
REM compiler GCC version 9.2.1 20190827 (Red Hat 9.2.1-1)
REM options -cpp -mtune=generic -march=x86-64 -g -O0 -fpre-include=/usr/include/finclude/math-vector-fortran.h
REM seed -1526932887 -1144489686 1907838404 -369432816 -652057833 -985146846 829525264 403015214 -1065020357 -546476411 1285819416 -739860471 680037275 -1109838501 813602106 1519378166 1879485381 1217127826 -111917762 -1117529057 -9176683 1444765141 -816422055 -982388162 -737322956 1319929005 1693094044 -2105543388 -1181310437 235465755 1059308798 821759578 -1657086884
REM
CELL 1.54180   50.00000   50.00000   50.00000   90.00000   90.00000   90.00000
LATT -1
SFAC C  
C      1  0.5138900000000  0.4841400000000  0.4226810000000 1.0
C      1  0.5159160000000  0.5145610000000  0.5770110000000 1.0
C      1  0.5643180000000  0.4907600000000  0.4278270000000 1.0
C      1  0.5697020000000  0.5099500000000  0.5686710000000 1.0
C      1  0.4533860000000  0.5154930000000  0.5393690000000 1.0
C      1  0.4503490000000  0.4855900000000  0.4530450000000 1.0
C      1  0.4852910000000  0.4628160000000  0.5266870000000 1.0
C      1  0.4779580000000  0.5449710000000  0.4835210000000 1.0
C      1  0.5777940000000  0.5583790000000  0.5112040000000 1.0
C      1  0.5730390000000  0.4463250000000  0.4916640000000 1.0
C      1  0.4797970000000  0.5434610000000  0.4448530000000 1.0
C      1  0.4689450000000  0.4556310000000  0.5605000000000 1.0
C      1  0.5276570000000  0.5763110000000  0.5412390000000 1.0
C      1  0.5273370000000  0.4243290000000  0.4599980000000 1.0
C      1  0.4370730000000  0.4720940000000  0.5207600000000 1.0
C      1  0.4273630000000  0.5312090000000  0.4527050000000 1.0
C      1  0.4907070000000  0.4665940000000  0.4221250000000 1.0
C      1  0.4972710000000  0.5351460000000  0.5788130000000 1.0
C      1  0.5662300000000  0.4815430000000  0.5618220000000 1.0
C      1  0.5573830000000  0.5201710000000  0.4336760000000 1.0
C      1  0.5604760000000  0.4201820000000  0.4979180000000 1.0
C      1  0.5591460000000  0.5783920000000  0.5001310000000 1.0
C      1  0.4051190000000  0.4880640000000  0.4646140000000 1.0
C      1  0.4154770000000  0.5194900000000  0.5151290000000 1.0
C      1  0.5331310000000  0.5255920000000  0.5377770000000 1.0
C      1  0.5341420000000  0.4752430000000  0.4606960000000 1.0
C      1  0.4578790000000  0.4466870000000  0.4869330000000 1.0
C      1  0.4601280000000  0.5590910000000  0.5154080000000 1.0
C      1  0.4996400000000  0.5633680000000  0.5400090000000 1.0
C      1  0.5003060000000  0.4394580000000  0.4630120000000 1.0
C      1  0.4807850000000  0.4272940000000  0.4826700000000 1.0
C      1  0.4799910000000  0.5800870000000  0.5238100000000 1.0
C      1  0.4935490000000  0.5057090000000  0.5240270000000 1.0
C      1  0.4939960000000  0.4927120000000  0.4726190000000 1.0
C      1  0.4189000000000  0.5454380000000  0.5292350000000 1.0
C      1  0.4155820000000  0.4623900000000  0.4710360000000 1.0
C      1  0.5480360000000  0.5582910000000  0.5512100000000 1.0
C      1  0.5481680000000  0.4411880000000  0.4487860000000 1.0
C      1  0.4907970000000  0.5853800000000  0.4971490000000 1.0
C      1  0.4905370000000  0.4177280000000  0.5088960000000 1.0
C      1  0.5523410000000  0.5635320000000  0.4754720000000 1.0
C      1  0.5536010000000  0.4364860000000  0.5303140000000 1.0
C      1  0.5136340000000  0.5371600000000  0.4545910000000 1.0
C      1  0.5206360000000  0.4658500000000  0.5509210000000 1.0
C      1  0.4349690000000  0.5611940000000  0.4969610000000 1.0
C      1  0.4344650000000  0.4321370000000  0.5013110000000 1.0
C      1  0.4156810000000  0.4557750000000  0.5003200000000 1.0
C      1  0.4319820000000  0.5302130000000  0.4910900000000 1.0
C      1  0.5641780000000  0.5148100000000  0.4641750000000 1.0
C      1  0.5674830000000  0.4882330000000  0.5310630000000 1.0
C      1  0.5288300000000  0.5310640000000  0.4287360000000 1.0
C      1  0.5414960000000  0.4709180000000  0.5715770000000 1.0
C      1  0.5174200000000  0.4857250000000  0.5258910000000 1.0
C      1  0.5150470000000  0.5136650000000  0.4734640000000 1.0
C      1  0.4822780000000  0.4805640000000  0.5668460000000 1.0
C      1  0.4811390000000  0.5179520000000  0.4294670000000 1.0
C      1  0.4453710000000  0.4525700000000  0.5430930000000 1.0
C      1  0.4491690000000  0.5512720000000  0.4513000000000 1.0
C      1  0.5387160000000  0.4121210000000  0.4824220000000 1.0
C      1  0.5377260000000  0.5859900000000  0.5169160000000 1.0
C      1  0.5710620000000  0.5475250000000  0.5369070000000 1.0
C      1  0.5706690000000  0.4543770000000  0.4626820000000 1.0
C      1  0.5435620000000  0.5217760000000  0.5749590000000 1.0
C      1  0.5406380000000  0.4751250000000  0.4222930000000 1.0
C      1  0.4857220000000  0.5567150000000  0.5657760000000 1.0
C      1  0.4839040000000  0.4431240000000  0.4374440000000 1.0
C      1  0.4440720000000  0.4263540000000  0.5288630000000 1.0
C      1  0.4464970000000  0.5731340000000  0.4716090000000 1.0
C      1  0.4575130000000  0.5568520000000  0.5635750000000 1.0
C      1  0.4556860000000  0.4398360000000  0.4400190000000 1.0
C      1  0.4611470000000  0.5217230000000  0.4923220000000 1.0
C      1  0.4640800000000  0.4706270000000  0.5061850000000 1.0
C      1  0.5813330000000  0.5214760000000  0.5444000000000 1.0
C      1  0.5786050000000  0.4813570000000  0.4524350000000 1.0
C      1  0.4449240000000  0.4574880000000  0.4608620000000 1.0
C      1  0.4476470000000  0.5445110000000  0.5389660000000 1.0
C      1  0.5254050000000  0.4383680000000  0.5386220000000 1.0
C      1  0.5231840000000  0.5601550000000  0.4706800000000 1.0
C      1  0.4701730000000  0.5872150000000  0.4779250000000 1.0
C      1  0.4689490000000  0.4132910000000  0.5266910000000 1.0
C      1  0.4777210000000  0.4929780000000  0.4460250000000 1.0
C      1  0.4728560000000  0.5052120000000  0.5568830000000 1.0
C      1  0.5050610000000  0.4415570000000  0.5172240000000 1.0
C      1  0.5042090000000  0.5585610000000  0.4938440000000 1.0
C      1  0.5081570000000  0.5121850000000  0.4174660000000 1.0
C      1  0.5076890000000  0.4864700000000  0.5814690000000 1.0
C      1  0.5069110000000  0.5353340000000  0.5250300000000 1.0
C      1  0.5087070000000  0.4665580000000  0.4729690000000 1.0
C      1  0.5702430000000  0.5405080000000  0.4782980000000 1.0
C      1  0.5660210000000  0.4601090000000  0.5171030000000 1.0
C      1  0.4310610000000  0.4998240000000  0.5307070000000 1.0
C      1  0.4276390000000  0.5026930000000  0.4567720000000 1.0
C      1  0.5410910000000  0.5006780000000  0.4770030000000 1.0
C      1  0.5422990000000  0.5019270000000  0.5213990000000 1.0
C      1  0.4770170000000  0.4975910000000  0.4980190000000 1.0
END
