TITL C-3578205-846-80 -1.5911612288038e-06 125000 -727.335138232805 0 0 117 (C1) n - 1
REM
REM in /home/bkarasulu/work/CARBON/AIRSS/Generating-Clusters/EDIP-Nigel-Params/with-SteepDescent/Higher-Symm/SD-CG/HFTN-CG
REM
REM
REM
REM
REM
REM ./C.cell (12c818d87b63d06a65506943cc24bca4)
REM
REM compiler GCC version 9.2.1 20190827 (Red Hat 9.2.1-1)
REM options -cpp -mtune=generic -march=x86-64 -g -O0 -fpre-include=/usr/include/finclude/math-vector-fortran.h
REM seed -392063603 -1027652662 1544581496 2085035191 -2019785867 2112453147 1058844502 -1033770730 -1329410744 700673598 -964801852 1215596727 -603839522 -1438243805 1945019318 941037969 -1104696879 -1352154670 73393391 -1333065174 -1107684682 -1395836975 -167878622 -769954528 1463743619 2057486972 816768787 -1961542860 -1540008849 -914779266 -151553383 414331869 -2086191022
REM
CELL 1.54180   50.00000   50.00000   50.00000   90.00000   90.00000   90.00000
LATT -1
SFAC C  
C      1  0.4912520000000  0.5135020000000  0.5370030000000 1.0
C      1  0.5212670000000  0.5105270000000  0.5472160000000 1.0
C      1  0.5318580000000  0.5851790000000  0.4824450000000 1.0
C      1  0.4596260000000  0.5885400000000  0.4842230000000 1.0
C      1  0.5111030000000  0.5696860000000  0.5523030000000 1.0
C      1  0.4830450000000  0.5722810000000  0.5543500000000 1.0
C      1  0.4682300000000  0.5080060000000  0.5898070000000 1.0
C      1  0.5252330000000  0.5062570000000  0.5853260000000 1.0
C      1  0.5650710000000  0.5265310000000  0.4518820000000 1.0
C      1  0.4372750000000  0.5276340000000  0.4550330000000 1.0
C      1  0.5101260000000  0.4316740000000  0.5140000000000 1.0
C      1  0.4778530000000  0.4349630000000  0.5163030000000 1.0
C      1  0.4364760000000  0.5780140000000  0.4695820000000 1.0
C      1  0.5573900000000  0.5754340000000  0.4715220000000 1.0
C      1  0.4453200000000  0.5468090000000  0.5561240000000 1.0
C      1  0.5492580000000  0.5438230000000  0.5536790000000 1.0
C      1  0.4432940000000  0.5656630000000  0.5336170000000 1.0
C      1  0.5500890000000  0.5609920000000  0.5303260000000 1.0
C      1  0.4848980000000  0.4897000000000  0.4145800000000 1.0
C      1  0.5145640000000  0.4895640000000  0.4134140000000 1.0
C      1  0.4038660000000  0.4886680000000  0.4951560000000 1.0
C      1  0.5906870000000  0.4901320000000  0.4940880000000 1.0
C      1  0.5838340000000  0.4608580000000  0.5008080000000 1.0
C      1  0.4143060000000  0.4609740000000  0.5046840000000 1.0
C      1  0.5840440000000  0.4846630000000  0.4511870000000 1.0
C      1  0.4201030000000  0.4836070000000  0.4546060000000 1.0
C      1  0.5525040000000  0.4993080000000  0.5256740000000 1.0
C      1  0.4481450000000  0.4962520000000  0.5241930000000 1.0
C      1  0.5116480000000  0.4476020000000  0.5606150000000 1.0
C      1  0.4811860000000  0.4501160000000  0.5630530000000 1.0
C      1  0.4378690000000  0.4402100000000  0.5417270000000 1.0
C      1  0.5533140000000  0.4289270000000  0.5241540000000 1.0
C      1  0.5558180000000  0.4742170000000  0.5685480000000 1.0
C      1  0.4400370000000  0.4808060000000  0.5688960000000 1.0
C      1  0.5914110000000  0.5125570000000  0.4628940000000 1.0
C      1  0.4106320000000  0.5119860000000  0.4645550000000 1.0
C      1  0.4415100000000  0.4549810000000  0.4919480000000 1.0
C      1  0.5591240000000  0.4545890000000  0.4860960000000 1.0
C      1  0.5750190000000  0.4514950000000  0.5274580000000 1.0
C      1  0.4182840000000  0.4590740000000  0.5334530000000 1.0
C      1  0.5447180000000  0.4291110000000  0.4488010000000 1.0
C      1  0.4625510000000  0.4305020000000  0.4520460000000 1.0
C      1  0.5695580000000  0.4844440000000  0.4244350000000 1.0
C      1  0.4354250000000  0.4835870000000  0.4298800000000 1.0
C      1  0.4000800000000  0.5289260000000  0.5191690000000 1.0
C      1  0.6035810000000  0.5277020000000  0.5187030000000 1.0
C      1  0.5723530000000  0.4777870000000  0.5437310000000 1.0
C      1  0.4270380000000  0.4862930000000  0.5425240000000 1.0
C      1  0.4457040000000  0.5112060000000  0.4310390000000 1.0
C      1  0.5567000000000  0.5108060000000  0.4276020000000 1.0
C      1  0.4861560000000  0.5560260000000  0.4709140000000 1.0
C      1  0.5137610000000  0.5474860000000  0.4676630000000 1.0
C      1  0.4685670000000  0.5536950000000  0.5713880000000 1.0
C      1  0.5250750000000  0.5498700000000  0.5671900000000 1.0
C      1  0.5902380000000  0.5120980000000  0.5437590000000 1.0
C      1  0.4076390000000  0.5110650000000  0.5461330000000 1.0
C      1  0.4896930000000  0.4161250000000  0.4579410000000 1.0
C      1  0.5195970000000  0.4198210000000  0.4614510000000 1.0
C      1  0.4734470000000  0.5141950000000  0.4247860000000 1.0
C      1  0.5277820000000  0.5128440000000  0.4247490000000 1.0
C      1  0.4793500000000  0.4681880000000  0.4360960000000 1.0
C      1  0.5182540000000  0.4689010000000  0.4350080000000 1.0
C      1  0.4436060000000  0.4781840000000  0.4733630000000 1.0
C      1  0.5575910000000  0.4736870000000  0.4642780000000 1.0
C      1  0.4743150000000  0.4887970000000  0.5356250000000 1.0
C      1  0.5321300000000  0.4766120000000  0.5267860000000 1.0
C      1  0.4458030000000  0.4289590000000  0.4772260000000 1.0
C      1  0.5630570000000  0.4282150000000  0.4730040000000 1.0
C      1  0.4827740000000  0.5320980000000  0.5849940000000 1.0
C      1  0.5119850000000  0.5314940000000  0.5847260000000 1.0
C      1  0.4733740000000  0.5607050000000  0.4435680000000 1.0
C      1  0.5265630000000  0.5582350000000  0.4430510000000 1.0
C      1  0.5531020000000  0.4122410000000  0.4974410000000 1.0
C      1  0.4627050000000  0.4150970000000  0.4975450000000 1.0
C      1  0.5275790000000  0.4042190000000  0.4845250000000 1.0
C      1  0.4831610000000  0.4003740000000  0.4828110000000 1.0
C      1  0.4161890000000  0.5366970000000  0.4946340000000 1.0
C      1  0.5925340000000  0.5380410000000  0.4922260000000 1.0
C      1  0.4721530000000  0.4806330000000  0.4624990000000 1.0
C      1  0.5284490000000  0.4855810000000  0.4598820000000 1.0
C      1  0.4555920000000  0.4512180000000  0.4304520000000 1.0
C      1  0.5457260000000  0.4553190000000  0.4323750000000 1.0
C      1  0.5251800000000  0.5767520000000  0.5284260000000 1.0
C      1  0.4680520000000  0.5818100000000  0.5312270000000 1.0
C      1  0.5285990000000  0.4584950000000  0.5023900000000 1.0
C      1  0.4702750000000  0.4626530000000  0.5071650000000 1.0
C      1  0.5160700000000  0.5399650000000  0.4214490000000 1.0
C      1  0.4856410000000  0.5406860000000  0.4226030000000 1.0
C      1  0.4439650000000  0.5544630000000  0.5058740000000 1.0
C      1  0.5575280000000  0.5472960000000  0.5053700000000 1.0
C      1  0.5533340000000  0.5018340000000  0.5790600000000 1.0
C      1  0.4395800000000  0.5059240000000  0.5839160000000 1.0
C      1  0.5165640000000  0.5117090000000  0.5051790000000 1.0
C      1  0.4904010000000  0.5265300000000  0.5105750000000 1.0
C      1  0.4701140000000  0.4789610000000  0.5644070000000 1.0
C      1  0.5272930000000  0.4734780000000  0.5570490000000 1.0
C      1  0.4543940000000  0.5210280000000  0.4786920000000 1.0
C      1  0.5488130000000  0.5153570000000  0.4749280000000 1.0
C      1  0.4435750000000  0.5580960000000  0.4482250000000 1.0
C      1  0.5559900000000  0.5563820000000  0.4482770000000 1.0
C      1  0.4144250000000  0.5661250000000  0.4853950000000 1.0
C      1  0.5781250000000  0.5662480000000  0.4911080000000 1.0
C      1  0.4654870000000  0.4338230000000  0.5436270000000 1.0
C      1  0.5220900000000  0.4273340000000  0.5412540000000 1.0
C      1  0.4702240000000  0.5410050000000  0.4925770000000 1.0
C      1  0.5316460000000  0.5347720000000  0.4891380000000 1.0
C      1  0.6108140000000  0.5003390000000  0.5129440000000 1.0
C      1  0.3878710000000  0.5032920000000  0.5144140000000 1.0
C      1  0.5649110000000  0.5048700000000  0.4982780000000 1.0
C      1  0.4403820000000  0.5007000000000  0.4949700000000 1.0
C      1  0.5664040000000  0.5215100000000  0.5606420000000 1.0
C      1  0.4261910000000  0.5266980000000  0.5659340000000 1.0
C      1  0.4806120000000  0.5849480000000  0.5041470000000 1.0
C      1  0.5119530000000  0.5851740000000  0.5034890000000 1.0
C      1  0.4874230000000  0.4710380000000  0.4843670000000 1.0
C      1  0.5138390000000  0.4820010000000  0.4869720000000 1.0
C      1  0.5057570000000  0.3965800000000  0.5004730000000 1.0
END
