TITL C-3578206-1180-231 -7.71860933218762e-07 125000 -67.8126624706518 0 0 13 (Cs) n - 1
REM
REM in /home/bkarasulu/work/CARBON/AIRSS/Generating-Clusters/EDIP-Nigel-Params/with-SteepDescent/Higher-Symm/SD-CG/HFTN-CG
REM
REM
REM
REM
REM
REM ./C.cell (12c818d87b63d06a65506943cc24bca4)
REM
REM compiler GCC version 9.2.1 20190827 (Red Hat 9.2.1-1)
REM options -cpp -mtune=generic -march=x86-64 -g -O0 -fpre-include=/usr/include/finclude/math-vector-fortran.h
REM seed -1113904225 -264272028 146841914 399183664 -1148836810 -2020910767 -717981021 37154906 -2039440673 1708694142 795211881 -564077533 181120356 504793701 -1159311174 -1957644999 1134144824 1963943825 -818904669 -540415927 546775129 -1327823594 -1880633592 -827172854 1424202282 -1730290916 -231451303 1491563971 -36063221 1582236039 1770242578 -1155910286 1646994452
REM
CELL 1.54180   50.00000   50.00000   50.00000   90.00000   90.00000   90.00000
LATT -1
SFAC C  
C      1  0.4941730000000  0.5448800000000  0.4982570000000 1.0
C      1  0.4569130000000  0.5077530000000  0.4982950000000 1.0
C      1  0.4822200000000  0.4629400000000  0.4984890000000 1.0
C      1  0.5305380000000  0.4711130000000  0.4879640000000 1.0
C      1  0.5388950000000  0.5194120000000  0.4984310000000 1.0
C      1  0.5452930000000  0.4926160000000  0.5004600000000 1.0
C      1  0.5210810000000  0.5397620000000  0.4971970000000 1.0
C      1  0.4690380000000  0.5328440000000  0.4974720000000 1.0
C      1  0.4619320000000  0.4808260000000  0.4972570000000 1.0
C      1  0.5089950000000  0.4564480000000  0.5004970000000 1.0
C      1  0.4972350000000  0.5045520000000  0.5035490000000 1.0
C      1  0.5050020000000  0.4967820000000  0.5284800000000 1.0
C      1  0.5103790000000  0.4913360000000  0.4800500000000 1.0
END
