TITL C-3577081-279-181 -1.53545881131731e-06 125000 -404.637698274953 0 0 66 (C1) n - 1
REM
REM in /home/bkarasulu/work/CARBON/AIRSS/Generating-Clusters/EDIP-Nigel-Params/with-SteepDescent/Higher-Symm/SD-CG/HFTN-CG
REM
REM
REM
REM
REM
REM ./C.cell (12c818d87b63d06a65506943cc24bca4)
REM
REM compiler GCC version 9.2.1 20190827 (Red Hat 9.2.1-1)
REM options -cpp -mtune=generic -march=x86-64 -g -O0 -fpre-include=/usr/include/finclude/math-vector-fortran.h
REM seed -1530863848 -1891330989 1585324453 -1296905491 384151497 780667424 484123136 -1127582445 80715050 990235372 -1626986235 -1069545049 -350483607 -2119226294 1952695058 1132756588 -1857024576 1575666795 615207040 717324352 -1721770142 -1930737289 2118743059 -301975557 -1718404098 -495338445 -2104471847 -1238560379 -583644182 -748061152 -1099445475 -152484545 1958829577
REM
CELL 1.54180   50.00000   50.00000   50.00000   90.00000   90.00000   90.00000
LATT -1
SFAC C  
C      1  0.5394450000000  0.4821250000000  0.5592530000000 1.0
C      1  0.4721370000000  0.5479500000000  0.5530100000000 1.0
C      1  0.5538980000000  0.5553260000000  0.4712610000000 1.0
C      1  0.4616620000000  0.4893340000000  0.4459330000000 1.0
C      1  0.4455660000000  0.5222860000000  0.5501320000000 1.0
C      1  0.5577890000000  0.5310560000000  0.4500700000000 1.0
C      1  0.5159210000000  0.5558660000000  0.4617250000000 1.0
C      1  0.5181260000000  0.4404720000000  0.5448360000000 1.0
C      1  0.4774110000000  0.4451290000000  0.4527080000000 1.0
C      1  0.4494400000000  0.5376720000000  0.5093700000000 1.0
C      1  0.4625370000000  0.4411690000000  0.4766950000000 1.0
C      1  0.5526930000000  0.4620250000000  0.5160310000000 1.0
C      1  0.5579800000000  0.5236020000000  0.5549140000000 1.0
C      1  0.4780000000000  0.4437480000000  0.5681790000000 1.0
C      1  0.5399930000000  0.4419230000000  0.4756590000000 1.0
C      1  0.4408400000000  0.5331780000000  0.4429790000000 1.0
C      1  0.4637920000000  0.4791530000000  0.5635090000000 1.0
C      1  0.5380390000000  0.4900360000000  0.4484550000000 1.0
C      1  0.5240500000000  0.4433460000000  0.4506470000000 1.0
C      1  0.5142510000000  0.5410950000000  0.5336800000000 1.0
C      1  0.4713700000000  0.5576950000000  0.4400020000000 1.0
C      1  0.4552430000000  0.4579510000000  0.5171410000000 1.0
C      1  0.4452880000000  0.5622500000000  0.4687450000000 1.0
C      1  0.5596760000000  0.5342710000000  0.5176060000000 1.0
C      1  0.4455380000000  0.4916840000000  0.4705180000000 1.0
C      1  0.4867200000000  0.4732330000000  0.4522230000000 1.0
C      1  0.4864840000000  0.4290050000000  0.4927470000000 1.0
C      1  0.5509550000000  0.4853340000000  0.5328910000000 1.0
C      1  0.5696210000000  0.5142380000000  0.4726860000000 1.0
C      1  0.4456170000000  0.5034830000000  0.5266730000000 1.0
C      1  0.5172480000000  0.4636340000000  0.5617360000000 1.0
C      1  0.5086050000000  0.5277630000000  0.4525520000000 1.0
C      1  0.4852780000000  0.5266740000000  0.5691220000000 1.0
C      1  0.5309340000000  0.4432420000000  0.5191240000000 1.0
C      1  0.5285290000000  0.5564900000000  0.4890930000000 1.0
C      1  0.4756750000000  0.5500850000000  0.5041510000000 1.0
C      1  0.4301380000000  0.5175960000000  0.4670760000000 1.0
C      1  0.4856690000000  0.5323540000000  0.4329460000000 1.0
C      1  0.4710360000000  0.5697480000000  0.4825040000000 1.0
C      1  0.5682380000000  0.5084550000000  0.5319160000000 1.0
C      1  0.5471270000000  0.4935640000000  0.4775620000000 1.0
C      1  0.4472420000000  0.4764760000000  0.5384780000000 1.0
C      1  0.5079820000000  0.5175040000000  0.5508180000000 1.0
C      1  0.5165860000000  0.4707970000000  0.4412410000000 1.0
C      1  0.4951050000000  0.4634280000000  0.5799060000000 1.0
C      1  0.5303910000000  0.5341250000000  0.5092270000000 1.0
C      1  0.5247800000000  0.4272990000000  0.4960910000000 1.0
C      1  0.4839310000000  0.4479090000000  0.5172840000000 1.0
C      1  0.4486350000000  0.4657150000000  0.4882760000000 1.0
C      1  0.5000340000000  0.4281160000000  0.4561900000000 1.0
C      1  0.5554410000000  0.4657210000000  0.4870440000000 1.0
C      1  0.5732960000000  0.5378890000000  0.4909910000000 1.0
C      1  0.4321200000000  0.5409490000000  0.4855190000000 1.0
C      1  0.5335170000000  0.5172800000000  0.4391620000000 1.0
C      1  0.4614350000000  0.5085910000000  0.5713700000000 1.0
C      1  0.4900760000000  0.4327670000000  0.5438340000000 1.0
C      1  0.4897460000000  0.5717130000000  0.4598130000000 1.0
C      1  0.4890320000000  0.5561210000000  0.5298260000000 1.0
C      1  0.4619260000000  0.5151970000000  0.4313550000000 1.0
C      1  0.5343060000000  0.5100220000000  0.5660690000000 1.0
C      1  0.4874770000000  0.4862190000000  0.4819470000000 1.0
C      1  0.5020800000000  0.4752240000000  0.5097200000000 1.0
C      1  0.4736070000000  0.5071680000000  0.5118670000000 1.0
C      1  0.4961570000000  0.4974710000000  0.5302670000000 1.0
C      1  0.5011230000000  0.5126150000000  0.4778670000000 1.0
C      1  0.5235410000000  0.5054700000000  0.4961610000000 1.0
END
