TITL C-3578200-9634-791 2.22293540017556e-06 125000 -640.728101927161 0 0 104 (D2) n - 1
REM
REM in /home/bkarasulu/work/CARBON/AIRSS/Generating-Clusters/EDIP-Nigel-Params/with-SteepDescent/Higher-Symm/SD-CG/HFTN-CG
REM
REM
REM
REM
REM
REM ./C.cell (12c818d87b63d06a65506943cc24bca4)
REM
REM compiler GCC version 9.2.1 20190827 (Red Hat 9.2.1-1)
REM options -cpp -mtune=generic -march=x86-64 -g -O0 -fpre-include=/usr/include/finclude/math-vector-fortran.h
REM seed -1325568333 -1012096746 423085046 -1075680412 -1875696354 -855920006 -993985919 1045291703 1191290116 -1343173529 1090210052 -1851874362 -471148102 1940860644 1410596479 407105094 -411277658 1335549636 1692981986 -1146911502 82731683 842340682 1750755139 -482664453 -655189929 1363382620 -634448439 -239451900 -2139274486 -658911194 1287315699 1155731979 -1860519644
REM
CELL 1.54180   50.00000   50.00000   50.00000   90.00000   90.00000   90.00000
LATT -1
SFAC C  
C      1  0.5047970000000  0.5149820000000  0.5188890000000 1.0
C      1  0.4951870000000  0.4850510000000  0.5189100000000 1.0
C      1  0.5048200000000  0.4850210000000  0.4811160000000 1.0
C      1  0.4951960000000  0.5149470000000  0.4810860000000 1.0
C      1  0.4747300000000  0.5930320000000  0.5182770000000 1.0
C      1  0.5252540000000  0.4069990000000  0.5184570000000 1.0
C      1  0.4747910000000  0.4069560000000  0.4817020000000 1.0
C      1  0.5252250000000  0.5930130000000  0.4815650000000 1.0
C      1  0.4501700000000  0.4156310000000  0.4695130000000 1.0
C      1  0.5498560000000  0.5843170000000  0.4694130000000 1.0
C      1  0.4501030000000  0.5843450000000  0.5304440000000 1.0
C      1  0.5498700000000  0.4157070000000  0.5306300000000 1.0
C      1  0.5612170000000  0.4273960000000  0.4828010000000 1.0
C      1  0.4387980000000  0.5725750000000  0.4826250000000 1.0
C      1  0.5611670000000  0.5726340000000  0.5172510000000 1.0
C      1  0.4388180000000  0.4273960000000  0.5173220000000 1.0
C      1  0.5192500000000  0.4202510000000  0.4679810000000 1.0
C      1  0.4807780000000  0.5796950000000  0.4678290000000 1.0
C      1  0.5191840000000  0.5797580000000  0.5320360000000 1.0
C      1  0.4807880000000  0.4202960000000  0.5321550000000 1.0
C      1  0.4857480000000  0.5055490000000  0.4316440000000 1.0
C      1  0.5143110000000  0.4943350000000  0.4316650000000 1.0
C      1  0.4856920000000  0.4944440000000  0.5683440000000 1.0
C      1  0.5142500000000  0.5056720000000  0.5683470000000 1.0
C      1  0.4129140000000  0.4971770000000  0.5183250000000 1.0
C      1  0.5870700000000  0.5028540000000  0.5183950000000 1.0
C      1  0.4129280000000  0.5027810000000  0.4816000000000 1.0
C      1  0.5870880000000  0.4971880000000  0.4816790000000 1.0
C      1  0.5218100000000  0.5560800000000  0.5506900000000 1.0
C      1  0.4781460000000  0.4440070000000  0.5507670000000 1.0
C      1  0.5218800000000  0.4439310000000  0.4493290000000 1.0
C      1  0.4781630000000  0.5559830000000  0.4492150000000 1.0
C      1  0.5304140000000  0.4870920000000  0.5832510000000 1.0
C      1  0.4695150000000  0.5130490000000  0.5832030000000 1.0
C      1  0.5304790000000  0.5129220000000  0.4167750000000 1.0
C      1  0.4695920000000  0.4869360000000  0.4167710000000 1.0
C      1  0.4928330000000  0.5941580000000  0.5416500000000 1.0
C      1  0.5071320000000  0.4059130000000  0.5418160000000 1.0
C      1  0.4929140000000  0.4058390000000  0.4583440000000 1.0
C      1  0.5071220000000  0.5940900000000  0.4581900000000 1.0
C      1  0.5417360000000  0.4836500000000  0.5312620000000 1.0
C      1  0.4582370000000  0.5164030000000  0.5311980000000 1.0
C      1  0.5417550000000  0.5163700000000  0.4687740000000 1.0
C      1  0.4582720000000  0.4835770000000  0.4687660000000 1.0
C      1  0.4569310000000  0.5370550000000  0.4535130000000 1.0
C      1  0.5431090000000  0.4628660000000  0.4536130000000 1.0
C      1  0.4569090000000  0.4629250000000  0.5464500000000 1.0
C      1  0.5430510000000  0.5371540000000  0.5464240000000 1.0
C      1  0.4187830000000  0.5451920000000  0.5209100000000 1.0
C      1  0.5811990000000  0.4548440000000  0.5210560000000 1.0
C      1  0.4188230000000  0.4547690000000  0.4790200000000 1.0
C      1  0.5811950000000  0.5451950000000  0.4790130000000 1.0
C      1  0.4350720000000  0.4535350000000  0.5299730000000 1.0
C      1  0.5649020000000  0.5465160000000  0.5299500000000 1.0
C      1  0.4350750000000  0.5464340000000  0.4699710000000 1.0
C      1  0.5649500000000  0.4535150000000  0.4701060000000 1.0
C      1  0.5141660000000  0.5745920000000  0.5022670000000 1.0
C      1  0.4858320000000  0.4254120000000  0.5023820000000 1.0
C      1  0.5142040000000  0.4254140000000  0.4977450000000 1.0
C      1  0.4857980000000  0.5745820000000  0.4976060000000 1.0
C      1  0.4841750000000  0.4673250000000  0.4681150000000 1.0
C      1  0.5158530000000  0.5326210000000  0.4680730000000 1.0
C      1  0.4841310000000  0.5326680000000  0.5318710000000 1.0
C      1  0.5158410000000  0.4673870000000  0.5319400000000 1.0
C      1  0.4979300000000  0.5396360000000  0.5574280000000 1.0
C      1  0.5020210000000  0.4604610000000  0.5574980000000 1.0
C      1  0.4979980000000  0.4603630000000  0.4425700000000 1.0
C      1  0.5020510000000  0.5395400000000  0.4425040000000 1.0
C      1  0.5287120000000  0.4892530000000  0.4591520000000 1.0
C      1  0.4713230000000  0.5106780000000  0.4591090000000 1.0
C      1  0.5286720000000  0.5107610000000  0.5408720000000 1.0
C      1  0.4712930000000  0.4893080000000  0.5408660000000 1.0
C      1  0.5381150000000  0.4614320000000  0.5868550000000 1.0
C      1  0.4618100000000  0.5387160000000  0.5867570000000 1.0
C      1  0.5381710000000  0.5385860000000  0.4131780000000 1.0
C      1  0.4619040000000  0.4612660000000  0.4132100000000 1.0
C      1  0.5430520000000  0.5143250000000  0.4980740000000 1.0
C      1  0.4569500000000  0.4856710000000  0.4980610000000 1.0
C      1  0.5430570000000  0.4856950000000  0.5019640000000 1.0
C      1  0.4569410000000  0.5143080000000  0.5019020000000 1.0
C      1  0.5736430000000  0.4805190000000  0.5339010000000 1.0
C      1  0.4263280000000  0.5195380000000  0.5338050000000 1.0
C      1  0.5736630000000  0.5195160000000  0.4661620000000 1.0
C      1  0.4263660000000  0.4804260000000  0.4661320000000 1.0
C      1  0.5455880000000  0.4073900000000  0.4686430000000 1.0
C      1  0.4544390000000  0.5925570000000  0.4684460000000 1.0
C      1  0.5455170000000  0.5926320000000  0.5313960000000 1.0
C      1  0.4544560000000  0.4074220000000  0.5315140000000 1.0
C      1  0.5201120000000  0.4445180000000  0.5739920000000 1.0
C      1  0.4798240000000  0.5556080000000  0.5738800000000 1.0
C      1  0.5201500000000  0.5554920000000  0.4260250000000 1.0
C      1  0.4799140000000  0.4443820000000  0.4261020000000 1.0
C      1  0.4306330000000  0.5257480000000  0.4906350000000 1.0
C      1  0.5693750000000  0.4742370000000  0.4907390000000 1.0
C      1  0.4306370000000  0.4742190000000  0.5093050000000 1.0
C      1  0.5693550000000  0.5257970000000  0.5093210000000 1.0
C      1  0.5263740000000  0.4193560000000  0.5608210000000 1.0
C      1  0.4735740000000  0.5807470000000  0.5606610000000 1.0
C      1  0.5263880000000  0.5806560000000  0.4392010000000 1.0
C      1  0.4736650000000  0.4192400000000  0.4393160000000 1.0
C      1  0.4362480000000  0.4327630000000  0.4879680000000 1.0
C      1  0.5637630000000  0.5672170000000  0.4879090000000 1.0
C      1  0.4362050000000  0.5672070000000  0.5119770000000 1.0
C      1  0.5637840000000  0.4328140000000  0.5121460000000 1.0
END
