TITL C-3577077-324-646 -3.93508864501683e-06 125000 -1261.486560533 0 0 198 (C1) n - 1
REM
REM in /home/bkarasulu/work/CARBON/AIRSS/Generating-Clusters/EDIP-Nigel-Params/with-SteepDescent/Higher-Symm/SD-CG/HFTN-CG
REM
REM
REM
REM
REM
REM ./C.cell (12c818d87b63d06a65506943cc24bca4)
REM
REM compiler GCC version 9.2.1 20190827 (Red Hat 9.2.1-1)
REM options -cpp -mtune=generic -march=x86-64 -g -O0 -fpre-include=/usr/include/finclude/math-vector-fortran.h
REM seed -1554926930 878610219 1663345233 329964199 -1672806699 1491525813 180028791 960503994 -292253539 716832495 1146419470 691890224 668821161 292865508 -81934383 -1992023049 869563572 2129703790 1583064049 1287672295 1866471250 -1004575038 653873726 1597854965 54691905 -1036176872 288756596 1668234316 -1392902475 -1137108545 -439106713 -2106434179 -1602906046
REM
CELL 1.54180   50.00000   50.00000   50.00000   90.00000   90.00000   90.00000
LATT -1
SFAC C  
C      1  0.5827670000000  0.4208720000000  0.4961160000000 1.0
C      1  0.5743630000000  0.4735690000000  0.4222230000000 1.0
C      1  0.5598670000000  0.5622350000000  0.4636740000000 1.0
C      1  0.5715780000000  0.5539580000000  0.5499340000000 1.0
C      1  0.5840200000000  0.4760780000000  0.5663490000000 1.0
C      1  0.4196110000000  0.4302110000000  0.4962810000000 1.0
C      1  0.4276170000000  0.4781120000000  0.4200770000000 1.0
C      1  0.4260870000000  0.5537380000000  0.4648290000000 1.0
C      1  0.4233170000000  0.5701740000000  0.5520370000000 1.0
C      1  0.4222090000000  0.4740040000000  0.5629740000000 1.0
C      1  0.4776540000000  0.6115350000000  0.4684880000000 1.0
C      1  0.4739150000000  0.5374570000000  0.5985840000000 1.0
C      1  0.4683010000000  0.4183940000000  0.5699020000000 1.0
C      1  0.4738700000000  0.4028160000000  0.4480440000000 1.0
C      1  0.4794250000000  0.5303500000000  0.3971110000000 1.0
C      1  0.5162870000000  0.5993250000000  0.4953730000000 1.0
C      1  0.5281200000000  0.5432380000000  0.6042760000000 1.0
C      1  0.5316910000000  0.4255900000000  0.5709650000000 1.0
C      1  0.5007280000000  0.4100170000000  0.4572820000000 1.0
C      1  0.5184710000000  0.5013700000000  0.3887930000000 1.0
C      1  0.4808930000000  0.4532080000000  0.5622060000000 1.0
C      1  0.4842840000000  0.4381390000000  0.4874420000000 1.0
C      1  0.4901700000000  0.4959480000000  0.4222830000000 1.0
C      1  0.4774890000000  0.5628890000000  0.4693230000000 1.0
C      1  0.4697160000000  0.5487370000000  0.5415640000000 1.0
C      1  0.5123990000000  0.4564350000000  0.5609320000000 1.0
C      1  0.5229550000000  0.4418680000000  0.4890400000000 1.0
C      1  0.5214460000000  0.4830860000000  0.4285730000000 1.0
C      1  0.5085860000000  0.5716370000000  0.4830040000000 1.0
C      1  0.5027890000000  0.5474030000000  0.5875840000000 1.0
C      1  0.5822240000000  0.5718080000000  0.4811550000000 1.0
C      1  0.5940050000000  0.5433500000000  0.5650180000000 1.0
C      1  0.6014440000000  0.4541070000000  0.5612370000000 1.0
C      1  0.5957930000000  0.4226010000000  0.4693660000000 1.0
C      1  0.5840300000000  0.5014890000000  0.4256410000000 1.0
C      1  0.4128470000000  0.5727200000000  0.4803430000000 1.0
C      1  0.4103740000000  0.5444930000000  0.5614270000000 1.0
C      1  0.4039010000000  0.4525130000000  0.5556160000000 1.0
C      1  0.4093920000000  0.4332320000000  0.4711980000000 1.0
C      1  0.4132910000000  0.5031940000000  0.4208740000000 1.0
C      1  0.5536570000000  0.5085350000000  0.5161700000000 1.0
C      1  0.5589160000000  0.4793460000000  0.5124370000000 1.0
C      1  0.5655030000000  0.4707520000000  0.4830460000000 1.0
C      1  0.5495700000000  0.4946070000000  0.4704880000000 1.0
C      1  0.5531500000000  0.5167290000000  0.4887480000000 1.0
C      1  0.4331230000000  0.5233450000000  0.5158830000000 1.0
C      1  0.4442670000000  0.4827890000000  0.5412410000000 1.0
C      1  0.4477020000000  0.4848840000000  0.4911060000000 1.0
C      1  0.4501010000000  0.5078950000000  0.4730110000000 1.0
C      1  0.4450600000000  0.5324540000000  0.4886410000000 1.0
C      1  0.5555900000000  0.4026090000000  0.4661880000000 1.0
C      1  0.5466350000000  0.4966280000000  0.3947290000000 1.0
C      1  0.5438030000000  0.6046620000000  0.4799680000000 1.0
C      1  0.5522640000000  0.5545740000000  0.5898200000000 1.0
C      1  0.5533660000000  0.4450150000000  0.5727760000000 1.0
C      1  0.4522980000000  0.4079260000000  0.4674830000000 1.0
C      1  0.4566340000000  0.5103310000000  0.3990670000000 1.0
C      1  0.4589450000000  0.5889240000000  0.4647430000000 1.0
C      1  0.4484700000000  0.5508410000000  0.5904580000000 1.0
C      1  0.4443220000000  0.4338470000000  0.5764140000000 1.0
C      1  0.3935030000000  0.5274840000000  0.4976990000000 1.0
C      1  0.3916100000000  0.5089260000000  0.5210320000000 1.0
C      1  0.3958510000000  0.4801190000000  0.5103300000000 1.0
C      1  0.3930440000000  0.4803750000000  0.4797150000000 1.0
C      1  0.3938360000000  0.5090460000000  0.4727650000000 1.0
C      1  0.6038950000000  0.5275660000000  0.5001380000000 1.0
C      1  0.6066400000000  0.5091900000000  0.5234720000000 1.0
C      1  0.6087300000000  0.4809460000000  0.5134770000000 1.0
C      1  0.6178370000000  0.4668530000000  0.4676940000000 1.0
C      1  0.6008930000000  0.5116120000000  0.4750570000000 1.0
C      1  0.5900070000000  0.5534390000000  0.5028640000000 1.0
C      1  0.6015530000000  0.5176290000000  0.5524330000000 1.0
C      1  0.5992360000000  0.4554170000000  0.5299950000000 1.0
C      1  0.6009010000000  0.4479270000000  0.4564330000000 1.0
C      1  0.5873020000000  0.5203110000000  0.4487200000000 1.0
C      1  0.4063580000000  0.5569900000000  0.5044220000000 1.0
C      1  0.4024510000000  0.5174240000000  0.5476120000000 1.0
C      1  0.3935200000000  0.4537290000000  0.5281580000000 1.0
C      1  0.4070760000000  0.4603630000000  0.4623800000000 1.0
C      1  0.4043030000000  0.5165920000000  0.4459060000000 1.0
C      1  0.5502950000000  0.4398070000000  0.4743780000000 1.0
C      1  0.5388790000000  0.5042630000000  0.4430110000000 1.0
C      1  0.5424280000000  0.5426450000000  0.4815650000000 1.0
C      1  0.5507640000000  0.5295440000000  0.5386350000000 1.0
C      1  0.5675640000000  0.4609130000000  0.5346830000000 1.0
C      1  0.4456530000000  0.4558030000000  0.4835180000000 1.0
C      1  0.4656090000000  0.5131760000000  0.4469930000000 1.0
C      1  0.4725690000000  0.5455190000000  0.4930490000000 1.0
C      1  0.4430470000000  0.5324580000000  0.5435120000000 1.0
C      1  0.4681990000000  0.4636160000000  0.5348220000000 1.0
C      1  0.4855490000000  0.3965840000000  0.5020650000000 1.0
C      1  0.4770640000000  0.4630830000000  0.3988120000000 1.0
C      1  0.4784420000000  0.6014400000000  0.4224240000000 1.0
C      1  0.4748150000000  0.5843730000000  0.5662950000000 1.0
C      1  0.4737320000000  0.4638720000000  0.6042910000000 1.0
C      1  0.5310760000000  0.4009260000000  0.5030570000000 1.0
C      1  0.5257200000000  0.4553040000000  0.4010110000000 1.0
C      1  0.5160960000000  0.5847230000000  0.4466990000000 1.0
C      1  0.5211870000000  0.5913600000000  0.5711590000000 1.0
C      1  0.5207960000000  0.4683430000000  0.6021590000000 1.0
C      1  0.5107000000000  0.4942260000000  0.6082060000000 1.0
C      1  0.5223450000000  0.3961750000000  0.5306830000000 1.0
C      1  0.5118840000000  0.4295920000000  0.4111610000000 1.0
C      1  0.5154640000000  0.5713780000000  0.4203130000000 1.0
C      1  0.5087810000000  0.6067580000000  0.5478110000000 1.0
C      1  0.4828940000000  0.4903160000000  0.6136500000000 1.0
C      1  0.4930760000000  0.3999060000000  0.5296960000000 1.0
C      1  0.4825340000000  0.4324790000000  0.4064620000000 1.0
C      1  0.4917840000000  0.5801450000000  0.4050260000000 1.0
C      1  0.4793030000000  0.6033140000000  0.5447530000000 1.0
C      1  0.5848100000000  0.4135700000000  0.5441640000000 1.0
C      1  0.5711670000000  0.4276350000000  0.4284050000000 1.0
C      1  0.5563670000000  0.5420260000000  0.4159770000000 1.0
C      1  0.5684980000000  0.5890980000000  0.5227770000000 1.0
C      1  0.5781050000000  0.5117340000000  0.5938250000000 1.0
C      1  0.4203230000000  0.4126470000000  0.5368530000000 1.0
C      1  0.4282990000000  0.4317770000000  0.4299740000000 1.0
C      1  0.4278380000000  0.5480360000000  0.4184700000000 1.0
C      1  0.4400790000000  0.5953790000000  0.5119730000000 1.0
C      1  0.4188890000000  0.5096380000000  0.5924350000000 1.0
C      1  0.4556320000000  0.4459590000000  0.4314700000000 1.0
C      1  0.4548920000000  0.5599150000000  0.4249340000000 1.0
C      1  0.4704950000000  0.5939690000000  0.5165810000000 1.0
C      1  0.4462910000000  0.4994550000000  0.5879340000000 1.0
C      1  0.4490670000000  0.4120010000000  0.5247630000000 1.0
C      1  0.5414280000000  0.4394480000000  0.4443560000000 1.0
C      1  0.5253800000000  0.5435270000000  0.4177630000000 1.0
C      1  0.5417180000000  0.5802080000000  0.5337390000000 1.0
C      1  0.5496700000000  0.5025400000000  0.5873250000000 1.0
C      1  0.5546380000000  0.4301820000000  0.5279360000000 1.0
C      1  0.5095700000000  0.5103400000000  0.4678890000000 1.0
C      1  0.5197800000000  0.5480880000000  0.4993060000000 1.0
C      1  0.5119630000000  0.5338340000000  0.5596350000000 1.0
C      1  0.5159610000000  0.4654390000000  0.5326060000000 1.0
C      1  0.5151890000000  0.4677380000000  0.4761480000000 1.0
C      1  0.4881990000000  0.4952350000000  0.4541980000000 1.0
C      1  0.4981360000000  0.5259610000000  0.4953180000000 1.0
C      1  0.4873690000000  0.5230640000000  0.5454020000000 1.0
C      1  0.4919280000000  0.4784430000000  0.5195170000000 1.0
C      1  0.4895330000000  0.4703080000000  0.4903770000000 1.0
C      1  0.5889230000000  0.4502350000000  0.4302520000000 1.0
C      1  0.5727150000000  0.5460290000000  0.4411490000000 1.0
C      1  0.5864690000000  0.5672020000000  0.5280860000000 1.0
C      1  0.5962510000000  0.4997470000000  0.5743380000000 1.0
C      1  0.5976120000000  0.4259510000000  0.5208330000000 1.0
C      1  0.4130310000000  0.4567950000000  0.4335740000000 1.0
C      1  0.4111090000000  0.5443870000000  0.4423710000000 1.0
C      1  0.4240850000000  0.5730840000000  0.5233270000000 1.0
C      1  0.4048930000000  0.4977620000000  0.5693000000000 1.0
C      1  0.4027440000000  0.4274300000000  0.5182360000000 1.0
C      1  0.5440650000000  0.5878240000000  0.4560200000000 1.0
C      1  0.5493780000000  0.5783780000000  0.5715740000000 1.0
C      1  0.5454350000000  0.4702200000000  0.5871140000000 1.0
C      1  0.5595270000000  0.4019930000000  0.4945130000000 1.0
C      1  0.5535280000000  0.4695180000000  0.4015880000000 1.0
C      1  0.4539510000000  0.5885130000000  0.4347440000000 1.0
C      1  0.4494010000000  0.5691990000000  0.5679140000000 1.0
C      1  0.4473810000000  0.4608110000000  0.5898780000000 1.0
C      1  0.4571140000000  0.3999020000000  0.4958680000000 1.0
C      1  0.4540830000000  0.4811230000000  0.4054280000000 1.0
C      1  0.4666130000000  0.4114900000000  0.4212000000000 1.0
C      1  0.4711410000000  0.5586190000000  0.4002570000000 1.0
C      1  0.4882910000000  0.6095020000000  0.4954780000000 1.0
C      1  0.4646550000000  0.5113730000000  0.6075280000000 1.0
C      1  0.4689170000000  0.4030130000000  0.5456280000000 1.0
C      1  0.5209220000000  0.4182240000000  0.4371670000000 1.0
C      1  0.5084200000000  0.5269050000000  0.3975990000000 1.0
C      1  0.5231300000000  0.5993310000000  0.5242010000000 1.0
C      1  0.5322150000000  0.5141080000000  0.6094870000000 1.0
C      1  0.5412140000000  0.4099360000000  0.5486510000000 1.0
C      1  0.4547060000000  0.5064070000000  0.5577780000000 1.0
C      1  0.4596150000000  0.4410220000000  0.5129610000000 1.0
C      1  0.4650030000000  0.4497230000000  0.4601850000000 1.0
C      1  0.4711640000000  0.5439840000000  0.4456450000000 1.0
C      1  0.4746050000000  0.5633270000000  0.5164670000000 1.0
C      1  0.5368400000000  0.5149620000000  0.5613060000000 1.0
C      1  0.5300970000000  0.4458620000000  0.5169140000000 1.0
C      1  0.5196700000000  0.4612960000000  0.4477340000000 1.0
C      1  0.5218360000000  0.5299360000000  0.4446960000000 1.0
C      1  0.5297380000000  0.5513930000000  0.5292930000000 1.0
C      1  0.4340920000000  0.5931390000000  0.4833940000000 1.0
C      1  0.4208210000000  0.5388150000000  0.5889160000000 1.0
C      1  0.4192020000000  0.4284280000000  0.5615830000000 1.0
C      1  0.4257090000000  0.4153160000000  0.4547720000000 1.0
C      1  0.4297440000000  0.5217800000000  0.4051170000000 1.0
C      1  0.5698030000000  0.5960430000000  0.4937680000000 1.0
C      1  0.5795210000000  0.5410640000000  0.5912890000000 1.0
C      1  0.5814920000000  0.4322120000000  0.5670010000000 1.0
C      1  0.5782140000000  0.4088240000000  0.4500670000000 1.0
C      1  0.5643030000000  0.5148710000000  0.4086940000000 1.0
C      1  0.4985720000000  0.4495870000000  0.5969230000000 1.0
C      1  0.5076870000000  0.4009660000000  0.4842640000000 1.0
C      1  0.5040800000000  0.4745210000000  0.3902800000000 1.0
C      1  0.4971370000000  0.6088290000000  0.4454100000000 1.0
C      1  0.4986820000000  0.5764930000000  0.5814110000000 1.0
C      1  0.5995280000000  0.4822000000000  0.4842190000000 1.0
C      1  0.4322350000000  0.4931240000000  0.5151490000000 1.0
C      1  0.4942570000000  0.5088890000000  0.5202250000000 1.0
END
