TITL C-3578205-846-729 8.50149520817242e-07 125000 -631.762375903223 0 0 104 (C1) n - 1
REM
REM in /home/bkarasulu/work/CARBON/AIRSS/Generating-Clusters/EDIP-Nigel-Params/with-SteepDescent/Higher-Symm/SD-CG/HFTN-CG
REM
REM
REM
REM
REM
REM ./C.cell (12c818d87b63d06a65506943cc24bca4)
REM
REM compiler GCC version 9.2.1 20190827 (Red Hat 9.2.1-1)
REM options -cpp -mtune=generic -march=x86-64 -g -O0 -fpre-include=/usr/include/finclude/math-vector-fortran.h
REM seed 2034148051 -75588569 656615790 299083803 -907747560 -1648739599 1090513658 1889309029 -2076858403 1221722219 -1550868402 1285593198 -22043818 -1889398239 1779896603 -1262403773 -2016271730 -1122801215 972704283 1102467118 -674340158 1193965609 1378972362 1956072998 63347096 -2113094505 -2104740710 -363161918 -444638984 1990362861 -1120068530 1961808261 -1260318311
REM
CELL 1.54180   50.00000   50.00000   50.00000   90.00000   90.00000   90.00000
LATT -1
SFAC C  
C      1  0.5750430000000  0.4459530000000  0.5342250000000 1.0
C      1  0.5773760000000  0.4948260000000  0.5401080000000 1.0
C      1  0.5936390000000  0.5488350000000  0.5052800000000 1.0
C      1  0.5882840000000  0.5202490000000  0.4641370000000 1.0
C      1  0.5676370000000  0.4501560000000  0.4485030000000 1.0
C      1  0.4311070000000  0.4530200000000  0.5261400000000 1.0
C      1  0.4248390000000  0.5008220000000  0.5311410000000 1.0
C      1  0.4028250000000  0.5542540000000  0.5094940000000 1.0
C      1  0.4079780000000  0.5228400000000  0.4672420000000 1.0
C      1  0.4237840000000  0.4594070000000  0.4472870000000 1.0
C      1  0.5352340000000  0.4155780000000  0.4719250000000 1.0
C      1  0.5300010000000  0.4494000000000  0.5554720000000 1.0
C      1  0.5298830000000  0.5413770000000  0.5649310000000 1.0
C      1  0.5279410000000  0.5814440000000  0.4877590000000 1.0
C      1  0.5273780000000  0.5219990000000  0.4242170000000 1.0
C      1  0.4815490000000  0.4203980000000  0.4667450000000 1.0
C      1  0.4721680000000  0.4528080000000  0.5507330000000 1.0
C      1  0.4715720000000  0.5421460000000  0.5688480000000 1.0
C      1  0.4706820000000  0.5813620000000  0.4871760000000 1.0
C      1  0.4726820000000  0.5214160000000  0.4270290000000 1.0
C      1  0.4915100000000  0.4021090000000  0.4877500000000 1.0
C      1  0.4870020000000  0.4679720000000  0.5690210000000 1.0
C      1  0.4862100000000  0.5671490000000  0.5663810000000 1.0
C      1  0.4852540000000  0.5912730000000  0.4635630000000 1.0
C      1  0.4845710000000  0.4948390000000  0.4231300000000 1.0
C      1  0.5198590000000  0.3998330000000  0.4896670000000 1.0
C      1  0.5147870000000  0.4678560000000  0.5718130000000 1.0
C      1  0.5152510000000  0.5654720000000  0.5683010000000 1.0
C      1  0.5139060000000  0.5919160000000  0.4655030000000 1.0
C      1  0.5123270000000  0.4974430000000  0.4259970000000 1.0
C      1  0.4428260000000  0.4924870000000  0.5524050000000 1.0
C      1  0.4140650000000  0.5683920000000  0.5317790000000 1.0
C      1  0.4296600000000  0.5394740000000  0.4493010000000 1.0
C      1  0.4487410000000  0.4699700000000  0.4396780000000 1.0
C      1  0.4406080000000  0.4302590000000  0.5121220000000 1.0
C      1  0.5835840000000  0.4906780000000  0.5670970000000 1.0
C      1  0.5764410000000  0.5641030000000  0.5221970000000 1.0
C      1  0.5711730000000  0.5334530000000  0.4430570000000 1.0
C      1  0.5414750000000  0.4633410000000  0.4467270000000 1.0
C      1  0.5712370000000  0.4242350000000  0.5169420000000 1.0
C      1  0.4400740000000  0.5514230000000  0.4760260000000 1.0
C      1  0.4485860000000  0.4952720000000  0.4545850000000 1.0
C      1  0.4490700000000  0.4421670000000  0.4870560000000 1.0
C      1  0.4729750000000  0.4971160000000  0.5491280000000 1.0
C      1  0.4198790000000  0.5466330000000  0.5492550000000 1.0
C      1  0.5531940000000  0.5457180000000  0.4729930000000 1.0
C      1  0.5507340000000  0.4924510000000  0.4554400000000 1.0
C      1  0.5747750000000  0.4251250000000  0.4893960000000 1.0
C      1  0.5701640000000  0.4685900000000  0.5752700000000 1.0
C      1  0.5604150000000  0.5416830000000  0.5327840000000 1.0
C      1  0.5531950000000  0.5736310000000  0.4799160000000 1.0
C      1  0.5536390000000  0.5128980000000  0.4327010000000 1.0
C      1  0.5622860000000  0.4069450000000  0.4723260000000 1.0
C      1  0.5592400000000  0.4480960000000  0.5593350000000 1.0
C      1  0.5569790000000  0.5444600000000  0.5610260000000 1.0
C      1  0.4431920000000  0.5785520000000  0.4821880000000 1.0
C      1  0.4451480000000  0.5177200000000  0.4352150000000 1.0
C      1  0.4539450000000  0.4220850000000  0.4664780000000 1.0
C      1  0.4450460000000  0.4625490000000  0.5492300000000 1.0
C      1  0.4445910000000  0.5434510000000  0.5617680000000 1.0
C      1  0.4989290000000  0.4385420000000  0.4510080000000 1.0
C      1  0.4857840000000  0.4408970000000  0.5266950000000 1.0
C      1  0.4871630000000  0.5161060000000  0.5685410000000 1.0
C      1  0.4841290000000  0.5634350000000  0.5080550000000 1.0
C      1  0.4863470000000  0.5394830000000  0.4472170000000 1.0
C      1  0.5237010000000  0.4439720000000  0.4661490000000 1.0
C      1  0.5151350000000  0.4344710000000  0.5346690000000 1.0
C      1  0.5163970000000  0.5162650000000  0.5568720000000 1.0
C      1  0.5149750000000  0.5658480000000  0.5100830000000 1.0
C      1  0.5150710000000  0.5447120000000  0.4385560000000 1.0
C      1  0.4845660000000  0.4046520000000  0.5160810000000 1.0
C      1  0.4954890000000  0.5041140000000  0.5940720000000 1.0
C      1  0.4839300000000  0.5815170000000  0.5413080000000 1.0
C      1  0.4822670000000  0.5748270000000  0.4396890000000 1.0
C      1  0.4943170000000  0.4574990000000  0.4290880000000 1.0
C      1  0.5123630000000  0.4066580000000  0.5264440000000 1.0
C      1  0.5201280000000  0.4918640000000  0.5862250000000 1.0
C      1  0.5127250000000  0.5825630000000  0.5345790000000 1.0
C      1  0.5109810000000  0.5727790000000  0.4323500000000 1.0
C      1  0.5211850000000  0.4698230000000  0.4245190000000 1.0
C      1  0.4186380000000  0.5373880000000  0.4919220000000 1.0
C      1  0.4177650000000  0.4942420000000  0.4643030000000 1.0
C      1  0.4222340000000  0.4521140000000  0.4750600000000 1.0
C      1  0.4194010000000  0.4770220000000  0.5155350000000 1.0
C      1  0.4095320000000  0.5247250000000  0.5333840000000 1.0
C      1  0.5773270000000  0.5338640000000  0.4869830000000 1.0
C      1  0.5789310000000  0.4925340000000  0.4666480000000 1.0
C      1  0.5711250000000  0.4505130000000  0.4772650000000 1.0
C      1  0.5781300000000  0.4725690000000  0.5218100000000 1.0
C      1  0.5804040000000  0.5205580000000  0.5287850000000 1.0
C      1  0.4831670000000  0.4568690000000  0.4989820000000 1.0
C      1  0.4849170000000  0.5068220000000  0.5195670000000 1.0
C      1  0.4786620000000  0.5339520000000  0.5036370000000 1.0
C      1  0.4891280000000  0.5252960000000  0.4760010000000 1.0
C      1  0.4741850000000  0.4985560000000  0.4733470000000 1.0
C      1  0.5141240000000  0.4587630000000  0.4912300000000 1.0
C      1  0.5161320000000  0.5084890000000  0.5247730000000 1.0
C      1  0.5281520000000  0.5355170000000  0.5127280000000 1.0
C      1  0.5271860000000  0.5294150000000  0.4824330000000 1.0
C      1  0.5326770000000  0.5009280000000  0.4775910000000 1.0
C      1  0.5643330000000  0.4750690000000  0.4951880000000 1.0
C      1  0.4112670000000  0.4758590000000  0.4879050000000 1.0
C      1  0.5314910000000  0.4826110000000  0.5005710000000 1.0
C      1  0.4755100000000  0.4859950000000  0.4995250000000 1.0
END
