TITL C-3578203-1966-303 -7.12037132705847e-07 125000 -370.187373437749 0 0 63 (C1) n - 1
REM
REM in /home/bkarasulu/work/CARBON/AIRSS/Generating-Clusters/EDIP-Nigel-Params/with-SteepDescent/Higher-Symm/SD-CG/HFTN-CG
REM
REM
REM
REM
REM
REM ./C.cell (12c818d87b63d06a65506943cc24bca4)
REM
REM compiler GCC version 9.2.1 20190827 (Red Hat 9.2.1-1)
REM options -cpp -mtune=generic -march=x86-64 -g -O0 -fpre-include=/usr/include/finclude/math-vector-fortran.h
REM seed -212465849 655128272 741174746 -1618465135 827968541 1600477442 2143564018 1526965356 1229039086 -985494896 1612832543 -1070521326 1709748097 -1776385284 1927985587 1036891718 -6842833 -785466260 833463186 -705236396 1453805525 567238108 308515019 -1785743640 1121476322 105954151 580427700 997700249 1584991977 -577072390 1171807894 1131962919 1088178793
REM
CELL 1.54180   50.00000   50.00000   50.00000   90.00000   90.00000   90.00000
LATT -1
SFAC C  
C      1  0.5297280000000  0.5590820000000  0.5282950000000 1.0
C      1  0.4720610000000  0.4371410000000  0.5272800000000 1.0
C      1  0.4733300000000  0.5593560000000  0.5238210000000 1.0
C      1  0.5314900000000  0.4358630000000  0.5231120000000 1.0
C      1  0.4849100000000  0.4416780000000  0.5556290000000 1.0
C      1  0.5170710000000  0.5622730000000  0.5573060000000 1.0
C      1  0.5182150000000  0.4389060000000  0.5534240000000 1.0
C      1  0.4842600000000  0.5646240000000  0.5555140000000 1.0
C      1  0.4486700000000  0.4847860000000  0.5339550000000 1.0
C      1  0.5538850000000  0.5198760000000  0.5383320000000 1.0
C      1  0.5579230000000  0.4901060000000  0.5390510000000 1.0
C      1  0.4432240000000  0.5159330000000  0.5399020000000 1.0
C      1  0.4840090000000  0.5232370000000  0.4599560000000 1.0
C      1  0.5087160000000  0.4866620000000  0.4643980000000 1.0
C      1  0.5118540000000  0.5151850000000  0.4685530000000 1.0
C      1  0.4797300000000  0.4844710000000  0.4648490000000 1.0
C      1  0.5272350000000  0.4853530000000  0.5388400000000 1.0
C      1  0.4723290000000  0.5202840000000  0.5448220000000 1.0
C      1  0.4799080000000  0.4910790000000  0.5395060000000 1.0
C      1  0.5233010000000  0.5173090000000  0.5417960000000 1.0
C      1  0.5330960000000  0.5404830000000  0.5035680000000 1.0
C      1  0.4771450000000  0.4499570000000  0.5013720000000 1.0
C      1  0.4586040000000  0.5497100000000  0.4986590000000 1.0
C      1  0.5372350000000  0.4484510000000  0.4968710000000 1.0
C      1  0.4450360000000  0.4888300000000  0.5048920000000 1.0
C      1  0.5617910000000  0.5238570000000  0.5072410000000 1.0
C      1  0.5692930000000  0.4866140000000  0.5136820000000 1.0
C      1  0.4363620000000  0.5198180000000  0.5107790000000 1.0
C      1  0.4833530000000  0.5356630000000  0.5660940000000 1.0
C      1  0.5183610000000  0.4689460000000  0.5611110000000 1.0
C      1  0.5131790000000  0.5324910000000  0.5650310000000 1.0
C      1  0.4892810000000  0.4721520000000  0.5613260000000 1.0
C      1  0.4598700000000  0.5582420000000  0.4475080000000 1.0
C      1  0.5352090000000  0.4489590000000  0.4454710000000 1.0
C      1  0.5433670000000  0.5509640000000  0.4553170000000 1.0
C      1  0.4595060000000  0.4461580000000  0.4562050000000 1.0
C      1  0.5277100000000  0.4355730000000  0.4717200000000 1.0
C      1  0.4726310000000  0.5636860000000  0.4746080000000 1.0
C      1  0.4754580000000  0.4322490000000  0.4779080000000 1.0
C      1  0.5287990000000  0.5598230000000  0.4797110000000 1.0
C      1  0.4865950000000  0.4123420000000  0.5301480000000 1.0
C      1  0.5156980000000  0.5838720000000  0.5248460000000 1.0
C      1  0.5143590000000  0.4126950000000  0.5248080000000 1.0
C      1  0.4877110000000  0.5840570000000  0.5221920000000 1.0
C      1  0.5590360000000  0.4854680000000  0.4705600000000 1.0
C      1  0.4378340000000  0.5165910000000  0.4666320000000 1.0
C      1  0.4313860000000  0.4895110000000  0.4628370000000 1.0
C      1  0.5686720000000  0.5129180000000  0.4779650000000 1.0
C      1  0.5157670000000  0.4718620000000  0.4399730000000 1.0
C      1  0.4765010000000  0.5376780000000  0.4347370000000 1.0
C      1  0.4779270000000  0.4635210000000  0.4426860000000 1.0
C      1  0.5314780000000  0.5255450000000  0.4489140000000 1.0
C      1  0.5545720000000  0.4713020000000  0.4461990000000 1.0
C      1  0.4393120000000  0.5366090000000  0.4460500000000 1.0
C      1  0.4384250000000  0.4632840000000  0.4644480000000 1.0
C      1  0.5677960000000  0.5348440000000  0.4592090000000 1.0
C      1  0.4625240000000  0.5213080000000  0.4822540000000 1.0
C      1  0.5573070000000  0.4695810000000  0.4941190000000 1.0
C      1  0.5119480000000  0.5188430000000  0.4989430000000 1.0
C      1  0.4733970000000  0.4793940000000  0.4953860000000 1.0
C      1  0.5016680000000  0.4241970000000  0.4703420000000 1.0
C      1  0.5012940000000  0.5664030000000  0.4749590000000 1.0
C      1  0.4987820000000  0.4938080000000  0.5129160000000 1.0
END
