TITL C-3577078-809-52 3.21607955671568e-06 125000 -414.649618267002 0 0 72 (Oh) n - 1
REM
REM in /home/bkarasulu/work/CARBON/AIRSS/Generating-Clusters/EDIP-Nigel-Params/with-SteepDescent/Higher-Symm/SD-CG/HFTN-CG
REM
REM
REM
REM
REM
REM ./C.cell (12c818d87b63d06a65506943cc24bca4)
REM
REM compiler GCC version 9.2.1 20190827 (Red Hat 9.2.1-1)
REM options -cpp -mtune=generic -march=x86-64 -g -O0 -fpre-include=/usr/include/finclude/math-vector-fortran.h
REM seed -323824492 1759370286 1842141802 891308335 981480297 1817186873 -747617901 -958666880 185765923 1545896316 979306911 1485696767 -1198207202 559888481 528299824 -311009177 -1022906636 -383124710 956822681 1605393272 1947134243 1906233707 153212751 -1968552167 1152710703 -2097803006 -1421008766 -2016509833 1493101625 -2128919902 -896970442 -149162342 -654987261
REM
CELL 1.54180   50.00000   50.00000   50.00000   90.00000   90.00000   90.00000
LATT -1
SFAC C  
C      1  0.5578700000000  0.4421300000000  0.4832740000000 1.0
C      1  0.4421300000000  0.4832740000000  0.5578700000000 1.0
C      1  0.4832740000000  0.5578700000000  0.4421300000000 1.0
C      1  0.4421300000000  0.5578700000000  0.4832740000000 1.0
C      1  0.5578700000000  0.5578700000000  0.5167260000000 1.0
C      1  0.4421300000000  0.4421300000000  0.5167260000000 1.0
C      1  0.5578700000000  0.5167260000000  0.5578700000000 1.0
C      1  0.4421300000000  0.5167260000000  0.4421300000000 1.0
C      1  0.5578700000000  0.4832740000000  0.4421300000000 1.0
C      1  0.5167260000000  0.4421300000000  0.4421300000000 1.0
C      1  0.4832740000000  0.4421300000000  0.5578700000000 1.0
C      1  0.5167260000000  0.5578700000000  0.5578700000000 1.0
C      1  0.5578700000000  0.4421300000000  0.5167260000000 1.0
C      1  0.4421300000000  0.4832740000000  0.4421300000000 1.0
C      1  0.4832740000000  0.5578700000000  0.5578700000000 1.0
C      1  0.4421300000000  0.5578700000000  0.5167260000000 1.0
C      1  0.5578700000000  0.5578700000000  0.4832740000000 1.0
C      1  0.4421300000000  0.4421300000000  0.4832740000000 1.0
C      1  0.5578700000000  0.5167260000000  0.4421300000000 1.0
C      1  0.4421300000000  0.5167260000000  0.5578700000000 1.0
C      1  0.5578700000000  0.4832740000000  0.5578700000000 1.0
C      1  0.5167260000000  0.4421300000000  0.5578700000000 1.0
C      1  0.4832740000000  0.4421300000000  0.4421300000000 1.0
C      1  0.5167260000000  0.5578700000000  0.4421300000000 1.0
C      1  0.5156240000000  0.5156240000000  0.4549720000000 1.0
C      1  0.5156240000000  0.4549720000000  0.5156240000000 1.0
C      1  0.4549720000000  0.5156240000000  0.5156240000000 1.0
C      1  0.4843760000000  0.4843760000000  0.4549720000000 1.0
C      1  0.5156240000000  0.4843760000000  0.5450280000000 1.0
C      1  0.4843760000000  0.5156240000000  0.5450280000000 1.0
C      1  0.4843760000000  0.5450280000000  0.5156240000000 1.0
C      1  0.5156240000000  0.5450280000000  0.4843760000000 1.0
C      1  0.4843760000000  0.4549720000000  0.4843760000000 1.0
C      1  0.5450280000000  0.4843760000000  0.5156240000000 1.0
C      1  0.4549720000000  0.4843760000000  0.4843760000000 1.0
C      1  0.5450280000000  0.5156240000000  0.4843760000000 1.0
C      1  0.5156240000000  0.5156240000000  0.5450280000000 1.0
C      1  0.5156240000000  0.4549720000000  0.4843760000000 1.0
C      1  0.4549720000000  0.5156240000000  0.4843760000000 1.0
C      1  0.4843760000000  0.4843760000000  0.5450280000000 1.0
C      1  0.5156240000000  0.4843760000000  0.4549720000000 1.0
C      1  0.4843760000000  0.5156240000000  0.4549720000000 1.0
C      1  0.4843760000000  0.5450280000000  0.4843760000000 1.0
C      1  0.5156240000000  0.5450280000000  0.5156240000000 1.0
C      1  0.4843760000000  0.4549720000000  0.5156240000000 1.0
C      1  0.5450280000000  0.4843760000000  0.4843760000000 1.0
C      1  0.4549720000000  0.4843760000000  0.5156240000000 1.0
C      1  0.5450280000000  0.5156240000000  0.5156240000000 1.0
C      1  0.4704230000000  0.5673300000000  0.5295770000000 1.0
C      1  0.5673300000000  0.5295770000000  0.4704230000000 1.0
C      1  0.5295770000000  0.4704230000000  0.5673300000000 1.0
C      1  0.5295770000000  0.4326700000000  0.5295770000000 1.0
C      1  0.4704230000000  0.4326700000000  0.4704230000000 1.0
C      1  0.5295770000000  0.5673300000000  0.4704230000000 1.0
C      1  0.4326700000000  0.4704230000000  0.4704230000000 1.0
C      1  0.5673300000000  0.4704230000000  0.5295770000000 1.0
C      1  0.4326700000000  0.5295770000000  0.5295770000000 1.0
C      1  0.4704230000000  0.5295770000000  0.5673300000000 1.0
C      1  0.5295770000000  0.5295770000000  0.4326700000000 1.0
C      1  0.4704230000000  0.4704230000000  0.4326700000000 1.0
C      1  0.4704230000000  0.5673300000000  0.4704230000000 1.0
C      1  0.5673300000000  0.5295770000000  0.5295770000000 1.0
C      1  0.5295770000000  0.4704230000000  0.4326700000000 1.0
C      1  0.5295770000000  0.4326700000000  0.4704230000000 1.0
C      1  0.4704230000000  0.4326700000000  0.5295770000000 1.0
C      1  0.5295770000000  0.5673300000000  0.5295770000000 1.0
C      1  0.4326700000000  0.4704230000000  0.5295770000000 1.0
C      1  0.5673300000000  0.4704230000000  0.4704230000000 1.0
C      1  0.4326700000000  0.5295770000000  0.4704230000000 1.0
C      1  0.4704230000000  0.5295770000000  0.4326700000000 1.0
C      1  0.5295770000000  0.5295770000000  0.5673300000000 1.0
C      1  0.4704230000000  0.4704230000000  0.5673300000000 1.0
END
