TITL C-3577087-600-731 -4.27097371364783e-06 125000 -1111.68095901685 0 0 177 (C1) n - 1
REM
REM in /home/bkarasulu/work/CARBON/AIRSS/Generating-Clusters/EDIP-Nigel-Params/with-SteepDescent/Higher-Symm/SD-CG/HFTN-CG
REM
REM
REM
REM
REM
REM ./C.cell (12c818d87b63d06a65506943cc24bca4)
REM
REM compiler GCC version 9.2.1 20190827 (Red Hat 9.2.1-1)
REM options -cpp -mtune=generic -march=x86-64 -g -O0 -fpre-include=/usr/include/finclude/math-vector-fortran.h
REM seed 1040137279 711228921 876651695 -119596936 1928237403 -1344872081 1578279053 1254569219 -58724481 -1709589596 148972050 3734084 1439336833 -654685800 -1832288395 -1720202420 2080539000 -911603189 1438020377 1564557997 1401012843 -1451622756 1695945709 -1238768922 586969762 -780402513 -145897176 -1731754656 -680800783 1959327508 -936704429 1864183376 -761490591
REM
CELL 1.54180   50.00000   50.00000   50.00000   90.00000   90.00000   90.00000
LATT -1
SFAC C  
C      1  0.5428370000000  0.5682360000000  0.4284860000000 1.0
C      1  0.4219630000000  0.4473530000000  0.4356070000000 1.0
C      1  0.5006160000000  0.4205760000000  0.4576460000000 1.0
C      1  0.4947230000000  0.5702750000000  0.5480100000000 1.0
C      1  0.5072880000000  0.4818950000000  0.5649730000000 1.0
C      1  0.4649910000000  0.4487090000000  0.5767890000000 1.0
C      1  0.5049210000000  0.4486400000000  0.5278790000000 1.0
C      1  0.5582200000000  0.4598290000000  0.5755850000000 1.0
C      1  0.5010030000000  0.4562920000000  0.4089110000000 1.0
C      1  0.5438910000000  0.4380660000000  0.5604820000000 1.0
C      1  0.5112020000000  0.4087770000000  0.4220870000000 1.0
C      1  0.4443090000000  0.4899790000000  0.4541930000000 1.0
C      1  0.5975500000000  0.5292200000000  0.4655720000000 1.0
C      1  0.4807070000000  0.5943050000000  0.4875500000000 1.0
C      1  0.5497550000000  0.5221720000000  0.4054950000000 1.0
C      1  0.4863580000000  0.5854890000000  0.5725130000000 1.0
C      1  0.4992550000000  0.5194820000000  0.4745890000000 1.0
C      1  0.4226160000000  0.5085570000000  0.4846980000000 1.0
C      1  0.4702280000000  0.4222580000000  0.5648410000000 1.0
C      1  0.6087760000000  0.4900490000000  0.4943720000000 1.0
C      1  0.5656720000000  0.5391400000000  0.5877720000000 1.0
C      1  0.4859480000000  0.5601520000000  0.4209000000000 1.0
C      1  0.4347180000000  0.4845950000000  0.5712480000000 1.0
C      1  0.4715490000000  0.5845740000000  0.4600860000000 1.0
C      1  0.4623440000000  0.4131670000000  0.4371010000000 1.0
C      1  0.4444530000000  0.5933750000000  0.5008670000000 1.0
C      1  0.4605520000000  0.5484210000000  0.4159090000000 1.0
C      1  0.4015280000000  0.4819770000000  0.5344040000000 1.0
C      1  0.4817380000000  0.4030340000000  0.5104850000000 1.0
C      1  0.6055170000000  0.4425040000000  0.4766580000000 1.0
C      1  0.5789100000000  0.4212580000000  0.5306950000000 1.0
C      1  0.6054560000000  0.4999150000000  0.4668340000000 1.0
C      1  0.5400460000000  0.5401480000000  0.6013530000000 1.0
C      1  0.4505460000000  0.5107860000000  0.4739320000000 1.0
C      1  0.4540890000000  0.5530760000000  0.5835150000000 1.0
C      1  0.4135000000000  0.4966480000000  0.5564390000000 1.0
C      1  0.5162680000000  0.6043140000000  0.5302170000000 1.0
C      1  0.4599860000000  0.4054350000000  0.4646630000000 1.0
C      1  0.5154840000000  0.5140940000000  0.4493660000000 1.0
C      1  0.5413510000000  0.5263080000000  0.4590840000000 1.0
C      1  0.4071600000000  0.4743770000000  0.4376940000000 1.0
C      1  0.5448760000000  0.4727020000000  0.4391030000000 1.0
C      1  0.3927750000000  0.4744570000000  0.4647370000000 1.0
C      1  0.4795710000000  0.4669690000000  0.4683110000000 1.0
C      1  0.5806040000000  0.5376450000000  0.4420990000000 1.0
C      1  0.5655350000000  0.5187140000000  0.5003550000000 1.0
C      1  0.4928790000000  0.5483430000000  0.4741950000000 1.0
C      1  0.4281240000000  0.4423030000000  0.5476280000000 1.0
C      1  0.4882800000000  0.6107610000000  0.5272600000000 1.0
C      1  0.4222220000000  0.4997290000000  0.4235920000000 1.0
C      1  0.3822450000000  0.4960530000000  0.4805690000000 1.0
C      1  0.4405020000000  0.5496580000000  0.4363760000000 1.0
C      1  0.4538490000000  0.4712680000000  0.3942340000000 1.0
C      1  0.5176330000000  0.5524530000000  0.5160940000000 1.0
C      1  0.4989710000000  0.5083620000000  0.4148400000000 1.0
C      1  0.5639150000000  0.4759110000000  0.4058660000000 1.0
C      1  0.4965110000000  0.4817640000000  0.6099490000000 1.0
C      1  0.4998630000000  0.5693820000000  0.5922860000000 1.0
C      1  0.5704350000000  0.5654780000000  0.4403450000000 1.0
C      1  0.4674670000000  0.5117630000000  0.5469500000000 1.0
C      1  0.6061930000000  0.5031200000000  0.5434250000000 1.0
C      1  0.4345990000000  0.4216650000000  0.5031250000000 1.0
C      1  0.4737190000000  0.4979470000000  0.4300300000000 1.0
C      1  0.5674090000000  0.4321660000000  0.4481970000000 1.0
C      1  0.5237720000000  0.5546910000000  0.5822380000000 1.0
C      1  0.4511840000000  0.5030290000000  0.5865150000000 1.0
C      1  0.5321660000000  0.5152200000000  0.6118490000000 1.0
C      1  0.5879650000000  0.4224040000000  0.4872300000000 1.0
C      1  0.5148000000000  0.3987190000000  0.4728450000000 1.0
C      1  0.4183800000000  0.4793900000000  0.4998070000000 1.0
C      1  0.4938270000000  0.5684660000000  0.4482840000000 1.0
C      1  0.4487410000000  0.4209550000000  0.5452290000000 1.0
C      1  0.4546980000000  0.4101290000000  0.5194570000000 1.0
C      1  0.4009850000000  0.5309670000000  0.4561050000000 1.0
C      1  0.5414010000000  0.5516530000000  0.5351540000000 1.0
C      1  0.4376620000000  0.4564960000000  0.5710480000000 1.0
C      1  0.5382050000000  0.4383710000000  0.4922640000000 1.0
C      1  0.5581940000000  0.4783460000000  0.4678980000000 1.0
C      1  0.5702970000000  0.4812520000000  0.5581330000000 1.0
C      1  0.5401360000000  0.5546240000000  0.4699280000000 1.0
C      1  0.4938590000000  0.4432180000000  0.4771370000000 1.0
C      1  0.3969000000000  0.4481840000000  0.4777760000000 1.0
C      1  0.4010950000000  0.5425470000000  0.5404900000000 1.0
C      1  0.4436950000000  0.5777980000000  0.5750030000000 1.0
C      1  0.5126030000000  0.5907590000000  0.4846970000000 1.0
C      1  0.4183510000000  0.5254380000000  0.5587110000000 1.0
C      1  0.5991640000000  0.4776910000000  0.5537310000000 1.0
C      1  0.4530730000000  0.4411400000000  0.4316520000000 1.0
C      1  0.5907830000000  0.4524390000000  0.4533720000000 1.0
C      1  0.5753670000000  0.5197150000000  0.4197520000000 1.0
C      1  0.4195270000000  0.5286410000000  0.4356070000000 1.0
C      1  0.4481410000000  0.5915750000000  0.5508860000000 1.0
C      1  0.4843800000000  0.3944310000000  0.4820950000000 1.0
C      1  0.4047970000000  0.4529150000000  0.5319470000000 1.0
C      1  0.4297100000000  0.5777320000000  0.4807990000000 1.0
C      1  0.5384070000000  0.4085940000000  0.4896440000000 1.0
C      1  0.5227460000000  0.5811650000000  0.4480930000000 1.0
C      1  0.4751670000000  0.4941580000000  0.5141720000000 1.0
C      1  0.5045660000000  0.4048320000000  0.5291680000000 1.0
C      1  0.5906580000000  0.5245870000000  0.5543620000000 1.0
C      1  0.4161320000000  0.4335750000000  0.4611060000000 1.0
C      1  0.5206760000000  0.5043160000000  0.5025230000000 1.0
C      1  0.4116100000000  0.5598090000000  0.4943800000000 1.0
C      1  0.4792890000000  0.5500680000000  0.5982030000000 1.0
C      1  0.5813170000000  0.4914660000000  0.4225590000000 1.0
C      1  0.4626690000000  0.4677570000000  0.5151830000000 1.0
C      1  0.4691450000000  0.4533620000000  0.4089800000000 1.0
C      1  0.5255100000000  0.5929510000000  0.5547680000000 1.0
C      1  0.5903190000000  0.5523800000000  0.5467240000000 1.0
C      1  0.4128930000000  0.5642710000000  0.5229720000000 1.0
C      1  0.4844200000000  0.4033800000000  0.4232920000000 1.0
C      1  0.5184180000000  0.4322480000000  0.5720930000000 1.0
C      1  0.4622590000000  0.5319670000000  0.3928160000000 1.0
C      1  0.4907220000000  0.5266580000000  0.3920050000000 1.0
C      1  0.3817320000000  0.5203540000000  0.4961550000000 1.0
C      1  0.5640000000000  0.4526560000000  0.4873830000000 1.0
C      1  0.5059080000000  0.5499310000000  0.4022060000000 1.0
C      1  0.4754760000000  0.4548770000000  0.5384390000000 1.0
C      1  0.4763750000000  0.4996950000000  0.4836840000000 1.0
C      1  0.6148710000000  0.5095310000000  0.5164370000000 1.0
C      1  0.4981550000000  0.4202230000000  0.5540660000000 1.0
C      1  0.5929290000000  0.4444780000000  0.5256390000000 1.0
C      1  0.4903780000000  0.4738340000000  0.4417540000000 1.0
C      1  0.5332960000000  0.4049290000000  0.5209060000000 1.0
C      1  0.5145280000000  0.5154110000000  0.5648110000000 1.0
C      1  0.4495540000000  0.5269010000000  0.5268600000000 1.0
C      1  0.4461130000000  0.5695250000000  0.4583680000000 1.0
C      1  0.5176190000000  0.4846000000000  0.4513870000000 1.0
C      1  0.4786540000000  0.5014490000000  0.5982030000000 1.0
C      1  0.5697700000000  0.5792930000000  0.4659100000000 1.0
C      1  0.5162740000000  0.5607770000000  0.4875450000000 1.0
C      1  0.4696880000000  0.6107200000000  0.5486720000000 1.0
C      1  0.5038660000000  0.4923260000000  0.5215770000000 1.0
C      1  0.5465240000000  0.5062460000000  0.5202230000000 1.0
C      1  0.4374990000000  0.4201060000000  0.4755540000000 1.0
C      1  0.5323660000000  0.5449830000000  0.4136490000000 1.0
C      1  0.3865310000000  0.5223980000000  0.5247880000000 1.0
C      1  0.3940890000000  0.5412610000000  0.4809120000000 1.0
C      1  0.5416870000000  0.4934800000000  0.4004110000000 1.0
C      1  0.5233130000000  0.4799400000000  0.4835840000000 1.0
C      1  0.5527270000000  0.4185230000000  0.5397360000000 1.0
C      1  0.6067540000000  0.5380740000000  0.5155220000000 1.0
C      1  0.4406620000000  0.5286230000000  0.5776610000000 1.0
C      1  0.5418080000000  0.4437770000000  0.4380560000000 1.0
C      1  0.4693440000000  0.5439930000000  0.5115210000000 1.0
C      1  0.4413480000000  0.4586060000000  0.4959060000000 1.0
C      1  0.5768120000000  0.4655130000000  0.5117650000000 1.0
C      1  0.4233820000000  0.5132840000000  0.5165460000000 1.0
C      1  0.5404120000000  0.5679940000000  0.5610170000000 1.0
C      1  0.5555670000000  0.4783480000000  0.5310700000000 1.0
C      1  0.5452940000000  0.4706830000000  0.5984390000000 1.0
C      1  0.5539360000000  0.5773810000000  0.5122700000000 1.0
C      1  0.5136440000000  0.4528410000000  0.4959170000000 1.0
C      1  0.4753130000000  0.5744610000000  0.5205340000000 1.0
C      1  0.5738140000000  0.5684160000000  0.4922810000000 1.0
C      1  0.5710110000000  0.5623780000000  0.5683080000000 1.0
C      1  0.5135190000000  0.4849160000000  0.4037670000000 1.0
C      1  0.4914930000000  0.5320830000000  0.5517780000000 1.0
C      1  0.5958460000000  0.4810400000000  0.4457110000000 1.0
C      1  0.5075090000000  0.4565320000000  0.5834950000000 1.0
C      1  0.5253770000000  0.4881040000000  0.6090760000000 1.0
C      1  0.5637980000000  0.5098060000000  0.4715530000000 1.0
C      1  0.4501670000000  0.4934070000000  0.4108080000000 1.0
C      1  0.5197890000000  0.4353920000000  0.4208110000000 1.0
C      1  0.5657460000000  0.5156820000000  0.5669820000000 1.0
C      1  0.4933100000000  0.5254350000000  0.5953460000000 1.0
C      1  0.6136830000000  0.4610950000000  0.4986240000000 1.0
C      1  0.5666030000000  0.4118980000000  0.4709990000000 1.0
C      1  0.4333440000000  0.5853060000000  0.5269990000000 1.0
C      1  0.5866210000000  0.5404510000000  0.4941940000000 1.0
C      1  0.3962460000000  0.4429900000000  0.5062890000000 1.0
C      1  0.4771220000000  0.4806180000000  0.5589890000000 1.0
C      1  0.4958220000000  0.5353780000000  0.5222350000000 1.0
C      1  0.5189610000000  0.4730800000000  0.5381860000000 1.0
C      1  0.4506180000000  0.4611440000000  0.4651690000000 1.0
C      1  0.5324120000000  0.5979840000000  0.5066700000000 1.0
C      1  0.5420030000000  0.5222920000000  0.5468970000000 1.0
END
