TITL C-3578195-8548-155 -1.58616078603462e-06 125000 -130.444826607988 0 0 23 (C3h) n - 1
REM
REM in /home/bkarasulu/work/CARBON/AIRSS/Generating-Clusters/EDIP-Nigel-Params/with-SteepDescent/Higher-Symm/SD-CG/HFTN-CG
REM
REM
REM
REM
REM
REM ./C.cell (12c818d87b63d06a65506943cc24bca4)
REM
REM compiler GCC version 9.2.1 20190827 (Red Hat 9.2.1-1)
REM options -cpp -mtune=generic -march=x86-64 -g -O0 -fpre-include=/usr/include/finclude/math-vector-fortran.h
REM seed 1118955630 -333920388 2063187306 286444709 935425231 746295835 1754045079 -1162384471 426564076 559468096 1840708427 873956773 -1215976773 6842139 -1736858075 956619111 -1334649035 296474976 2109658036 -817841262 -519613167 -758965762 -2100151185 -1206298477 -1143516145 -862750174 2010604676 792841380 898703495 -1934161856 601280061 2010147853 -807736546
REM
CELL 1.54180   50.00000   50.00000   50.00000   90.00000   90.00000   90.00000
LATT -1
SFAC C  
C      1  0.4683300000000  0.5269170000000  0.5077300000000 1.0
C      1  0.4683300000000  0.4952690000000  0.4736820000000 1.0
C      1  0.4683300000000  0.4816070000000  0.5181150000000 1.0
C      1  0.5260780000000  0.5269170000000  0.5077300000000 1.0
C      1  0.5260780000000  0.4952690000000  0.4736820000000 1.0
C      1  0.5260780000000  0.4816070000000  0.5181150000000 1.0
C      1  0.4836590000000  0.4364280000000  0.5130620000000 1.0
C      1  0.4836590000000  0.5451300000000  0.5493820000000 1.0
C      1  0.4836590000000  0.5222340000000  0.4370830000000 1.0
C      1  0.5107500000000  0.4364280000000  0.5130620000000 1.0
C      1  0.5107500000000  0.5451300000000  0.5493820000000 1.0
C      1  0.5107500000000  0.5222340000000  0.4370830000000 1.0
C      1  0.4751530000000  0.5222710000000  0.5353520000000 1.0
C      1  0.4751530000000  0.5215130000000  0.4638950000000 1.0
C      1  0.4751530000000  0.4600090000000  0.5002800000000 1.0
C      1  0.5192560000000  0.5222710000000  0.5353520000000 1.0
C      1  0.5192560000000  0.5215130000000  0.4638950000000 1.0
C      1  0.5192560000000  0.4600090000000  0.5002800000000 1.0
C      1  0.4972040000000  0.5005790000000  0.5359670000000 1.0
C      1  0.4972040000000  0.4703220000000  0.4811870000000 1.0
C      1  0.4972040000000  0.5328920000000  0.4823730000000 1.0
C      1  0.4590090000000  0.5012640000000  0.4998420000000 1.0
C      1  0.5354000000000  0.5012640000000  0.4998420000000 1.0
END
