TITL C-3578204-4308-322 6.50374156629602e-08 125000 -1011.32109376569 0 0 161 (C1) n - 1
REM
REM in /home/bkarasulu/work/CARBON/AIRSS/Generating-Clusters/EDIP-Nigel-Params/with-SteepDescent/Higher-Symm/SD-CG/HFTN-CG
REM
REM
REM
REM
REM
REM ./C.cell (12c818d87b63d06a65506943cc24bca4)
REM
REM compiler GCC version 9.2.1 20190827 (Red Hat 9.2.1-1)
REM options -cpp -mtune=generic -march=x86-64 -g -O0 -fpre-include=/usr/include/finclude/math-vector-fortran.h
REM seed -1782407652 51589037 -1479055468 -575007326 218878914 1923288762 1967802500 1172268305 -1156669113 1658282824 -1923532092 687503413 425833269 607723328 -64154663 1240928521 310271121 63763641 -1406679101 -905477994 -1023045079 -966500874 -602650815 -1205447414 -1460982105 256904888 1796976999 -1831224417 352089990 715158029 -849459127 935228685 500402013
REM
CELL 1.54180   50.00000   50.00000   50.00000   90.00000   90.00000   90.00000
LATT -1
SFAC C  
C      1  0.5037900000000  0.5212750000000  0.5746630000000 1.0
C      1  0.4969640000000  0.4782400000000  0.4203690000000 1.0
C      1  0.4205520000000  0.4334510000000  0.4977650000000 1.0
C      1  0.5835680000000  0.5692410000000  0.5068560000000 1.0
C      1  0.5853640000000  0.4554010000000  0.4662970000000 1.0
C      1  0.4142680000000  0.5440130000000  0.5342490000000 1.0
C      1  0.5639990000000  0.4498660000000  0.4453450000000 1.0
C      1  0.4366990000000  0.5502610000000  0.5539420000000 1.0
C      1  0.4848460000000  0.5182510000000  0.4450740000000 1.0
C      1  0.5151020000000  0.4795550000000  0.5520970000000 1.0
C      1  0.4891760000000  0.6043520000000  0.5426300000000 1.0
C      1  0.5116170000000  0.3969130000000  0.4551800000000 1.0
C      1  0.4936210000000  0.5211790000000  0.5270680000000 1.0
C      1  0.4975760000000  0.4779490000000  0.4647240000000 1.0
C      1  0.4873810000000  0.5698150000000  0.5752030000000 1.0
C      1  0.5139910000000  0.4296150000000  0.4202020000000 1.0
C      1  0.5314620000000  0.4701320000000  0.5864250000000 1.0
C      1  0.4708360000000  0.5346330000000  0.4124380000000 1.0
C      1  0.4687280000000  0.4665520000000  0.4965620000000 1.0
C      1  0.5314340000000  0.5325160000000  0.5078440000000 1.0
C      1  0.4712140000000  0.5199670000000  0.5067040000000 1.0
C      1  0.5341030000000  0.4731120000000  0.4892810000000 1.0
C      1  0.5160000000000  0.5343320000000  0.3996020000000 1.0
C      1  0.4869730000000  0.4692130000000  0.6015880000000 1.0
C      1  0.5064750000000  0.4621830000000  0.5266670000000 1.0
C      1  0.4914580000000  0.5371950000000  0.4686470000000 1.0
C      1  0.5116150000000  0.4867730000000  0.3728160000000 1.0
C      1  0.4908450000000  0.5177160000000  0.6275240000000 1.0
C      1  0.4874210000000  0.4214520000000  0.4218500000000 1.0
C      1  0.5139970000000  0.5766400000000  0.5723760000000 1.0
C      1  0.5382110000000  0.4658360000000  0.4519730000000 1.0
C      1  0.4627740000000  0.5334260000000  0.5480710000000 1.0
C      1  0.5141290000000  0.5076390000000  0.6157060000000 1.0
C      1  0.4875920000000  0.4982040000000  0.3819030000000 1.0
C      1  0.4563800000000  0.4519200000000  0.4379400000000 1.0
C      1  0.5431450000000  0.5467100000000  0.5538180000000 1.0
C      1  0.4461550000000  0.5057120000000  0.5043080000000 1.0
C      1  0.5555600000000  0.4908770000000  0.4968780000000 1.0
C      1  0.4986600000000  0.3988660000000  0.5018430000000 1.0
C      1  0.4979790000000  0.6008030000000  0.4967680000000 1.0
C      1  0.6004850000000  0.5179700000000  0.4978430000000 1.0
C      1  0.3969800000000  0.4768360000000  0.5127490000000 1.0
C      1  0.5402020000000  0.4988810000000  0.5477720000000 1.0
C      1  0.4609940000000  0.4990680000000  0.4510170000000 1.0
C      1  0.5585210000000  0.4861480000000  0.5862440000000 1.0
C      1  0.4441720000000  0.5190690000000  0.4136280000000 1.0
C      1  0.4305970000000  0.5048930000000  0.5725360000000 1.0
C      1  0.5708180000000  0.4959740000000  0.4303540000000 1.0
C      1  0.5437920000000  0.4651630000000  0.4023120000000 1.0
C      1  0.4584970000000  0.5369020000000  0.5971190000000 1.0
C      1  0.4905740000000  0.4491390000000  0.5812190000000 1.0
C      1  0.5123130000000  0.5548260000000  0.4199380000000 1.0
C      1  0.4669780000000  0.5804100000000  0.4377070000000 1.0
C      1  0.5304430000000  0.4277180000000  0.5546930000000 1.0
C      1  0.4060370000000  0.4987930000000  0.5564850000000 1.0
C      1  0.5945850000000  0.5014070000000  0.4484910000000 1.0
C      1  0.4616990000000  0.4881610000000  0.3787320000000 1.0
C      1  0.5395180000000  0.5190050000000  0.6179980000000 1.0
C      1  0.3965790000000  0.5207360000000  0.4887390000000 1.0
C      1  0.6039420000000  0.4673480000000  0.5105300000000 1.0
C      1  0.5719340000000  0.5679460000000  0.4797590000000 1.0
C      1  0.4342070000000  0.4364930000000  0.5248990000000 1.0
C      1  0.4979830000000  0.5513250000000  0.5295230000000 1.0
C      1  0.5000430000000  0.4483600000000  0.4638950000000 1.0
C      1  0.4834740000000  0.5583690000000  0.4273050000000 1.0
C      1  0.5192050000000  0.4433650000000  0.5768420000000 1.0
C      1  0.6045080000000  0.5511230000000  0.5162280000000 1.0
C      1  0.4002420000000  0.4546590000000  0.4903410000000 1.0
C      1  0.5574180000000  0.5107300000000  0.4730160000000 1.0
C      1  0.4428980000000  0.4870590000000  0.5292500000000 1.0
C      1  0.6126360000000  0.4889300000000  0.4919890000000 1.0
C      1  0.3880580000000  0.5056130000000  0.5118160000000 1.0
C      1  0.4938410000000  0.5024560000000  0.5538090000000 1.0
C      1  0.5061780000000  0.4957550000000  0.4426090000000 1.0
C      1  0.4727800000000  0.5874670000000  0.5583510000000 1.0
C      1  0.5281920000000  0.4118040000000  0.4374460000000 1.0
C      1  0.4904160000000  0.3974210000000  0.4742360000000 1.0
C      1  0.5097890000000  0.6047780000000  0.5230400000000 1.0
C      1  0.4328270000000  0.5344940000000  0.5819920000000 1.0
C      1  0.5689310000000  0.4670390000000  0.4186120000000 1.0
C      1  0.6033590000000  0.4788110000000  0.4648290000000 1.0
C      1  0.3974190000000  0.5196620000000  0.5373850000000 1.0
C      1  0.4897510000000  0.5249340000000  0.3920430000000 1.0
C      1  0.5130320000000  0.4802370000000  0.6072180000000 1.0
C      1  0.5446290000000  0.5753940000000  0.4808600000000 1.0
C      1  0.4476950000000  0.4122220000000  0.5337210000000 1.0
C      1  0.4254980000000  0.5270280000000  0.4904030000000 1.0
C      1  0.5741640000000  0.4738850000000  0.5166300000000 1.0
C      1  0.4188490000000  0.4855640000000  0.4757530000000 1.0
C      1  0.5794700000000  0.5167490000000  0.5237250000000 1.0
C      1  0.5363660000000  0.4897460000000  0.3864390000000 1.0
C      1  0.4659700000000  0.5135920000000  0.6145720000000 1.0
C      1  0.5108100000000  0.5211530000000  0.4864360000000 1.0
C      1  0.4918550000000  0.4807500000000  0.5087450000000 1.0
C      1  0.5883210000000  0.5081120000000  0.5510330000000 1.0
C      1  0.4133670000000  0.4953970000000  0.4473930000000 1.0
C      1  0.5947100000000  0.5455440000000  0.5449360000000 1.0
C      1  0.4082680000000  0.4615150000000  0.4564450000000 1.0
C      1  0.5544080000000  0.4204410000000  0.4472200000000 1.0
C      1  0.4462590000000  0.5793540000000  0.5499500000000 1.0
C      1  0.4713880000000  0.6010880000000  0.4842860000000 1.0
C      1  0.5256300000000  0.3993680000000  0.5129980000000 1.0
C      1  0.5211240000000  0.5648110000000  0.5465330000000 1.0
C      1  0.4783040000000  0.4340310000000  0.4465670000000 1.0
C      1  0.4859290000000  0.5647480000000  0.5041110000000 1.0
C      1  0.5098880000000  0.4335540000000  0.4904620000000 1.0
C      1  0.5602260000000  0.5455610000000  0.4351870000000 1.0
C      1  0.4409560000000  0.4545760000000  0.5702140000000 1.0
C      1  0.5229870000000  0.4026350000000  0.5417410000000 1.0
C      1  0.4767110000000  0.5999990000000  0.4556850000000 1.0
C      1  0.4394520000000  0.5779320000000  0.4397380000000 1.0
C      1  0.5567330000000  0.4156690000000  0.5554280000000 1.0
C      1  0.5674700000000  0.4882190000000  0.5577310000000 1.0
C      1  0.4364340000000  0.5146930000000  0.4428960000000 1.0
C      1  0.5481060000000  0.5108820000000  0.5197060000000 1.0
C      1  0.4506460000000  0.4859690000000  0.4810040000000 1.0
C      1  0.4696370000000  0.5421890000000  0.4879000000000 1.0
C      1  0.5304580000000  0.4520130000000  0.5106150000000 1.0
C      1  0.4719270000000  0.4229690000000  0.5438680000000 1.0
C      1  0.5260070000000  0.5733160000000  0.4603250000000 1.0
C      1  0.5216630000000  0.4587100000000  0.4229010000000 1.0
C      1  0.4793440000000  0.5410060000000  0.5746800000000 1.0
C      1  0.5558140000000  0.4554650000000  0.5310800000000 1.0
C      1  0.4378920000000  0.5372840000000  0.4648960000000 1.0
C      1  0.5378100000000  0.5150070000000  0.4018250000000 1.0
C      1  0.4646050000000  0.4876360000000  0.6004170000000 1.0
C      1  0.5691850000000  0.5601290000000  0.5499800000000 1.0
C      1  0.4323080000000  0.4446220000000  0.4524350000000 1.0
C      1  0.4241170000000  0.5746970000000  0.4864760000000 1.0
C      1  0.5744130000000  0.4216920000000  0.5097790000000 1.0
C      1  0.4433270000000  0.5910100000000  0.5249990000000 1.0
C      1  0.5553360000000  0.4081340000000  0.4722090000000 1.0
C      1  0.4383230000000  0.4261520000000  0.4742780000000 1.0
C      1  0.5646650000000  0.5797640000000  0.5283540000000 1.0
C      1  0.4669810000000  0.4153020000000  0.4672460000000 1.0
C      1  0.5330220000000  0.5851210000000  0.5278410000000 1.0
C      1  0.5482210000000  0.4133160000000  0.4985470000000 1.0
C      1  0.4483790000000  0.5868820000000  0.4979410000000 1.0
C      1  0.4671960000000  0.4403410000000  0.5669290000000 1.0
C      1  0.5331150000000  0.5557600000000  0.4395460000000 1.0
C      1  0.5857090000000  0.5208230000000  0.4694360000000 1.0
C      1  0.4144190000000  0.4775300000000  0.5370970000000 1.0
C      1  0.5454980000000  0.4961870000000  0.4483760000000 1.0
C      1  0.4546200000000  0.5029520000000  0.5527140000000 1.0
C      1  0.4128640000000  0.5513780000000  0.5047990000000 1.0
C      1  0.5889510000000  0.4451430000000  0.4944560000000 1.0
C      1  0.5723050000000  0.4314860000000  0.5378040000000 1.0
C      1  0.4259110000000  0.5633730000000  0.4590150000000 1.0
C      1  0.4654570000000  0.4785410000000  0.4276310000000 1.0
C      1  0.5346520000000  0.5219110000000  0.5682520000000 1.0
C      1  0.4398540000000  0.4798710000000  0.5873230000000 1.0
C      1  0.5622830000000  0.5215680000000  0.4163700000000 1.0
C      1  0.4202280000000  0.4504580000000  0.5485620000000 1.0
C      1  0.5798570000000  0.5481790000000  0.4584370000000 1.0
C      1  0.4885290000000  0.4365810000000  0.5222320000000 1.0
C      1  0.4975410000000  0.5698660000000  0.4676680000000 1.0
C      1  0.4496660000000  0.4908180000000  0.4041850000000 1.0
C      1  0.5515730000000  0.5147320000000  0.5928000000000 1.0
C      1  0.5414280000000  0.5367780000000  0.4786510000000 1.0
C      1  0.4564250000000  0.4586970000000  0.5227790000000 1.0
C      1  0.5092010000000  0.4894120000000  0.4878580000000 1.0
END
