TITL C-3578197-9521-649 -5.08215825698122e-07 125000 -152.916335994803 0 0 25 (C5v) n - 1
REM
REM in /home/bkarasulu/work/CARBON/AIRSS/Generating-Clusters/EDIP-Nigel-Params/with-SteepDescent/Higher-Symm/SD-CG/HFTN-CG
REM
REM
REM
REM
REM
REM ./C.cell (12c818d87b63d06a65506943cc24bca4)
REM
REM compiler GCC version 9.2.1 20190827 (Red Hat 9.2.1-1)
REM options -cpp -mtune=generic -march=x86-64 -g -O0 -fpre-include=/usr/include/finclude/math-vector-fortran.h
REM seed -1841556848 285080832 -1110209156 1249625211 -292304193 -1895159872 -1519740355 -1678923222 -49677429 1241847440 606846973 -548665525 779317287 437070941 -670085087 -1340375274 1270792736 -1943830793 934500918 166712610 -922620745 1763509118 734519288 1705220182 1832161852 -240571781 2113731804 -1113406278 -1159835090 -850725800 1755378527 1106372261 -222898261
REM
CELL 1.54180   50.00000   50.00000   50.00000   90.00000   90.00000   90.00000
LATT -1
SFAC C  
C      1  0.4904100000000  0.4603300000000  0.4600070000000 1.0
C      1  0.4593080000000  0.4968620000000  0.4600070000000 1.0
C      1  0.4844410000000  0.5377310000000  0.4600070000000 1.0
C      1  0.5310760000000  0.5264570000000  0.4600070000000 1.0
C      1  0.5347650000000  0.4786210000000  0.4600070000000 1.0
C      1  0.5253070000000  0.5019520000000  0.5442990000000 1.0
C      1  0.5096770000000  0.4765340000000  0.5442990000000 1.0
C      1  0.4806730000000  0.4835460000000  0.5442990000000 1.0
C      1  0.4783790000000  0.5132960000000  0.5442990000000 1.0
C      1  0.5059640000000  0.5246720000000  0.5442990000000 1.0
C      1  0.4663420000000  0.4713440000000  0.5228350000000 1.0
C      1  0.4623460000000  0.5231560000000  0.5228350000000 1.0
C      1  0.5103870000000  0.5429670000000  0.5228350000000 1.0
C      1  0.5440740000000  0.5033990000000  0.5228350000000 1.0
C      1  0.5168520000000  0.4591340000000  0.5228350000000 1.0
C      1  0.5149740000000  0.4636880000000  0.4730730000000 1.0
C      1  0.4700920000000  0.4745380000000  0.4730730000000 1.0
C      1  0.4665420000000  0.5205760000000  0.4730730000000 1.0
C      1  0.5092290000000  0.5381790000000  0.4730730000000 1.0
C      1  0.5391620000000  0.5030200000000  0.4730730000000 1.0
C      1  0.4801030000000  0.4830610000000  0.4997860000000 1.0
C      1  0.4777410000000  0.5136880000000  0.4997860000000 1.0
C      1  0.5061400000000  0.5253990000000  0.4997860000000 1.0
C      1  0.5260530000000  0.5020090000000  0.4997860000000 1.0
C      1  0.5099620000000  0.4758430000000  0.4997860000000 1.0
END
