TITL C-3578205-846-660 -1.79164508070227e-07 125000 -289.595602380869 0 0 48 (C1) n - 1
REM
REM in /home/bkarasulu/work/CARBON/AIRSS/Generating-Clusters/EDIP-Nigel-Params/with-SteepDescent/Higher-Symm/SD-CG/HFTN-CG
REM
REM
REM
REM
REM
REM ./C.cell (12c818d87b63d06a65506943cc24bca4)
REM
REM compiler GCC version 9.2.1 20190827 (Red Hat 9.2.1-1)
REM options -cpp -mtune=generic -march=x86-64 -g -O0 -fpre-include=/usr/include/finclude/math-vector-fortran.h
REM seed 2125170187 -1366220546 1843884586 -1800759407 -699117266 1129556001 -979755559 910002613 -1421826419 -33419560 -1486766502 1948166874 -1558878286 1815618120 -956400350 2129567362 -652531788 1804548619 -313137614 1993750310 1927417269 -3825676 -846528050 789769366 267497723 1602824861 1341686573 324791501 325243959 -1272480729 -130485021 1240499798 1128485617
REM
CELL 1.54180   50.00000   50.00000   50.00000   90.00000   90.00000   90.00000
LATT -1
SFAC C  
C      1  0.5181310000000  0.4943310000000  0.5435610000000 1.0
C      1  0.4860850000000  0.5299750000000  0.5344260000000 1.0
C      1  0.4986370000000  0.4490880000000  0.5467760000000 1.0
C      1  0.5084870000000  0.5466960000000  0.5372910000000 1.0
C      1  0.5125040000000  0.4984550000000  0.5713520000000 1.0
C      1  0.5449230000000  0.5075530000000  0.5384200000000 1.0
C      1  0.5116510000000  0.4359620000000  0.4998240000000 1.0
C      1  0.4679480000000  0.4515810000000  0.4847110000000 1.0
C      1  0.5002670000000  0.5013240000000  0.4960040000000 1.0
C      1  0.5658930000000  0.4884480000000  0.5370630000000 1.0
C      1  0.4449830000000  0.4890430000000  0.5045530000000 1.0
C      1  0.5283230000000  0.4828850000000  0.4590260000000 1.0
C      1  0.4415290000000  0.5251150000000  0.5155540000000 1.0
C      1  0.4693850000000  0.4521210000000  0.5133110000000 1.0
C      1  0.5468280000000  0.5260720000000  0.5160460000000 1.0
C      1  0.5107320000000  0.5302110000000  0.4387600000000 1.0
C      1  0.4749510000000  0.4777980000000  0.5802520000000 1.0
C      1  0.4939030000000  0.4940450000000  0.5903660000000 1.0
C      1  0.4868310000000  0.4876190000000  0.4303510000000 1.0
C      1  0.4680300000000  0.4806200000000  0.5282510000000 1.0
C      1  0.4524190000000  0.5380790000000  0.4718380000000 1.0
C      1  0.4851430000000  0.5722100000000  0.4840210000000 1.0
C      1  0.5292510000000  0.5493390000000  0.5189510000000 1.0
C      1  0.5215590000000  0.4656970000000  0.5372020000000 1.0
C      1  0.5289650000000  0.5709840000000  0.5015540000000 1.0
C      1  0.4345450000000  0.5223070000000  0.4881960000000 1.0
C      1  0.4753100000000  0.5456510000000  0.4888270000000 1.0
C      1  0.4628650000000  0.5262990000000  0.4487500000000 1.0
C      1  0.4852850000000  0.5164540000000  0.4345120000000 1.0
C      1  0.5146020000000  0.4774030000000  0.4852860000000 1.0
C      1  0.4911600000000  0.4339650000000  0.5220650000000 1.0
C      1  0.4654890000000  0.5411880000000  0.5173180000000 1.0
C      1  0.4928950000000  0.5019840000000  0.5251580000000 1.0
C      1  0.5090790000000  0.5833900000000  0.4885020000000 1.0
C      1  0.4623920000000  0.4750650000000  0.4353830000000 1.0
C      1  0.5577140000000  0.4580300000000  0.5021000000000 1.0
C      1  0.4952090000000  0.4459430000000  0.4771770000000 1.0
C      1  0.4740380000000  0.4651840000000  0.5553590000000 1.0
C      1  0.4421030000000  0.4771520000000  0.4532980000000 1.0
C      1  0.5198190000000  0.5333450000000  0.4655950000000 1.0
C      1  0.5291130000000  0.4596270000000  0.5079280000000 1.0
C      1  0.4940210000000  0.5236250000000  0.4767270000000 1.0
C      1  0.5396080000000  0.5107840000000  0.4566650000000 1.0
C      1  0.4533980000000  0.4755420000000  0.4788630000000 1.0
C      1  0.5591790000000  0.5078520000000  0.4962140000000 1.0
C      1  0.5679940000000  0.4831920000000  0.5094570000000 1.0
C      1  0.5652730000000  0.5142770000000  0.4697280000000 1.0
C      1  0.5115490000000  0.4764890000000  0.4374300000000 1.0
END
