TITL C-3577090-796-749 -4.86536894192392e-06 125000 -890.19800273755 0 0 141 (C1) n - 1
REM
REM in /home/bkarasulu/work/CARBON/AIRSS/Generating-Clusters/EDIP-Nigel-Params/with-SteepDescent/Higher-Symm/SD-CG/HFTN-CG
REM
REM
REM
REM
REM
REM ./C.cell (12c818d87b63d06a65506943cc24bca4)
REM
REM compiler GCC version 9.2.1 20190827 (Red Hat 9.2.1-1)
REM options -cpp -mtune=generic -march=x86-64 -g -O0 -fpre-include=/usr/include/finclude/math-vector-fortran.h
REM seed 1619766819 1947083480 -1716944812 -775789150 -766555597 1626955342 -590900972 875881228 1143204455 1520038850 2056346337 -1974806940 -1237208537 622887396 1762781789 -242613521 1866012557 1249902029 -35339371 -1189079024 -1926387746 524146311 -222368489 507326622 -1027830900 -1784610086 -1833338882 -2109903402 1316096709 131646709 -1344039615 -225599391 -51965017
REM
CELL 1.54180   50.00000   50.00000   50.00000   90.00000   90.00000   90.00000
LATT -1
SFAC C  
C      1  0.4727720000000  0.5034880000000  0.3990040000000 1.0
C      1  0.4247290000000  0.5036930000000  0.5767030000000 1.0
C      1  0.6066500000000  0.5064090000000  0.5281050000000 1.0
C      1  0.5307390000000  0.4671950000000  0.4676040000000 1.0
C      1  0.4570590000000  0.4655760000000  0.4959600000000 1.0
C      1  0.5163780000000  0.4706870000000  0.5387950000000 1.0
C      1  0.4379960000000  0.5098850000000  0.4352130000000 1.0
C      1  0.4721130000000  0.5101040000000  0.5839110000000 1.0
C      1  0.5875340000000  0.5137120000000  0.4833430000000 1.0
C      1  0.4307190000000  0.5301580000000  0.5380200000000 1.0
C      1  0.5686110000000  0.5320430000000  0.5422810000000 1.0
C      1  0.5036030000000  0.5271760000000  0.4248100000000 1.0
C      1  0.4488490000000  0.5561100000000  0.5320100000000 1.0
C      1  0.5549510000000  0.5567680000000  0.5282170000000 1.0
C      1  0.4988950000000  0.5534880000000  0.4434910000000 1.0
C      1  0.5417370000000  0.5432260000000  0.5830740000000 1.0
C      1  0.5507330000000  0.5317980000000  0.4360390000000 1.0
C      1  0.4138690000000  0.5350000000000  0.4925140000000 1.0
C      1  0.5151340000000  0.5898220000000  0.4727550000000 1.0
C      1  0.4723430000000  0.5866140000000  0.5022490000000 1.0
C      1  0.5178260000000  0.5868160000000  0.5241410000000 1.0
C      1  0.5087430000000  0.5229580000000  0.4742240000000 1.0
C      1  0.4693450000000  0.5124100000000  0.5002460000000 1.0
C      1  0.5113740000000  0.5144120000000  0.5230090000000 1.0
C      1  0.4902100000000  0.4434310000000  0.4283030000000 1.0
C      1  0.4482600000000  0.4354280000000  0.5345970000000 1.0
C      1  0.5542330000000  0.4458370000000  0.5234630000000 1.0
C      1  0.5237260000000  0.5107810000000  0.5736070000000 1.0
C      1  0.5550810000000  0.5019240000000  0.4408900000000 1.0
C      1  0.4189910000000  0.5060340000000  0.4854950000000 1.0
C      1  0.4753080000000  0.5425100000000  0.4991600000000 1.0
C      1  0.5068030000000  0.5440890000000  0.5216450000000 1.0
C      1  0.5123630000000  0.5495640000000  0.4895240000000 1.0
C      1  0.4471920000000  0.4967040000000  0.5941810000000 1.0
C      1  0.6077700000000  0.4990310000000  0.4999670000000 1.0
C      1  0.4481480000000  0.4945660000000  0.4120750000000 1.0
C      1  0.4342840000000  0.4319670000000  0.4347550000000 1.0
C      1  0.4755080000000  0.4333580000000  0.5882150000000 1.0
C      1  0.5921830000000  0.4310900000000  0.4800010000000 1.0
C      1  0.4753740000000  0.5513590000000  0.4676300000000 1.0
C      1  0.4814470000000  0.5507310000000  0.5401940000000 1.0
C      1  0.5448990000000  0.5455990000000  0.5002030000000 1.0
C      1  0.5535080000000  0.4623830000000  0.5696850000000 1.0
C      1  0.5331780000000  0.4618380000000  0.4194840000000 1.0
C      1  0.4096440000000  0.4583960000000  0.5116630000000 1.0
C      1  0.4622650000000  0.4099240000000  0.4850790000000 1.0
C      1  0.4956350000000  0.4182990000000  0.5388660000000 1.0
C      1  0.5051650000000  0.4408030000000  0.4730080000000 1.0
C      1  0.4453470000000  0.5726350000000  0.5061700000000 1.0
C      1  0.5331690000000  0.5707750000000  0.5440320000000 1.0
C      1  0.5228890000000  0.5696570000000  0.4517210000000 1.0
C      1  0.4441660000000  0.4950700000000  0.5044340000000 1.0
C      1  0.5285910000000  0.5001870000000  0.5434650000000 1.0
C      1  0.5279030000000  0.4829050000000  0.4418030000000 1.0
C      1  0.4629600000000  0.5506120000000  0.4159830000000 1.0
C      1  0.4452500000000  0.5526110000000  0.5773260000000 1.0
C      1  0.5979750000000  0.5549940000000  0.5106490000000 1.0
C      1  0.4482420000000  0.5749890000000  0.5562580000000 1.0
C      1  0.5765400000000  0.5756740000000  0.5182460000000 1.0
C      1  0.4800670000000  0.5723480000000  0.4287130000000 1.0
C      1  0.5088670000000  0.4643460000000  0.5100460000000 1.0
C      1  0.5134730000000  0.4807080000000  0.4873670000000 1.0
C      1  0.4823780000000  0.4535350000000  0.5083400000000 1.0
C      1  0.4382110000000  0.4253240000000  0.4845490000000 1.0
C      1  0.5168700000000  0.4278550000000  0.5585130000000 1.0
C      1  0.5250200000000  0.4251530000000  0.4550750000000 1.0
C      1  0.4453270000000  0.4417740000000  0.4113200000000 1.0
C      1  0.4502400000000  0.4442540000000  0.5849630000000 1.0
C      1  0.6005740000000  0.4457820000000  0.5022980000000 1.0
C      1  0.4349920000000  0.4449430000000  0.4603630000000 1.0
C      1  0.4977670000000  0.4469110000000  0.5759890000000 1.0
C      1  0.5761070000000  0.4481250000000  0.4651320000000 1.0
C      1  0.5092390000000  0.4026010000000  0.4673170000000 1.0
C      1  0.4898840000000  0.4030590000000  0.4895460000000 1.0
C      1  0.5008590000000  0.4035590000000  0.5155270000000 1.0
C      1  0.4475100000000  0.4690180000000  0.5969990000000 1.0
C      1  0.6107240000000  0.4713800000000  0.4971270000000 1.0
C      1  0.4398550000000  0.4685160000000  0.4069900000000 1.0
C      1  0.5415570000000  0.5027690000000  0.3983740000000 1.0
C      1  0.3906970000000  0.5033770000000  0.5211130000000 1.0
C      1  0.5711020000000  0.5053020000000  0.5836150000000 1.0
C      1  0.5444410000000  0.5004090000000  0.5946240000000 1.0
C      1  0.5664320000000  0.4911140000000  0.4142160000000 1.0
C      1  0.3911510000000  0.4952290000000  0.4922520000000 1.0
C      1  0.5568540000000  0.5047230000000  0.5296720000000 1.0
C      1  0.4983120000000  0.4970430000000  0.4348410000000 1.0
C      1  0.4426960000000  0.5005020000000  0.5359840000000 1.0
C      1  0.4716950000000  0.5397450000000  0.5814560000000 1.0
C      1  0.5900440000000  0.5441570000000  0.4837410000000 1.0
C      1  0.4469460000000  0.5382050000000  0.4374390000000 1.0
C      1  0.5232740000000  0.5069000000000  0.4959530000000 1.0
C      1  0.4838580000000  0.5045420000000  0.4753720000000 1.0
C      1  0.4850290000000  0.5043690000000  0.5237930000000 1.0
C      1  0.4875970000000  0.4645660000000  0.5523050000000 1.0
C      1  0.5604580000000  0.4702650000000  0.4777420000000 1.0
C      1  0.4605530000000  0.4627440000000  0.4638560000000 1.0
C      1  0.4771220000000  0.4417200000000  0.5341720000000 1.0
C      1  0.5611720000000  0.4721230000000  0.5091990000000 1.0
C      1  0.4821570000000  0.4447950000000  0.4558420000000 1.0
C      1  0.4382030000000  0.5566340000000  0.4576170000000 1.0
C      1  0.4952430000000  0.5560880000000  0.5760380000000 1.0
C      1  0.5680600000000  0.5626280000000  0.4738320000000 1.0
C      1  0.5381760000000  0.4712880000000  0.5935680000000 1.0
C      1  0.5634440000000  0.4611750000000  0.4164610000000 1.0
C      1  0.3967440000000  0.4665580000000  0.4864800000000 1.0
C      1  0.4253320000000  0.4948610000000  0.4583630000000 1.0
C      1  0.4991510000000  0.4968150000000  0.5833990000000 1.0
C      1  0.5710860000000  0.4955320000000  0.4654900000000 1.0
C      1  0.4722210000000  0.4351920000000  0.4083620000000 1.0
C      1  0.4381600000000  0.4401110000000  0.5600980000000 1.0
C      1  0.5830650000000  0.4441290000000  0.5252400000000 1.0
C      1  0.5524830000000  0.5145260000000  0.5003490000000 1.0
C      1  0.4689960000000  0.4917330000000  0.4510370000000 1.0
C      1  0.4719080000000  0.4941550000000  0.5483770000000 1.0
C      1  0.4350310000000  0.5535350000000  0.4857420000000 1.0
C      1  0.5219680000000  0.5534970000000  0.5653480000000 1.0
C      1  0.5456920000000  0.5523110000000  0.4565950000000 1.0
C      1  0.4246660000000  0.5323530000000  0.5669070000000 1.0
C      1  0.5969490000000  0.5340550000000  0.5329600000000 1.0
C      1  0.4824980000000  0.5310770000000  0.4039500000000 1.0
C      1  0.5366950000000  0.4496600000000  0.5478620000000 1.0
C      1  0.5185560000000  0.4356240000000  0.4273410000000 1.0
C      1  0.4364760000000  0.4447710000000  0.5078720000000 1.0
C      1  0.5665970000000  0.5324100000000  0.5725210000000 1.0
C      1  0.5315250000000  0.5279830000000  0.4134510000000 1.0
C      1  0.4057030000000  0.5306740000000  0.5212720000000 1.0
C      1  0.4046020000000  0.4796260000000  0.5321700000000 1.0
C      1  0.5739780000000  0.4836030000000  0.5642290000000 1.0
C      1  0.5222410000000  0.4789450000000  0.3966610000000 1.0
C      1  0.4143570000000  0.4667690000000  0.4617930000000 1.0
C      1  0.5083420000000  0.4697550000000  0.5920470000000 1.0
C      1  0.5771360000000  0.4490410000000  0.4374470000000 1.0
C      1  0.4751670000000  0.5869810000000  0.5523450000000 1.0
C      1  0.5617830000000  0.5852040000000  0.4937330000000 1.0
C      1  0.4694130000000  0.5865010000000  0.4521150000000 1.0
C      1  0.4850690000000  0.5927560000000  0.4758590000000 1.0
C      1  0.4883460000000  0.5917180000000  0.5265350000000 1.0
C      1  0.5317410000000  0.5883300000000  0.4975710000000 1.0
C      1  0.5940310000000  0.4870920000000  0.5446730000000 1.0
C      1  0.4937190000000  0.4836300000000  0.3987840000000 1.0
C      1  0.4174260000000  0.4815820000000  0.5582760000000 1.0
END
