TITL C-3577080-309-186 1.25707243385899e-06 125000 -916.878428480394 0 0 148 (C1) n - 1
REM
REM in /home/bkarasulu/work/CARBON/AIRSS/Generating-Clusters/EDIP-Nigel-Params/with-SteepDescent/Higher-Symm/SD-CG/HFTN-CG
REM
REM
REM
REM
REM
REM ./C.cell (12c818d87b63d06a65506943cc24bca4)
REM
REM compiler GCC version 9.2.1 20190827 (Red Hat 9.2.1-1)
REM options -cpp -mtune=generic -march=x86-64 -g -O0 -fpre-include=/usr/include/finclude/math-vector-fortran.h
REM seed 1395521178 -1866360597 -1595941977 225029665 -896726449 870788655 304677565 -626942533 -1688772737 117051782 -1344329900 -34944983 1372357090 -596904041 -223767517 -1143934926 1508343024 -144375330 2033042049 -1118247327 -1174901056 1906090141 329519726 665305558 282183357 -195103744 1149333297 1139270249 -1114883098 -1875462539 -1573295258 1380875654 1668325840
REM
CELL 1.54180   50.00000   50.00000   50.00000   90.00000   90.00000   90.00000
LATT -1
SFAC C  
C      1  0.5762560000000  0.5550910000000  0.4379360000000 1.0
C      1  0.4191100000000  0.5325080000000  0.4627110000000 1.0
C      1  0.5152600000000  0.5351910000000  0.5885770000000 1.0
C      1  0.5620900000000  0.4523740000000  0.5557550000000 1.0
C      1  0.4169820000000  0.4692070000000  0.5397580000000 1.0
C      1  0.5117930000000  0.4644180000000  0.4117670000000 1.0
C      1  0.4337880000000  0.4430810000000  0.4628360000000 1.0
C      1  0.4973690000000  0.4499550000000  0.5865640000000 1.0
C      1  0.5614360000000  0.4451230000000  0.4692990000000 1.0
C      1  0.4385290000000  0.5465030000000  0.5525440000000 1.0
C      1  0.4852480000000  0.5470020000000  0.4067360000000 1.0
C      1  0.5619010000000  0.5643760000000  0.5405280000000 1.0
C      1  0.4154460000000  0.4181320000000  0.5117950000000 1.0
C      1  0.5426800000000  0.4059990000000  0.5682930000000 1.0
C      1  0.5246030000000  0.4211890000000  0.4391810000000 1.0
C      1  0.4266660000000  0.5709720000000  0.4977400000000 1.0
C      1  0.5349590000000  0.5841700000000  0.4287550000000 1.0
C      1  0.5238650000000  0.5848040000000  0.5750620000000 1.0
C      1  0.4132340000000  0.5237230000000  0.5210120000000 1.0
C      1  0.5642650000000  0.5207830000000  0.5706080000000 1.0
C      1  0.5151700000000  0.5228390000000  0.4000490000000 1.0
C      1  0.4089710000000  0.4625750000000  0.4663200000000 1.0
C      1  0.5637150000000  0.4894080000000  0.4300070000000 1.0
C      1  0.5123560000000  0.4670930000000  0.6053770000000 1.0
C      1  0.5503650000000  0.4705130000000  0.4781040000000 1.0
C      1  0.4667060000000  0.4630660000000  0.4687400000000 1.0
C      1  0.4937240000000  0.4611090000000  0.5500830000000 1.0
C      1  0.5501320000000  0.5409630000000  0.5288740000000 1.0
C      1  0.4572190000000  0.5350650000000  0.5339130000000 1.0
C      1  0.4904780000000  0.5374640000000  0.4333650000000 1.0
C      1  0.4491180000000  0.4656060000000  0.5805420000000 1.0
C      1  0.5933680000000  0.4629390000000  0.5014290000000 1.0
C      1  0.4610090000000  0.4594460000000  0.4182380000000 1.0
C      1  0.4400330000000  0.5321840000000  0.4133200000000 1.0
C      1  0.5914700000000  0.5454570000000  0.5022230000000 1.0
C      1  0.4624370000000  0.5387390000000  0.5910550000000 1.0
C      1  0.5427660000000  0.4948730000000  0.3872390000000 1.0
C      1  0.3921940000000  0.5039610000000  0.5151460000000 1.0
C      1  0.5628860000000  0.4952720000000  0.5820330000000 1.0
C      1  0.5430020000000  0.4897170000000  0.6019180000000 1.0
C      1  0.3964650000000  0.4900080000000  0.4901110000000 1.0
C      1  0.5551000000000  0.5071620000000  0.4089560000000 1.0
C      1  0.5733220000000  0.4990250000000  0.5271190000000 1.0
C      1  0.4820160000000  0.5024850000000  0.4106940000000 1.0
C      1  0.4349150000000  0.5096710000000  0.5615270000000 1.0
C      1  0.5770770000000  0.5038130000000  0.4691810000000 1.0
C      1  0.4878200000000  0.4981270000000  0.5834330000000 1.0
C      1  0.4357780000000  0.4929410000000  0.4441080000000 1.0
C      1  0.5254840000000  0.4409290000000  0.4193250000000 1.0
C      1  0.4097680000000  0.4441950000000  0.5264090000000 1.0
C      1  0.5569480000000  0.4302990000000  0.5734880000000 1.0
C      1  0.5239370000000  0.5622200000000  0.5928100000000 1.0
C      1  0.4283780000000  0.5598250000000  0.4714970000000 1.0
C      1  0.5591890000000  0.5731870000000  0.4255070000000 1.0
C      1  0.5011750000000  0.5670960000000  0.5614360000000 1.0
C      1  0.5600130000000  0.5797820000000  0.4770190000000 1.0
C      1  0.4570400000000  0.5615870000000  0.4614990000000 1.0
C      1  0.4991410000000  0.4339150000000  0.4502610000000 1.0
C      1  0.5496860000000  0.4134010000000  0.5395690000000 1.0
C      1  0.4371550000000  0.4313470000000  0.5287240000000 1.0
C      1  0.5963250000000  0.4909640000000  0.4900120000000 1.0
C      1  0.4419980000000  0.4820120000000  0.4165400000000 1.0
C      1  0.4599690000000  0.4898570000000  0.5937860000000 1.0
C      1  0.5925230000000  0.5145950000000  0.5094190000000 1.0
C      1  0.4438530000000  0.5144010000000  0.5900470000000 1.0
C      1  0.4527910000000  0.5062180000000  0.4025680000000 1.0
C      1  0.4428360000000  0.4790910000000  0.5538040000000 1.0
C      1  0.5645680000000  0.4513400000000  0.5250710000000 1.0
C      1  0.4867330000000  0.4748830000000  0.4247050000000 1.0
C      1  0.4394020000000  0.5228540000000  0.4425070000000 1.0
C      1  0.5768130000000  0.5563700000000  0.4680320000000 1.0
C      1  0.4875080000000  0.5279350000000  0.5771070000000 1.0
C      1  0.5222560000000  0.6015770000000  0.4967540000000 1.0
C      1  0.4876380000000  0.5943380000000  0.4804640000000 1.0
C      1  0.4931490000000  0.5907200000000  0.5190310000000 1.0
C      1  0.5219860000000  0.3958410000000  0.5049360000000 1.0
C      1  0.4770770000000  0.4105550000000  0.5154230000000 1.0
C      1  0.4935140000000  0.4029420000000  0.4907710000000 1.0
C      1  0.5077630000000  0.4289160000000  0.4795300000000 1.0
C      1  0.4579820000000  0.4312540000000  0.5074780000000 1.0
C      1  0.5216880000000  0.4135590000000  0.5298060000000 1.0
C      1  0.5132230000000  0.5721220000000  0.5339570000000 1.0
C      1  0.4726370000000  0.5685540000000  0.4863600000000 1.0
C      1  0.5294730000000  0.5785810000000  0.4777610000000 1.0
C      1  0.3953200000000  0.4888380000000  0.5411850000000 1.0
C      1  0.5765020000000  0.4746280000000  0.5666890000000 1.0
C      1  0.5186230000000  0.4798590000000  0.3875460000000 1.0
C      1  0.3988970000000  0.5090170000000  0.4666920000000 1.0
C      1  0.5808690000000  0.5298240000000  0.4249230000000 1.0
C      1  0.5239590000000  0.5132170000000  0.6079390000000 1.0
C      1  0.4659680000000  0.5873600000000  0.5313960000000 1.0
C      1  0.5449820000000  0.6029840000000  0.5168150000000 1.0
C      1  0.4899390000000  0.5933970000000  0.4501800000000 1.0
C      1  0.4664470000000  0.4049220000000  0.4706760000000 1.0
C      1  0.5467680000000  0.4034360000000  0.4898420000000 1.0
C      1  0.4804530000000  0.4057560000000  0.5446670000000 1.0
C      1  0.4691370000000  0.4758970000000  0.5384970000000 1.0
C      1  0.5523130000000  0.4767370000000  0.5097410000000 1.0
C      1  0.4895500000000  0.4760790000000  0.4550330000000 1.0
C      1  0.4666760000000  0.5336710000000  0.4525370000000 1.0
C      1  0.5647350000000  0.5298840000000  0.4790190000000 1.0
C      1  0.4837440000000  0.5293890000000  0.5464700000000 1.0
C      1  0.4779700000000  0.5209860000000  0.4772140000000 1.0
C      1  0.5061570000000  0.5223960000000  0.5290020000000 1.0
C      1  0.5355710000000  0.5298440000000  0.4765230000000 1.0
C      1  0.4738130000000  0.4832060000000  0.5103240000000 1.0
C      1  0.5000850000000  0.4993300000000  0.4714450000000 1.0
C      1  0.5251820000000  0.4832230000000  0.5195150000000 1.0
C      1  0.5536410000000  0.5158550000000  0.5437230000000 1.0
C      1  0.5149280000000  0.5221090000000  0.4321230000000 1.0
C      1  0.4414810000000  0.5190300000000  0.5150730000000 1.0
C      1  0.5448750000000  0.4881000000000  0.4542070000000 1.0
C      1  0.5077260000000  0.4851270000000  0.5624120000000 1.0
C      1  0.4466560000000  0.4844040000000  0.4714250000000 1.0
C      1  0.5689460000000  0.5912410000000  0.5028990000000 1.0
C      1  0.4652650000000  0.5794090000000  0.4387340000000 1.0
C      1  0.4725530000000  0.5790600000000  0.5608140000000 1.0
C      1  0.5686240000000  0.4177580000000  0.5056310000000 1.0
C      1  0.4651380000000  0.4219870000000  0.5619540000000 1.0
C      1  0.4736990000000  0.4188440000000  0.4454320000000 1.0
C      1  0.5906820000000  0.4853700000000  0.5454870000000 1.0
C      1  0.4988400000000  0.5011580000000  0.3854800000000 1.0
C      1  0.4057420000000  0.5113790000000  0.5567230000000 1.0
C      1  0.5866110000000  0.5052700000000  0.4401600000000 1.0
C      1  0.5009800000000  0.4939670000000  0.6095390000000 1.0
C      1  0.4074090000000  0.4863870000000  0.4485140000000 1.0
C      1  0.4530580000000  0.5713620000000  0.5089300000000 1.0
C      1  0.5400300000000  0.5859110000000  0.5419300000000 1.0
C      1  0.5174430000000  0.5822420000000  0.4501580000000 1.0
C      1  0.4421020000000  0.4202430000000  0.4832110000000 1.0
C      1  0.5407660000000  0.4227590000000  0.4672450000000 1.0
C      1  0.5079800000000  0.4002370000000  0.5524670000000 1.0
C      1  0.5098250000000  0.4429270000000  0.5275590000000 1.0
C      1  0.5034830000000  0.4501580000000  0.4993950000000 1.0
C      1  0.4747440000000  0.4566830000000  0.4969310000000 1.0
C      1  0.5196950000000  0.5503570000000  0.4901150000000 1.0
C      1  0.5225330000000  0.5466390000000  0.5204450000000 1.0
C      1  0.4901820000000  0.5452390000000  0.4896480000000 1.0
C      1  0.5832160000000  0.4384060000000  0.4880520000000 1.0
C      1  0.4515210000000  0.4373900000000  0.4371020000000 1.0
C      1  0.4691710000000  0.4429450000000  0.5806800000000 1.0
C      1  0.5824440000000  0.5698770000000  0.5196300000000 1.0
C      1  0.4511160000000  0.5613250000000  0.5739730000000 1.0
C      1  0.4580920000000  0.5563970000000  0.4102700000000 1.0
C      1  0.5244040000000  0.5104000000000  0.4580860000000 1.0
C      1  0.5242550000000  0.5015330000000  0.5424420000000 1.0
C      1  0.4566300000000  0.5034720000000  0.4935310000000 1.0
C      1  0.5018490000000  0.4939620000000  0.5035370000000 1.0
END
