TITL C-3578203-1966-472 4.89333434346158e-06 125000 -547.859955758433 0 0 89 (C1) n - 1
REM
REM in /home/bkarasulu/work/CARBON/AIRSS/Generating-Clusters/EDIP-Nigel-Params/with-SteepDescent/Higher-Symm/SD-CG/HFTN-CG
REM
REM
REM
REM
REM
REM ./C.cell (12c818d87b63d06a65506943cc24bca4)
REM
REM compiler GCC version 9.2.1 20190827 (Red Hat 9.2.1-1)
REM options -cpp -mtune=generic -march=x86-64 -g -O0 -fpre-include=/usr/include/finclude/math-vector-fortran.h
REM seed -875788575 -1140775837 -2043168863 -378110463 1136840195 -2059884341 694435906 -393549247 -1425160029 721388574 -1899332274 786330141 -196635257 883848256 -1286418131 1561675118 1174865126 964314982 -162545822 -1963954502 -901612563 1552759214 307485777 -1558106271 -1488336299 1774458590 -1882574465 593268345 1353471536 -22612679 1991141268 2109626015 1431408823
REM
CELL 1.54180   50.00000   50.00000   50.00000   90.00000   90.00000   90.00000
LATT -1
SFAC C  
C      1  0.5228930000000  0.5298730000000  0.4860750000000 1.0
C      1  0.5203370000000  0.5231730000000  0.5153410000000 1.0
C      1  0.4927910000000  0.5308460000000  0.5261620000000 1.0
C      1  0.4737350000000  0.5286760000000  0.4993670000000 1.0
C      1  0.4934740000000  0.5288930000000  0.4740280000000 1.0
C      1  0.4762500000000  0.4682330000000  0.4909150000000 1.0
C      1  0.4834740000000  0.4775250000000  0.5186790000000 1.0
C      1  0.5117590000000  0.4699820000000  0.5237950000000 1.0
C      1  0.5264480000000  0.4688550000000  0.4958310000000 1.0
C      1  0.5034280000000  0.4669180000000  0.4746300000000 1.0
C      1  0.5264840000000  0.5497000000000  0.4365740000000 1.0
C      1  0.5694770000000  0.5540190000000  0.5082080000000 1.0
C      1  0.5169480000000  0.5552540000000  0.5701870000000 1.0
C      1  0.4425580000000  0.5435260000000  0.5374580000000 1.0
C      1  0.4448740000000  0.5479490000000  0.4561850000000 1.0
C      1  0.4759940000000  0.4557050000000  0.4338810000000 1.0
C      1  0.4302100000000  0.4568090000000  0.5023810000000 1.0
C      1  0.4792740000000  0.4545600000000  0.5674870000000 1.0
C      1  0.5575100000000  0.4517790000000  0.5392320000000 1.0
C      1  0.5565100000000  0.4533400000000  0.4558730000000 1.0
C      1  0.4488410000000  0.5097200000000  0.4987670000000 1.0
C      1  0.4867960000000  0.5090700000000  0.4504580000000 1.0
C      1  0.5432890000000  0.5099840000000  0.4708210000000 1.0
C      1  0.5421490000000  0.5091480000000  0.5317990000000 1.0
C      1  0.4844060000000  0.5120750000000  0.5516840000000 1.0
C      1  0.5510710000000  0.4867620000000  0.4890070000000 1.0
C      1  0.5051910000000  0.4851690000000  0.4489800000000 1.0
C      1  0.4531070000000  0.4868610000000  0.4797000000000 1.0
C      1  0.4662820000000  0.4906510000000  0.5403050000000 1.0
C      1  0.5270410000000  0.4865350000000  0.5452300000000 1.0
C      1  0.4886810000000  0.5691110000000  0.4594360000000 1.0
C      1  0.5354580000000  0.5700220000000  0.4782890000000 1.0
C      1  0.5279340000000  0.5798790000000  0.5250580000000 1.0
C      1  0.4829250000000  0.5705650000000  0.5393860000000 1.0
C      1  0.4575020000000  0.5689310000000  0.4978730000000 1.0
C      1  0.5074290000000  0.4252360000000  0.4600800000000 1.0
C      1  0.4616640000000  0.4302460000000  0.4763970000000 1.0
C      1  0.4649420000000  0.4298510000000  0.5253620000000 1.0
C      1  0.5121330000000  0.4294240000000  0.5369620000000 1.0
C      1  0.5416750000000  0.4288120000000  0.4961570000000 1.0
C      1  0.4935710000000  0.5452540000000  0.5825610000000 1.0
C      1  0.4199010000000  0.5334500000000  0.5227780000000 1.0
C      1  0.4530940000000  0.5317280000000  0.4337450000000 1.0
C      1  0.5535370000000  0.5418250000000  0.4405680000000 1.0
C      1  0.5738050000000  0.5435650000000  0.5338610000000 1.0
C      1  0.5029240000000  0.4699700000000  0.5789540000000 1.0
C      1  0.5756550000000  0.4686300000000  0.5216510000000 1.0
C      1  0.5449810000000  0.4712190000000  0.4347990000000 1.0
C      1  0.4519240000000  0.4723970000000  0.4365190000000 1.0
C      1  0.4259890000000  0.4729430000000  0.5272860000000 1.0
C      1  0.4329880000000  0.4591740000000  0.5512460000000 1.0
C      1  0.4315930000000  0.4601380000000  0.4518970000000 1.0
C      1  0.5245930000000  0.4584430000000  0.4199650000000 1.0
C      1  0.5841770000000  0.4548140000000  0.4978050000000 1.0
C      1  0.5273320000000  0.4545890000000  0.5793970000000 1.0
C      1  0.5564200000000  0.5284780000000  0.5499480000000 1.0
C      1  0.5656990000000  0.5278000000000  0.4622460000000 1.0
C      1  0.4787100000000  0.5309070000000  0.4196750000000 1.0
C      1  0.4230710000000  0.5248060000000  0.4945540000000 1.0
C      1  0.4725880000000  0.5288900000000  0.5729450000000 1.0
C      1  0.4227050000000  0.5410500000000  0.4716990000000 1.0
C      1  0.5058900000000  0.5367510000000  0.4225870000000 1.0
C      1  0.5772890000000  0.5412160000000  0.4842930000000 1.0
C      1  0.5411250000000  0.5413730000000  0.5695480000000 1.0
C      1  0.4478160000000  0.5387710000000  0.5645470000000 1.0
C      1  0.5716090000000  0.4689310000000  0.4765880000000 1.0
C      1  0.4978050000000  0.4654540000000  0.4173710000000 1.0
C      1  0.4208280000000  0.4669600000000  0.4767560000000 1.0
C      1  0.4561070000000  0.4719120000000  0.5615850000000 1.0
C      1  0.5442510000000  0.4678230000000  0.5607800000000 1.0
C      1  0.5372250000000  0.4361940000000  0.5232280000000 1.0
C      1  0.4855250000000  0.4400360000000  0.5423680000000 1.0
C      1  0.4500110000000  0.4350280000000  0.5018110000000 1.0
C      1  0.4799490000000  0.4356850000000  0.4550470000000 1.0
C      1  0.5343430000000  0.4376680000000  0.4698440000000 1.0
C      1  0.4608540000000  0.5618600000000  0.5248030000000 1.0
C      1  0.5100540000000  0.5665140000000  0.5447230000000 1.0
C      1  0.5428620000000  0.5640570000000  0.5046790000000 1.0
C      1  0.5161720000000  0.5635800000000  0.4589760000000 1.0
C      1  0.4646490000000  0.5616770000000  0.4716920000000 1.0
C      1  0.4405330000000  0.5003990000000  0.5271110000000 1.0
C      1  0.5324660000000  0.4958750000000  0.4463220000000 1.0
C      1  0.5626910000000  0.4955060000000  0.5144930000000 1.0
C      1  0.4579380000000  0.4978380000000  0.4516010000000 1.0
C      1  0.5071480000000  0.4966470000000  0.5644020000000 1.0
C      1  0.4988410000000  0.5597330000000  0.4996680000000 1.0
C      1  0.4989230000000  0.4370800000000  0.5011700000000 1.0
C      1  0.5017960000000  0.4117360000000  0.4852230000000 1.0
C      1  0.5067080000000  0.5892040000000  0.5069480000000 1.0
END
