TITL C-3578203-1966-430 -4.76630921606518e-06 125000 -1023.44742693458 0 0 163 (C1) n - 1
REM
REM in /home/bkarasulu/work/CARBON/AIRSS/Generating-Clusters/EDIP-Nigel-Params/with-SteepDescent/Higher-Symm/SD-CG/HFTN-CG
REM
REM
REM
REM
REM
REM ./C.cell (12c818d87b63d06a65506943cc24bca4)
REM
REM compiler GCC version 9.2.1 20190827 (Red Hat 9.2.1-1)
REM options -cpp -mtune=generic -march=x86-64 -g -O0 -fpre-include=/usr/include/finclude/math-vector-fortran.h
REM seed 1528945094 -488330268 -717838256 847014786 -961485995 209233425 -1226661799 -453288698 -701085188 -1159533552 -627214213 1084140628 -1171908937 -1942587717 -58737240 -479878431 327966715 781605405 -86270901 167060214 -1773352893 1811794298 -389536170 -1409306385 -227379011 1524049270 -1751639920 -481581017 -620288876 1375006410 -1838355079 -1204315311 1572478095
REM
CELL 1.54180   50.00000   50.00000   50.00000   90.00000   90.00000   90.00000
LATT -1
SFAC C  
C      1  0.4734840000000  0.5606950000000  0.5869010000000 1.0
C      1  0.4715370000000  0.5648720000000  0.4095150000000 1.0
C      1  0.5861470000000  0.4450070000000  0.5425230000000 1.0
C      1  0.5900340000000  0.4475580000000  0.4526150000000 1.0
C      1  0.4459080000000  0.4243670000000  0.5548530000000 1.0
C      1  0.4554010000000  0.4252530000000  0.4529610000000 1.0
C      1  0.5151460000000  0.5058290000000  0.4011810000000 1.0
C      1  0.5197690000000  0.5068740000000  0.6053280000000 1.0
C      1  0.4766480000000  0.5172140000000  0.4484960000000 1.0
C      1  0.4774460000000  0.5213030000000  0.5564160000000 1.0
C      1  0.5137520000000  0.5314690000000  0.5905410000000 1.0
C      1  0.5103700000000  0.5343210000000  0.4076990000000 1.0
C      1  0.5945190000000  0.5160990000000  0.4504970000000 1.0
C      1  0.5971900000000  0.5140810000000  0.5471950000000 1.0
C      1  0.5430910000000  0.4933000000000  0.4084170000000 1.0
C      1  0.5426000000000  0.4915980000000  0.5888970000000 1.0
C      1  0.5260990000000  0.5812490000000  0.5423980000000 1.0
C      1  0.5234360000000  0.5840330000000  0.4587150000000 1.0
C      1  0.5768410000000  0.4691420000000  0.4354010000000 1.0
C      1  0.5745590000000  0.4667300000000  0.5610400000000 1.0
C      1  0.4907710000000  0.4953830000000  0.6100940000000 1.0
C      1  0.4880800000000  0.4943260000000  0.3924930000000 1.0
C      1  0.5160900000000  0.4852570000000  0.4417490000000 1.0
C      1  0.5147830000000  0.4853060000000  0.5553560000000 1.0
C      1  0.4763780000000  0.4060360000000  0.4641940000000 1.0
C      1  0.4660390000000  0.4072850000000  0.5403020000000 1.0
C      1  0.5188810000000  0.4613060000000  0.5348110000000 1.0
C      1  0.5171900000000  0.4662000000000  0.4639990000000 1.0
C      1  0.5186840000000  0.5251590000000  0.4742250000000 1.0
C      1  0.5165810000000  0.5264040000000  0.5255040000000 1.0
C      1  0.5596830000000  0.5143390000000  0.4170080000000 1.0
C      1  0.5636540000000  0.5121810000000  0.5844680000000 1.0
C      1  0.4873920000000  0.4933750000000  0.4332380000000 1.0
C      1  0.4845210000000  0.4918930000000  0.5533190000000 1.0
C      1  0.4717690000000  0.5919250000000  0.4630000000000 1.0
C      1  0.4814660000000  0.5641290000000  0.5303280000000 1.0
C      1  0.4795000000000  0.4850490000000  0.4784880000000 1.0
C      1  0.4781760000000  0.4830650000000  0.5245270000000 1.0
C      1  0.4842280000000  0.5329300000000  0.5841470000000 1.0
C      1  0.4811990000000  0.5374410000000  0.4093230000000 1.0
C      1  0.5329630000000  0.4380050000000  0.5684340000000 1.0
C      1  0.5367610000000  0.4381510000000  0.4275330000000 1.0
C      1  0.5316990000000  0.5100960000000  0.5455170000000 1.0
C      1  0.5340550000000  0.5097970000000  0.4519130000000 1.0
C      1  0.4912030000000  0.4582920000000  0.4739310000000 1.0
C      1  0.4905870000000  0.4536220000000  0.5252780000000 1.0
C      1  0.5479540000000  0.4228590000000  0.4506000000000 1.0
C      1  0.5394890000000  0.4275880000000  0.5405400000000 1.0
C      1  0.4477690000000  0.4786800000000  0.5234370000000 1.0
C      1  0.4505450000000  0.4798320000000  0.4724640000000 1.0
C      1  0.5351380000000  0.5328860000000  0.5698350000000 1.0
C      1  0.5224410000000  0.5418270000000  0.4334010000000 1.0
C      1  0.4346050000000  0.5078800000000  0.4700890000000 1.0
C      1  0.4343660000000  0.5079060000000  0.5282900000000 1.0
C      1  0.4594470000000  0.4503270000000  0.5476470000000 1.0
C      1  0.4689450000000  0.4513390000000  0.4528920000000 1.0
C      1  0.6076490000000  0.4628650000000  0.4704680000000 1.0
C      1  0.5891430000000  0.4624470000000  0.5165200000000 1.0
C      1  0.4405980000000  0.5056890000000  0.5800780000000 1.0
C      1  0.4419250000000  0.5054400000000  0.4205600000000 1.0
C      1  0.4898200000000  0.4268400000000  0.4060370000000 1.0
C      1  0.4873000000000  0.4303580000000  0.5921690000000 1.0
C      1  0.5719570000000  0.4288810000000  0.4663960000000 1.0
C      1  0.5682430000000  0.4223000000000  0.5339390000000 1.0
C      1  0.5553790000000  0.5002300000000  0.5272010000000 1.0
C      1  0.5550980000000  0.4965340000000  0.4744450000000 1.0
C      1  0.4426060000000  0.5936200000000  0.5306910000000 1.0
C      1  0.4280130000000  0.5843900000000  0.4833950000000 1.0
C      1  0.3860280000000  0.5223240000000  0.5172530000000 1.0
C      1  0.3862300000000  0.5190790000000  0.4735030000000 1.0
C      1  0.5436710000000  0.5635270000000  0.5617830000000 1.0
C      1  0.5398610000000  0.5659560000000  0.4395560000000 1.0
C      1  0.5026210000000  0.4084910000000  0.4493140000000 1.0
C      1  0.4943330000000  0.4145900000000  0.5464560000000 1.0
C      1  0.4474200000000  0.5221760000000  0.4457990000000 1.0
C      1  0.4467570000000  0.5220060000000  0.5545360000000 1.0
C      1  0.5789590000000  0.5289610000000  0.5649660000000 1.0
C      1  0.5753640000000  0.5304670000000  0.4338270000000 1.0
C      1  0.5481100000000  0.4644800000000  0.5749710000000 1.0
C      1  0.5501210000000  0.4659420000000  0.4220760000000 1.0
C      1  0.5088000000000  0.4665150000000  0.4093850000000 1.0
C      1  0.5018800000000  0.4751720000000  0.5906010000000 1.0
C      1  0.4394180000000  0.5509760000000  0.5565380000000 1.0
C      1  0.4391130000000  0.5519100000000  0.4439510000000 1.0
C      1  0.4947360000000  0.5373490000000  0.4605180000000 1.0
C      1  0.4911530000000  0.5367890000000  0.5363990000000 1.0
C      1  0.5800280000000  0.4889670000000  0.5388320000000 1.0
C      1  0.5822070000000  0.4896180000000  0.4589290000000 1.0
C      1  0.4967150000000  0.5826820000000  0.5483950000000 1.0
C      1  0.4959320000000  0.5903890000000  0.4467250000000 1.0
C      1  0.4892830000000  0.5800230000000  0.5749340000000 1.0
C      1  0.4900000000000  0.5828580000000  0.4205140000000 1.0
C      1  0.5661500000000  0.5540560000000  0.4486850000000 1.0
C      1  0.5687650000000  0.5527130000000  0.5500760000000 1.0
C      1  0.4278590000000  0.4329440000000  0.4597650000000 1.0
C      1  0.4195240000000  0.4334520000000  0.5416940000000 1.0
C      1  0.5272240000000  0.4082750000000  0.4637350000000 1.0
C      1  0.5170650000000  0.4066760000000  0.5298880000000 1.0
C      1  0.3992300000000  0.4739070000000  0.4638980000000 1.0
C      1  0.3973310000000  0.4779440000000  0.5315770000000 1.0
C      1  0.4436390000000  0.5818820000000  0.4560280000000 1.0
C      1  0.4499120000000  0.5657160000000  0.5326100000000 1.0
C      1  0.4634480000000  0.4690510000000  0.5695830000000 1.0
C      1  0.4686110000000  0.4677950000000  0.4285120000000 1.0
C      1  0.4811500000000  0.4530680000000  0.4047950000000 1.0
C      1  0.4786610000000  0.4567330000000  0.5924740000000 1.0
C      1  0.4464340000000  0.5624190000000  0.5808110000000 1.0
C      1  0.4451120000000  0.5673280000000  0.4202290000000 1.0
C      1  0.5376180000000  0.6042450000000  0.4767750000000 1.0
C      1  0.5374210000000  0.6021550000000  0.5207400000000 1.0
C      1  0.5343750000000  0.5499270000000  0.4784930000000 1.0
C      1  0.5347760000000  0.5494420000000  0.5216680000000 1.0
C      1  0.4168920000000  0.4628600000000  0.5485710000000 1.0
C      1  0.4205660000000  0.4596610000000  0.4493020000000 1.0
C      1  0.5860250000000  0.5582100000000  0.5264080000000 1.0
C      1  0.5849070000000  0.5585890000000  0.4717620000000 1.0
C      1  0.4655550000000  0.5133230000000  0.4004200000000 1.0
C      1  0.4679230000000  0.5129570000000  0.6000450000000 1.0
C      1  0.5041970000000  0.4284380000000  0.5700550000000 1.0
C      1  0.5084600000000  0.4263000000000  0.4269120000000 1.0
C      1  0.4347230000000  0.4767460000000  0.5733840000000 1.0
C      1  0.4399410000000  0.4758030000000  0.4293740000000 1.0
C      1  0.6025660000000  0.5336100000000  0.5242780000000 1.0
C      1  0.6010720000000  0.5338280000000  0.4737990000000 1.0
C      1  0.4061590000000  0.5017460000000  0.4613450000000 1.0
C      1  0.4043540000000  0.5060300000000  0.5342860000000 1.0
C      1  0.4174340000000  0.4495190000000  0.4924480000000 1.0
C      1  0.5680640000000  0.4493420000000  0.4992070000000 1.0
C      1  0.4689140000000  0.5256420000000  0.5000000000000 1.0
C      1  0.4890390000000  0.5702860000000  0.5013130000000 1.0
C      1  0.5302690000000  0.3956580000000  0.4887220000000 1.0
C      1  0.4789050000000  0.5480140000000  0.4839590000000 1.0
C      1  0.5135450000000  0.5103990000000  0.5003180000000 1.0
C      1  0.3985970000000  0.5380650000000  0.4938020000000 1.0
C      1  0.4398440000000  0.5242030000000  0.5017610000000 1.0
C      1  0.5201290000000  0.5723860000000  0.5001210000000 1.0
C      1  0.4936530000000  0.4389060000000  0.4982780000000 1.0
C      1  0.4595080000000  0.4031780000000  0.5122250000000 1.0
C      1  0.5713850000000  0.4202240000000  0.5043380000000 1.0
C      1  0.4407330000000  0.4669860000000  0.4970630000000 1.0
C      1  0.4365550000000  0.5547520000000  0.5073580000000 1.0
C      1  0.5548150000000  0.5424750000000  0.4996780000000 1.0
C      1  0.4826330000000  0.4088820000000  0.4942780000000 1.0
C      1  0.6118400000000  0.4690660000000  0.4982590000000 1.0
C      1  0.5229230000000  0.4317840000000  0.5004900000000 1.0
C      1  0.5065070000000  0.3917570000000  0.5042910000000 1.0
C      1  0.3742970000000  0.5012440000000  0.4965850000000 1.0
C      1  0.4920800000000  0.6176040000000  0.4974520000000 1.0
C      1  0.5792790000000  0.5722960000000  0.4989410000000 1.0
C      1  0.4326240000000  0.4042820000000  0.5051020000000 1.0
C      1  0.5397390000000  0.4567810000000  0.5065190000000 1.0
C      1  0.4463550000000  0.5986780000000  0.5031190000000 1.0
C      1  0.4857710000000  0.5011970000000  0.5010660000000 1.0
C      1  0.5967140000000  0.5183990000000  0.4994190000000 1.0
C      1  0.4174930000000  0.4265650000000  0.5125160000000 1.0
C      1  0.5642850000000  0.5131370000000  0.5004570000000 1.0
C      1  0.4747020000000  0.5959170000000  0.4920200000000 1.0
C      1  0.3891810000000  0.4746130000000  0.5015850000000 1.0
C      1  0.5583620000000  0.5943690000000  0.4987180000000 1.0
C      1  0.6145690000000  0.4961920000000  0.5002830000000 1.0
C      1  0.5199420000000  0.6165680000000  0.4990410000000 1.0
C      1  0.4036710000000  0.5671400000000  0.4920530000000 1.0
C      1  0.5353620000000  0.4754040000000  0.4842190000000 1.0
END
