TITL C-3577079-311-296 -1.08542388329589e-06 125000 -575.151506685458 0 0 94 (C2v) n - 1
REM
REM in /home/bkarasulu/work/CARBON/AIRSS/Generating-Clusters/EDIP-Nigel-Params/with-SteepDescent/Higher-Symm/SD-CG/HFTN-CG
REM
REM
REM
REM
REM
REM ./C.cell (12c818d87b63d06a65506943cc24bca4)
REM
REM compiler GCC version 9.2.1 20190827 (Red Hat 9.2.1-1)
REM options -cpp -mtune=generic -march=x86-64 -g -O0 -fpre-include=/usr/include/finclude/math-vector-fortran.h
REM seed 559173735 -632146556 -1723652701 -2127571359 -395083411 -346041579 -1222539195 -1150701057 -1098973217 -1741386419 -662978577 -1821281220 -1442871127 190487640 1230966473 803861600 -1666415189 -321727212 143702680 474682604 -1763965312 -1413052357 2092133074 -1825202515 -1163820060 -506454891 1917777182 252930907 1433421482 -1276752048 -1872564529 -302234313 -900344305
REM
CELL 1.54180   50.00000   50.00000   50.00000   90.00000   90.00000   90.00000
LATT -1
SFAC C  
C      1  0.4972400000000  0.4722600000000  0.5750790000000 1.0
C      1  0.4972340000000  0.5277400000000  0.4249210000000 1.0
C      1  0.4972370000000  0.4722560000000  0.4249220000000 1.0
C      1  0.4972370000000  0.5277430000000  0.5750780000000 1.0
C      1  0.4370160000000  0.5643370000000  0.4850960000000 1.0
C      1  0.4370230000000  0.4356570000000  0.5149070000000 1.0
C      1  0.4370170000000  0.5643370000000  0.5149050000000 1.0
C      1  0.4370230000000  0.4356560000000  0.4850980000000 1.0
C      1  0.4823540000000  0.4179400000000  0.4778650000000 1.0
C      1  0.4823470000000  0.5820580000000  0.5221360000000 1.0
C      1  0.4823550000000  0.4179410000000  0.5221390000000 1.0
C      1  0.4823460000000  0.5820570000000  0.4778620000000 1.0
C      1  0.5584310000000  0.5733070000000  0.4699850000000 1.0
C      1  0.5584400000000  0.4266990000000  0.5300130000000 1.0
C      1  0.5584330000000  0.5733080000000  0.5300100000000 1.0
C      1  0.5584390000000  0.4266980000000  0.4699880000000 1.0
C      1  0.4941020000000  0.5539410000000  0.5174720000000 1.0
C      1  0.4941060000000  0.4460590000000  0.4825290000000 1.0
C      1  0.4941010000000  0.5539400000000  0.4825270000000 1.0
C      1  0.4941070000000  0.4460600000000  0.5174740000000 1.0
C      1  0.5337770000000  0.4235300000000  0.5400190000000 1.0
C      1  0.5337670000000  0.5764730000000  0.4599800000000 1.0
C      1  0.5337750000000  0.4235290000000  0.4599830000000 1.0
C      1  0.5337690000000  0.5764750000000  0.5400160000000 1.0
C      1  0.4177110000000  0.4511520000000  0.5281390000000 1.0
C      1  0.4177050000000  0.5488400000000  0.4718640000000 1.0
C      1  0.4177100000000  0.4511510000000  0.4718660000000 1.0
C      1  0.4177060000000  0.5488410000000  0.5281370000000 1.0
C      1  0.5735510000000  0.4852680000000  0.5397340000000 1.0
C      1  0.5735470000000  0.5147390000000  0.4602630000000 1.0
C      1  0.5735490000000  0.4852670000000  0.4602640000000 1.0
C      1  0.5735490000000  0.5147400000000  0.5397330000000 1.0
C      1  0.4539500000000  0.4838990000000  0.5163560000000 1.0
C      1  0.4539470000000  0.5160970000000  0.4836460000000 1.0
C      1  0.4539490000000  0.4838980000000  0.4836470000000 1.0
C      1  0.4539480000000  0.5160980000000  0.5163550000000 1.0
C      1  0.4324770000000  0.5260680000000  0.5365070000000 1.0
C      1  0.4324780000000  0.4739260000000  0.4634960000000 1.0
C      1  0.4324760000000  0.5260660000000  0.4634950000000 1.0
C      1  0.4324800000000  0.4739270000000  0.5365080000000 1.0
C      1  0.4771370000000  0.5160450000000  0.4442940000000 1.0
C      1  0.4771410000000  0.4839530000000  0.5557070000000 1.0
C      1  0.4771400000000  0.5160470000000  0.5557070000000 1.0
C      1  0.4771390000000  0.4839500000000  0.4442940000000 1.0
C      1  0.4814330000000  0.4746460000000  0.4739780000000 1.0
C      1  0.4814310000000  0.5253520000000  0.5260230000000 1.0
C      1  0.4814340000000  0.4746470000000  0.5260240000000 1.0
C      1  0.4814300000000  0.5253510000000  0.4739770000000 1.0
C      1  0.5856900000000  0.5309840000000  0.5193330000000 1.0
C      1  0.5856920000000  0.4690250000000  0.4806630000000 1.0
C      1  0.5856890000000  0.5309830000000  0.4806620000000 1.0
C      1  0.5856930000000  0.4690260000000  0.5193350000000 1.0
C      1  0.5243160000000  0.4850250000000  0.4226640000000 1.0
C      1  0.5243180000000  0.5149770000000  0.5773350000000 1.0
C      1  0.5243200000000  0.4850280000000  0.5773350000000 1.0
C      1  0.5243150000000  0.5149740000000  0.4226640000000 1.0
C      1  0.5265930000000  0.5298510000000  0.5421710000000 1.0
C      1  0.5265940000000  0.4701520000000  0.4578280000000 1.0
C      1  0.5265910000000  0.5298490000000  0.4578270000000 1.0
C      1  0.5265960000000  0.4701530000000  0.5421720000000 1.0
C      1  0.5758370000000  0.5580000000000  0.5144140000000 1.0
C      1  0.5758420000000  0.4420080000000  0.4855820000000 1.0
C      1  0.5758370000000  0.5579990000000  0.4855800000000 1.0
C      1  0.5758430000000  0.4420080000000  0.5144170000000 1.0
C      1  0.5532570000000  0.4721300000000  0.4447720000000 1.0
C      1  0.5532570000000  0.5278760000000  0.5552250000000 1.0
C      1  0.5532600000000  0.4721320000000  0.5552270000000 1.0
C      1  0.5532550000000  0.5278730000000  0.4447710000000 1.0
C      1  0.5132340000000  0.4434150000000  0.5420210000000 1.0
C      1  0.5132270000000  0.5565860000000  0.4579780000000 1.0
C      1  0.5132330000000  0.4434140000000  0.4579810000000 1.0
C      1  0.5132290000000  0.5565880000000  0.5420190000000 1.0
C      1  0.4578260000000  0.5739190000000  0.5340880000000 1.0
C      1  0.4578320000000  0.4260770000000  0.4659140000000 1.0
C      1  0.4578240000000  0.5739170000000  0.4659110000000 1.0
C      1  0.4578330000000  0.4260780000000  0.5340910000000 1.0
C      1  0.5234100000000  0.5149850000000  0.4838300000000 1.0
C      1  0.5234130000000  0.4850170000000  0.5161680000000 1.0
C      1  0.5234110000000  0.5149850000000  0.5161680000000 1.0
C      1  0.5234120000000  0.4850170000000  0.4838310000000 1.0
C      1  0.4501150000000  0.5305820000000  0.4393000000000 1.0
C      1  0.4501210000000  0.4694130000000  0.5607030000000 1.0
C      1  0.4501180000000  0.5305840000000  0.5607010000000 1.0
C      1  0.4501180000000  0.4694110000000  0.4393010000000 1.0
C      1  0.4945820000000  0.5563490000000  0.5668150000000 1.0
C      1  0.4945850000000  0.4436500000000  0.4331860000000 1.0
C      1  0.4945790000000  0.5563460000000  0.4331830000000 1.0
C      1  0.4945880000000  0.4436530000000  0.5668170000000 1.0
C      1  0.4637000000000  0.5589500000000  0.4399090000000 1.0
C      1  0.4637090000000  0.4410460000000  0.5600920000000 1.0
C      1  0.4637030000000  0.5589520000000  0.5600900000000 1.0
C      1  0.4637060000000  0.4410440000000  0.4399120000000 1.0
C      1  0.4793180000000  0.5988200000000  0.4999980000000 1.0
C      1  0.4793280000000  0.4011780000000  0.5000020000000 1.0
END
