TITL C-3577077-324-605 -6.81328612392616e-07 125000 -70.6904997274796 0 0 14 (C1) n - 1
REM
REM in /home/bkarasulu/work/CARBON/AIRSS/Generating-Clusters/EDIP-Nigel-Params/with-SteepDescent/Higher-Symm/SD-CG/HFTN-CG
REM
REM
REM
REM
REM
REM ./C.cell (12c818d87b63d06a65506943cc24bca4)
REM
REM compiler GCC version 9.2.1 20190827 (Red Hat 9.2.1-1)
REM options -cpp -mtune=generic -march=x86-64 -g -O0 -fpre-include=/usr/include/finclude/math-vector-fortran.h
REM seed -1422477495 -421341815 1259316236 1182454741 -263699827 195206599 -702073582 -672000552 -1118232236 455945449 -797843601 156665762 -26413078 -340174598 775034137 -893967837 -1623454479 -1566504220 -299063659 -1140723761 -1585912870 1464634182 -1594744594 854090359 973545238 -993872255 1927974770 -538124011 -744084530 1139030166 -64976118 336303480 -1370311138
REM
CELL 1.54180   50.00000   50.00000   50.00000   90.00000   90.00000   90.00000
LATT -1
SFAC C  
C      1  0.5269460000000  0.5088600000000  0.5018060000000 1.0
C      1  0.5278900000000  0.4956680000000  0.4755690000000 1.0
C      1  0.5059990000000  0.4782370000000  0.4718530000000 1.0
C      1  0.4988200000000  0.4710040000000  0.4981590000000 1.0
C      1  0.5006930000000  0.4980580000000  0.5109340000000 1.0
C      1  0.3765920000000  0.5082920000000  0.5157630000000 1.0
C      1  0.4015510000000  0.5069330000000  0.5103710000000 1.0
C      1  0.6007370000000  0.5122770000000  0.5087040000000 1.0
C      1  0.4271820000000  0.5057710000000  0.5042150000000 1.0
C      1  0.4792830000000  0.5038210000000  0.4905950000000 1.0
C      1  0.5507660000000  0.4932310000000  0.5064300000000 1.0
C      1  0.6246400000000  0.5212920000000  0.5098180000000 1.0
C      1  0.5755920000000  0.5043910000000  0.5070840000000 1.0
C      1  0.4529990000000  0.5042720000000  0.4988870000000 1.0
END
