TITL C-3578194-7807-544 -4.86165047204755e-07 125000 -756.347006613786 0 0 123 (C2) n - 1
REM
REM in /home/bkarasulu/work/CARBON/AIRSS/Generating-Clusters/EDIP-Nigel-Params/with-SteepDescent/Higher-Symm/SD-CG/HFTN-CG
REM
REM
REM
REM
REM
REM ./C.cell (12c818d87b63d06a65506943cc24bca4)
REM
REM compiler GCC version 9.2.1 20190827 (Red Hat 9.2.1-1)
REM options -cpp -mtune=generic -march=x86-64 -g -O0 -fpre-include=/usr/include/finclude/math-vector-fortran.h
REM seed 1406327836 -2065659475 1451265924 -713718866 1560361211 -564182726 1550281891 1679878578 -100782392 1672305977 1216215758 -1668456185 -1738792090 127137665 -958686416 382058586 608876709 -971050745 2076365786 2145894797 392698805 -393982336 219778968 -1629399723 -947299751 -656015772 1820390807 1297415499 -1753815256 -1671170980 -1032241861 2143836335 -468887018
REM
CELL 1.54180   50.00000   50.00000   50.00000   90.00000   90.00000   90.00000
LATT -1
SFAC C  
C      1  0.5336790000000  0.4923040000000  0.4145240000000 1.0
C      1  0.4637350000000  0.5066820000000  0.4157200000000 1.0
C      1  0.5336750000000  0.5070240000000  0.5832200000000 1.0
C      1  0.4637320000000  0.4926450000000  0.5820200000000 1.0
C      1  0.4960350000000  0.4579450000000  0.5325160000000 1.0
C      1  0.5051820000000  0.5452490000000  0.5342070000000 1.0
C      1  0.4960360000000  0.5413820000000  0.4652270000000 1.0
C      1  0.5051840000000  0.4540780000000  0.4635360000000 1.0
C      1  0.5514190000000  0.4901960000000  0.5149420000000 1.0
C      1  0.4462080000000  0.5065380000000  0.5134240000000 1.0
C      1  0.5514200000000  0.5091320000000  0.4828030000000 1.0
C      1  0.4462080000000  0.4927880000000  0.4843160000000 1.0
C      1  0.4076300000000  0.5325390000000  0.5185880000000 1.0
C      1  0.5929670000000  0.4692620000000  0.5203140000000 1.0
C      1  0.4076320000000  0.4667870000000  0.4791510000000 1.0
C      1  0.5929680000000  0.5300670000000  0.4774320000000 1.0
C      1  0.4578060000000  0.5127110000000  0.4651380000000 1.0
C      1  0.5403870000000  0.4883680000000  0.4636930000000 1.0
C      1  0.4578050000000  0.4866160000000  0.5326030000000 1.0
C      1  0.5403860000000  0.5109600000000  0.5340510000000 1.0
C      1  0.4337210000000  0.5640580000000  0.5410840000000 1.0
C      1  0.5677340000000  0.4362740000000  0.5421220000000 1.0
C      1  0.4337240000000  0.4352690000000  0.4566560000000 1.0
C      1  0.5677350000000  0.5630540000000  0.4556230000000 1.0
C      1  0.5218470000000  0.4732480000000  0.4829930000000 1.0
C      1  0.4799000000000  0.5240260000000  0.4854280000000 1.0
C      1  0.5218460000000  0.5260790000000  0.5147500000000 1.0
C      1  0.4798990000000  0.4753010000000  0.5123140000000 1.0
C      1  0.4961520000000  0.4751960000000  0.4424370000000 1.0
C      1  0.5023920000000  0.5216630000000  0.4425390000000 1.0
C      1  0.4961500000000  0.5241320000000  0.5553050000000 1.0
C      1  0.5023900000000  0.4776640000000  0.5552030000000 1.0
C      1  0.5384580000000  0.5878300000000  0.5080860000000 1.0
C      1  0.4612370000000  0.4045340000000  0.5067230000000 1.0
C      1  0.5384590000000  0.4114980000000  0.4896580000000 1.0
C      1  0.4612360000000  0.5947930000000  0.4910180000000 1.0
C      1  0.4584720000000  0.5600540000000  0.5586790000000 1.0
C      1  0.5424210000000  0.4375640000000  0.5601980000000 1.0
C      1  0.4584750000000  0.4392730000000  0.4390620000000 1.0
C      1  0.5424230000000  0.5617640000000  0.4375460000000 1.0
C      1  0.4337470000000  0.4492050000000  0.5624130000000 1.0
C      1  0.5625120000000  0.5482800000000  0.5611730000000 1.0
C      1  0.4337490000000  0.5501220000000  0.4353260000000 1.0
C      1  0.5625150000000  0.4510480000000  0.4365720000000 1.0
C      1  0.4942990000000  0.5354500000000  0.5834730000000 1.0
C      1  0.5038160000000  0.4647710000000  0.5827500000000 1.0
C      1  0.4943030000000  0.4638770000000  0.4142690000000 1.0
C      1  0.5038190000000  0.5345560000000  0.4149920000000 1.0
C      1  0.4765940000000  0.4969200000000  0.5548010000000 1.0
C      1  0.5206070000000  0.5034010000000  0.5559070000000 1.0
C      1  0.4765960000000  0.5024070000000  0.4429410000000 1.0
C      1  0.5206100000000  0.4959270000000  0.4418360000000 1.0
C      1  0.4801860000000  0.5620820000000  0.5802080000000 1.0
C      1  0.5180110000000  0.4380980000000  0.5795130000000 1.0
C      1  0.4801900000000  0.4372450000000  0.4175340000000 1.0
C      1  0.5180130000000  0.5612290000000  0.4182300000000 1.0
C      1  0.4498830000000  0.5393320000000  0.5781040000000 1.0
C      1  0.5497640000000  0.4585280000000  0.5798870000000 1.0
C      1  0.4498870000000  0.4599940000000  0.4196360000000 1.0
C      1  0.5497660000000  0.5408000000000  0.4178570000000 1.0
C      1  0.5318970000000  0.4119270000000  0.4627610000000 1.0
C      1  0.4752190000000  0.5870100000000  0.4673940000000 1.0
C      1  0.5318950000000  0.5874010000000  0.5349820000000 1.0
C      1  0.4752190000000  0.4123170000000  0.5303470000000 1.0
C      1  0.5176700000000  0.5130390000000  0.3977810000000 1.0
C      1  0.4791970000000  0.4858140000000  0.3984680000000 1.0
C      1  0.5176660000000  0.4862890000000  0.5999620000000 1.0
C      1  0.4791930000000  0.5135140000000  0.5992740000000 1.0
C      1  0.5375910000000  0.4431380000000  0.4261540000000 1.0
C      1  0.4609930000000  0.5550930000000  0.4302380000000 1.0
C      1  0.5375880000000  0.5561890000000  0.5715900000000 1.0
C      1  0.4609910000000  0.4442340000000  0.5675020000000 1.0
C      1  0.5645630000000  0.4767160000000  0.4471080000000 1.0
C      1  0.4332270000000  0.5245420000000  0.4469760000000 1.0
C      1  0.5645610000000  0.5226120000000  0.5506370000000 1.0
C      1  0.4332250000000  0.4747850000000  0.5507640000000 1.0
C      1  0.5401680000000  0.5385620000000  0.4908220000000 1.0
C      1  0.4630730000000  0.4584040000000  0.4899040000000 1.0
C      1  0.5401680000000  0.4607660000000  0.5069220000000 1.0
C      1  0.4630720000000  0.5409230000000  0.5078370000000 1.0
C      1  0.5847530000000  0.5387180000000  0.4504850000000 1.0
C      1  0.4154820000000  0.4589480000000  0.4519970000000 1.0
C      1  0.5847520000000  0.4606110000000  0.5472610000000 1.0
C      1  0.4154800000000  0.5403780000000  0.5457420000000 1.0
C      1  0.5646340000000  0.4759220000000  0.5630390000000 1.0
C      1  0.4340970000000  0.5229470000000  0.5612160000000 1.0
C      1  0.5646360000000  0.5234060000000  0.4347060000000 1.0
C      1  0.4341000000000  0.4763800000000  0.4365230000000 1.0
C      1  0.5633410000000  0.5031960000000  0.5729180000000 1.0
C      1  0.4342150000000  0.4957120000000  0.5717260000000 1.0
C      1  0.5633440000000  0.4961330000000  0.4248270000000 1.0
C      1  0.4342180000000  0.5036140000000  0.4260140000000 1.0
C      1  0.4737110000000  0.4639160000000  0.5864460000000 1.0
C      1  0.5241050000000  0.5357680000000  0.5888020000000 1.0
C      1  0.4737140000000  0.5354110000000  0.4112960000000 1.0
C      1  0.5241090000000  0.4635600000000  0.4089410000000 1.0
C      1  0.4359230000000  0.4425560000000  0.4872810000000 1.0
C      1  0.5662710000000  0.5561100000000  0.4864690000000 1.0
C      1  0.4359210000000  0.5567710000000  0.5104590000000 1.0
C      1  0.5662710000000  0.4432180000000  0.5112760000000 1.0
C      1  0.5644470000000  0.5806130000000  0.5009550000000 1.0
C      1  0.4372280000000  0.4181300000000  0.5021720000000 1.0
C      1  0.5644480000000  0.4187150000000  0.4967900000000 1.0
C      1  0.4372270000000  0.5811970000000  0.4955670000000 1.0
C      1  0.5159510000000  0.4189750000000  0.5073800000000 1.0
C      1  0.4880800000000  0.5831530000000  0.5039680000000 1.0
C      1  0.5159510000000  0.5803530000000  0.4903630000000 1.0
C      1  0.4880820000000  0.4161740000000  0.4937740000000 1.0
C      1  0.4152280000000  0.5058080000000  0.5127410000000 1.0
C      1  0.5810670000000  0.4937160000000  0.5121630000000 1.0
C      1  0.4152280000000  0.4935190000000  0.4849980000000 1.0
C      1  0.5810680000000  0.5056130000000  0.4855830000000 1.0
C      1  0.5204860000000  0.4443770000000  0.5223370000000 1.0
C      1  0.4821800000000  0.5586640000000  0.5210020000000 1.0
C      1  0.5204860000000  0.5549510000000  0.4754060000000 1.0
C      1  0.4821810000000  0.4406630000000  0.4767400000000 1.0
C      1  0.4761870000000  0.4382200000000  0.5425290000000 1.0
C      1  0.5206030000000  0.5665700000000  0.5497040000000 1.0
C      1  0.4761880000000  0.5611070000000  0.4552130000000 1.0
C      1  0.5206050000000  0.4327570000000  0.4480390000000 1.0
C      1  0.4980650000000  0.4995770000000  0.3829450000000 1.0
C      1  0.4980600000000  0.4997510000000  0.6147980000000 1.0
C      1  0.4998870000000  0.4996640000000  0.4988710000000 1.0
END
