TITL C-3578195-8548-354 9.01458177954842e-07 125000 -945.045204991456 0 0 149 (C1) n - 1
REM
REM in /home/bkarasulu/work/CARBON/AIRSS/Generating-Clusters/EDIP-Nigel-Params/with-SteepDescent/Higher-Symm/SD-CG/HFTN-CG
REM
REM
REM
REM
REM
REM ./C.cell (12c818d87b63d06a65506943cc24bca4)
REM
REM compiler GCC version 9.2.1 20190827 (Red Hat 9.2.1-1)
REM options -cpp -mtune=generic -march=x86-64 -g -O0 -fpre-include=/usr/include/finclude/math-vector-fortran.h
REM seed -1639222908 -1141427078 1685214540 1863450606 582637356 -945904016 1078152711 2124921567 1216451416 -964921572 2093123062 -1048354685 1887424292 -1589405236 1157315662 -1748658079 -270707374 -1848434317 1695976989 -231926869 -1000960211 1640581231 1079321273 -642580728 -1891388124 -1815992875 -579855775 -1181835159 1497859169 1794767715 806848379 563449483 1601629648
REM
CELL 1.54180   50.00000   50.00000   50.00000   90.00000   90.00000   90.00000
LATT -1
SFAC C  
C      1  0.4465820000000  0.5003160000000  0.4072390000000 1.0
C      1  0.5764160000000  0.5053490000000  0.4208250000000 1.0
C      1  0.5965100000000  0.5024310000000  0.5427210000000 1.0
C      1  0.4896580000000  0.4965050000000  0.5981330000000 1.0
C      1  0.3923420000000  0.5002280000000  0.5193800000000 1.0
C      1  0.5851950000000  0.5079820000000  0.4473550000000 1.0
C      1  0.5795280000000  0.5068320000000  0.5653050000000 1.0
C      1  0.4722930000000  0.5005890000000  0.5746220000000 1.0
C      1  0.3938680000000  0.5030560000000  0.4910680000000 1.0
C      1  0.4749690000000  0.5016130000000  0.4021920000000 1.0
C      1  0.5608790000000  0.4842770000000  0.5678050000000 1.0
C      1  0.4604090000000  0.4721550000000  0.5686020000000 1.0
C      1  0.3996200000000  0.4765680000000  0.4803690000000 1.0
C      1  0.4900360000000  0.4772680000000  0.4084310000000 1.0
C      1  0.5851750000000  0.4856630000000  0.4666430000000 1.0
C      1  0.5282920000000  0.5862850000000  0.4565270000000 1.0
C      1  0.5481480000000  0.5873910000000  0.5154450000000 1.0
C      1  0.5001550000000  0.5847950000000  0.5507460000000 1.0
C      1  0.4518660000000  0.5805400000000  0.5142480000000 1.0
C      1  0.4686900000000  0.5821380000000  0.4586280000000 1.0
C      1  0.4398020000000  0.5480340000000  0.4199310000000 1.0
C      1  0.5554690000000  0.5504400000000  0.4188480000000 1.0
C      1  0.5883180000000  0.5481450000000  0.5263330000000 1.0
C      1  0.4999160000000  0.5450640000000  0.5945040000000 1.0
C      1  0.4093530000000  0.5451980000000  0.5283740000000 1.0
C      1  0.4493910000000  0.5310010000000  0.4815930000000 1.0
C      1  0.5054890000000  0.5355990000000  0.4628000000000 1.0
C      1  0.5468630000000  0.5434850000000  0.4862350000000 1.0
C      1  0.5279660000000  0.5345920000000  0.5359340000000 1.0
C      1  0.4794920000000  0.5384790000000  0.5407240000000 1.0
C      1  0.5719900000000  0.4314150000000  0.5130650000000 1.0
C      1  0.5145370000000  0.4276640000000  0.5716590000000 1.0
C      1  0.4333460000000  0.4399110000000  0.5345310000000 1.0
C      1  0.4443640000000  0.4285820000000  0.4410220000000 1.0
C      1  0.5367510000000  0.4383080000000  0.4360580000000 1.0
C      1  0.5499880000000  0.5757670000000  0.5430900000000 1.0
C      1  0.4744730000000  0.5720390000000  0.5602630000000 1.0
C      1  0.4333360000000  0.5706570000000  0.4933010000000 1.0
C      1  0.4826130000000  0.5716430000000  0.4352090000000 1.0
C      1  0.5562290000000  0.5776000000000  0.4624450000000 1.0
C      1  0.4723540000000  0.4207330000000  0.4461790000000 1.0
C      1  0.5421370000000  0.4239600000000  0.4624060000000 1.0
C      1  0.5518600000000  0.4185480000000  0.5304720000000 1.0
C      1  0.4900040000000  0.4214860000000  0.5555710000000 1.0
C      1  0.4371260000000  0.4245310000000  0.5088100000000 1.0
C      1  0.4750640000000  0.4656180000000  0.4686720000000 1.0
C      1  0.5325130000000  0.4773480000000  0.4688400000000 1.0
C      1  0.5433330000000  0.4721050000000  0.5149950000000 1.0
C      1  0.5038800000000  0.4678340000000  0.5439470000000 1.0
C      1  0.4566230000000  0.4747660000000  0.5131550000000 1.0
C      1  0.3961030000000  0.5211700000000  0.5388210000000 1.0
C      1  0.4268930000000  0.5223620000000  0.4099600000000 1.0
C      1  0.5608730000000  0.5235330000000  0.4049930000000 1.0
C      1  0.6069360000000  0.5247790000000  0.5277940000000 1.0
C      1  0.5062110000000  0.5188980000000  0.6074750000000 1.0
C      1  0.5047480000000  0.3908410000000  0.4639890000000 1.0
C      1  0.5401420000000  0.3883180000000  0.4946990000000 1.0
C      1  0.5154120000000  0.3863830000000  0.5355440000000 1.0
C      1  0.4677970000000  0.3908260000000  0.5268640000000 1.0
C      1  0.4585630000000  0.3900200000000  0.4812830000000 1.0
C      1  0.5331960000000  0.5119880000000  0.3995900000000 1.0
C      1  0.6076830000000  0.5173350000000  0.4990720000000 1.0
C      1  0.5356860000000  0.5129350000000  0.6023520000000 1.0
C      1  0.4141610000000  0.5130120000000  0.5619450000000 1.0
C      1  0.4079920000000  0.5144760000000  0.4316550000000 1.0
C      1  0.5420880000000  0.4375920000000  0.5517060000000 1.0
C      1  0.4577960000000  0.4583230000000  0.5411660000000 1.0
C      1  0.4231780000000  0.4518410000000  0.4631290000000 1.0
C      1  0.5089730000000  0.4524130000000  0.4317490000000 1.0
C      1  0.5624210000000  0.4399490000000  0.4793690000000 1.0
C      1  0.5428000000000  0.4597580000000  0.4885850000000 1.0
C      1  0.5286360000000  0.4564100000000  0.5343770000000 1.0
C      1  0.4841830000000  0.4449970000000  0.5367830000000 1.0
C      1  0.4170540000000  0.4331760000000  0.4886640000000 1.0
C      1  0.4908750000000  0.4435970000000  0.4538270000000 1.0
C      1  0.4133060000000  0.5497790000000  0.5000210000000 1.0
C      1  0.4691290000000  0.5464060000000  0.4251730000000 1.0
C      1  0.5647930000000  0.5536770000000  0.4470660000000 1.0
C      1  0.5720340000000  0.5566120000000  0.5498330000000 1.0
C      1  0.4743930000000  0.5512050000000  0.5820820000000 1.0
C      1  0.4485290000000  0.4712310000000  0.4528630000000 1.0
C      1  0.5475300000000  0.4856330000000  0.4434040000000 1.0
C      1  0.5744730000000  0.4808620000000  0.5214970000000 1.0
C      1  0.5089790000000  0.4755270000000  0.5748970000000 1.0
C      1  0.4287510000000  0.4873890000000  0.5223930000000 1.0
C      1  0.5263020000000  0.5761850000000  0.5612230000000 1.0
C      1  0.4506060000000  0.5720220000000  0.5418530000000 1.0
C      1  0.4421430000000  0.5714600000000  0.4652380000000 1.0
C      1  0.5122750000000  0.5708400000000  0.4365640000000 1.0
C      1  0.5650180000000  0.5777910000000  0.4922890000000 1.0
C      1  0.5454700000000  0.5155500000000  0.5239000000000 1.0
C      1  0.4919180000000  0.5134530000000  0.5532740000000 1.0
C      1  0.4591660000000  0.5211240000000  0.5060700000000 1.0
C      1  0.4848150000000  0.5144480000000  0.4600820000000 1.0
C      1  0.5477130000000  0.5185490000000  0.4677000000000 1.0
C      1  0.5779560000000  0.4572220000000  0.4584200000000 1.0
C      1  0.5666020000000  0.4558560000000  0.5573800000000 1.0
C      1  0.4730840000000  0.4521930000000  0.5852400000000 1.0
C      1  0.4007440000000  0.4549140000000  0.5005920000000 1.0
C      1  0.4749130000000  0.4537660000000  0.4132950000000 1.0
C      1  0.5671140000000  0.5339670000000  0.5688730000000 1.0
C      1  0.4532890000000  0.5314710000000  0.5845000000000 1.0
C      1  0.4051290000000  0.5285430000000  0.4810390000000 1.0
C      1  0.4856800000000  0.5285030000000  0.4071270000000 1.0
C      1  0.5864060000000  0.5359110000000  0.4567990000000 1.0
C      1  0.5261540000000  0.4964760000000  0.5128880000000 1.0
C      1  0.4987480000000  0.4943340000000  0.5293370000000 1.0
C      1  0.4761690000000  0.4968920000000  0.5074740000000 1.0
C      1  0.4892450000000  0.4928840000000  0.4794710000000 1.0
C      1  0.5198750000000  0.4987110000000  0.4830450000000 1.0
C      1  0.4077530000000  0.5344920000000  0.4525760000000 1.0
C      1  0.5136310000000  0.5353450000000  0.3987470000000 1.0
C      1  0.5998600000000  0.5412800000000  0.4826310000000 1.0
C      1  0.5487430000000  0.5382890000000  0.5916880000000 1.0
C      1  0.4270970000000  0.5373870000000  0.5734900000000 1.0
C      1  0.5253370000000  0.5557860000000  0.5837210000000 1.0
C      1  0.4267820000000  0.5562060000000  0.5495570000000 1.0
C      1  0.4271330000000  0.5552080000000  0.4454180000000 1.0
C      1  0.5268060000000  0.5580120000000  0.4139510000000 1.0
C      1  0.5892410000000  0.5624660000000  0.5003190000000 1.0
C      1  0.4501200000000  0.5296090000000  0.5329680000000 1.0
C      1  0.4578400000000  0.5243540000000  0.4546720000000 1.0
C      1  0.5292550000000  0.5272690000000  0.4456730000000 1.0
C      1  0.5648130000000  0.5256680000000  0.5045720000000 1.0
C      1  0.5198540000000  0.5231320000000  0.5627870000000 1.0
C      1  0.5340420000000  0.4949460000000  0.5773200000000 1.0
C      1  0.4384440000000  0.5036760000000  0.5466840000000 1.0
C      1  0.4409840000000  0.5006270000000  0.4448650000000 1.0
C      1  0.5262170000000  0.5026280000000  0.4275070000000 1.0
C      1  0.5873090000000  0.4950490000000  0.4952000000000 1.0
C      1  0.4503450000000  0.3981530000000  0.5066590000000 1.0
C      1  0.4774430000000  0.3962740000000  0.4614700000000 1.0
C      1  0.5306770000000  0.3982520000000  0.4706900000000 1.0
C      1  0.5371790000000  0.3955470000000  0.5211620000000 1.0
C      1  0.4900530000000  0.3950280000000  0.5430480000000 1.0
C      1  0.4991800000000  0.5966960000000  0.5241480000000 1.0
C      1  0.4756360000000  0.5948750000000  0.5067940000000 1.0
C      1  0.4843190000000  0.5953030000000  0.4792590000000 1.0
C      1  0.5133750000000  0.5976680000000  0.4789930000000 1.0
C      1  0.5227790000000  0.5988220000000  0.5070750000000 1.0
C      1  0.5590930000000  0.4583830000000  0.4338310000000 1.0
C      1  0.5827840000000  0.4533570000000  0.5307640000000 1.0
C      1  0.5020920000000  0.4492910000000  0.5879810000000 1.0
C      1  0.4132680000000  0.4615700000000  0.5273190000000 1.0
C      1  0.4496780000000  0.4541740000000  0.4277450000000 1.0
C      1  0.5043770000000  0.5395210000000  0.5183750000000 1.0
C      1  0.4668620000000  0.4537990000000  0.4943690000000 1.0
C      1  0.5164050000000  0.5418970000000  0.4908650000000 1.0
C      1  0.4860930000000  0.4386430000000  0.5083150000000 1.0
END
