TITL C-3577086-586-179 -2.03049095711752e-06 125000 -1031.86062533969 0 0 167 (C1) n - 1
REM
REM in /home/bkarasulu/work/CARBON/AIRSS/Generating-Clusters/EDIP-Nigel-Params/with-SteepDescent/Higher-Symm/SD-CG/HFTN-CG
REM
REM
REM
REM
REM
REM ./C.cell (12c818d87b63d06a65506943cc24bca4)
REM
REM compiler GCC version 9.2.1 20190827 (Red Hat 9.2.1-1)
REM options -cpp -mtune=generic -march=x86-64 -g -O0 -fpre-include=/usr/include/finclude/math-vector-fortran.h
REM seed 791554616 -1860919953 1233298431 615473516 -937015895 1357040291 -503605257 330839536 -278743985 1353434819 1062855381 -1132894677 2111978875 -1046284419 500711269 972616812 148441420 345778466 454330308 -1075484548 -897611750 1015851390 -521059581 -1890200704 923932373 1153328587 -1597997538 -196826001 2029187611 58945822 -61805082 -316018980 -1827503154
REM
CELL 1.54180   50.00000   50.00000   50.00000   90.00000   90.00000   90.00000
LATT -1
SFAC C  
C      1  0.6116710000000  0.5035590000000  0.5074600000000 1.0
C      1  0.4363710000000  0.5027720000000  0.5929570000000 1.0
C      1  0.4502430000000  0.5027730000000  0.3993580000000 1.0
C      1  0.5516460000000  0.5310520000000  0.4600690000000 1.0
C      1  0.5124540000000  0.5317030000000  0.5641200000000 1.0
C      1  0.4385260000000  0.5298730000000  0.4766370000000 1.0
C      1  0.4237270000000  0.4378550000000  0.5308350000000 1.0
C      1  0.5103960000000  0.4367460000000  0.4172900000000 1.0
C      1  0.5650120000000  0.4387490000000  0.5499110000000 1.0
C      1  0.4730980000000  0.5679490000000  0.5135810000000 1.0
C      1  0.5054290000000  0.5720250000000  0.4722300000000 1.0
C      1  0.5227430000000  0.5746880000000  0.5203940000000 1.0
C      1  0.4607570000000  0.5172800000000  0.5871890000000 1.0
C      1  0.4422100000000  0.5163280000000  0.4237680000000 1.0
C      1  0.5945610000000  0.5171710000000  0.4882820000000 1.0
C      1  0.5254080000000  0.4652570000000  0.4857070000000 1.0
C      1  0.4982290000000  0.4668650000000  0.5289590000000 1.0
C      1  0.4746010000000  0.4645030000000  0.4839760000000 1.0
C      1  0.4524320000000  0.4463610000000  0.4720290000000 1.0
C      1  0.5467120000000  0.4467270000000  0.4723820000000 1.0
C      1  0.4998900000000  0.4484540000000  0.5540480000000 1.0
C      1  0.4525540000000  0.4299790000000  0.5376440000000 1.0
C      1  0.4894590000000  0.4274890000000  0.4379300000000 1.0
C      1  0.5575230000000  0.4294810000000  0.5217190000000 1.0
C      1  0.5374540000000  0.4727880000000  0.4035320000000 1.0
C      1  0.5633980000000  0.4744440000000  0.5801690000000 1.0
C      1  0.3972950000000  0.4732120000000  0.5147590000000 1.0
C      1  0.4439850000000  0.4224820000000  0.4897040000000 1.0
C      1  0.5353290000000  0.4224240000000  0.4564530000000 1.0
C      1  0.5190980000000  0.4240260000000  0.5523350000000 1.0
C      1  0.4178630000000  0.5632890000000  0.4977700000000 1.0
C      1  0.5412100000000  0.5625970000000  0.4281250000000 1.0
C      1  0.5382290000000  0.5676960000000  0.5755690000000 1.0
C      1  0.5858530000000  0.5153960000000  0.5693960000000 1.0
C      1  0.3961450000000  0.5151220000000  0.5390220000000 1.0
C      1  0.5168350000000  0.5145670000000  0.3906990000000 1.0
C      1  0.5102500000000  0.4628550000000  0.5785240000000 1.0
C      1  0.4261040000000  0.4620480000000  0.4689420000000 1.0
C      1  0.5627960000000  0.4606010000000  0.4507730000000 1.0
C      1  0.4936660000000  0.5292860000000  0.3959970000000 1.0
C      1  0.5934960000000  0.5303170000000  0.5471280000000 1.0
C      1  0.4111090000000  0.5294110000000  0.5579240000000 1.0
C      1  0.4596690000000  0.5678340000000  0.4850820000000 1.0
C      1  0.5360420000000  0.5719600000000  0.4753850000000 1.0
C      1  0.5058780000000  0.5771590000000  0.5463900000000 1.0
C      1  0.5370680000000  0.5403170000000  0.6030780000000 1.0
C      1  0.3937870000000  0.5387200000000  0.4796000000000 1.0
C      1  0.5699430000000  0.5387450000000  0.4183500000000 1.0
C      1  0.5420930000000  0.5101390000000  0.5063060000000 1.0
C      1  0.4699690000000  0.5113980000000  0.5302220000000 1.0
C      1  0.4838300000000  0.5086070000000  0.4566620000000 1.0
C      1  0.4787160000000  0.4132890000000  0.5766110000000 1.0
C      1  0.4426590000000  0.4114470000000  0.4426640000000 1.0
C      1  0.5767400000000  0.4118140000000  0.4795430000000 1.0
C      1  0.4458970000000  0.4942250000000  0.5357590000000 1.0
C      1  0.4936790000000  0.4910010000000  0.4350220000000 1.0
C      1  0.5578800000000  0.4935180000000  0.5257100000000 1.0
C      1  0.5530530000000  0.4011740000000  0.4683740000000 1.0
C      1  0.5000750000000  0.4025840000000  0.5616060000000 1.0
C      1  0.4450470000000  0.4008880000000  0.4687330000000 1.0
C      1  0.5400290000000  0.5391000000000  0.5509500000000 1.0
C      1  0.4389340000000  0.5399730000000  0.5087820000000 1.0
C      1  0.5288040000000  0.5404770000000  0.4435510000000 1.0
C      1  0.5110600000000  0.5371890000000  0.5925440000000 1.0
C      1  0.4153270000000  0.5387480000000  0.4610360000000 1.0
C      1  0.5765760000000  0.5390950000000  0.4465450000000 1.0
C      1  0.5007040000000  0.4585000000000  0.4721520000000 1.0
C      1  0.5225960000000  0.4603330000000  0.5144450000000 1.0
C      1  0.4744400000000  0.4596100000000  0.5129000000000 1.0
C      1  0.5886260000000  0.4604700000000  0.4897320000000 1.0
C      1  0.4644550000000  0.4620760000000  0.5805560000000 1.0
C      1  0.4460320000000  0.4593520000000  0.4269470000000 1.0
C      1  0.4685020000000  0.5855900000000  0.4453380000000 1.0
C      1  0.5672850000000  0.5893910000000  0.5006680000000 1.0
C      1  0.4653080000000  0.5881210000000  0.5596300000000 1.0
C      1  0.5922160000000  0.5576410000000  0.4606900000000 1.0
C      1  0.4892090000000  0.5557660000000  0.5947630000000 1.0
C      1  0.4205480000000  0.5571780000000  0.4406870000000 1.0
C      1  0.5434260000000  0.4708680000000  0.5284140000000 1.0
C      1  0.4514260000000  0.4712380000000  0.5224100000000 1.0
C      1  0.5027050000000  0.4686100000000  0.4469600000000 1.0
C      1  0.4623370000000  0.5469650000000  0.5891720000000 1.0
C      1  0.4427830000000  0.5463150000000  0.4264940000000 1.0
C      1  0.5924550000000  0.5472200000000  0.4873320000000 1.0
C      1  0.4913000000000  0.3879580000000  0.5395860000000 1.0
C      1  0.4686040000000  0.3865430000000  0.4721040000000 1.0
C      1  0.5377580000000  0.3875700000000  0.4871850000000 1.0
C      1  0.5463380000000  0.5121880000000  0.6030790000000 1.0
C      1  0.3878210000000  0.5109940000000  0.4878470000000 1.0
C      1  0.5654350000000  0.5109180000000  0.4089220000000 1.0
C      1  0.4955790000000  0.3936460000000  0.4764490000000 1.0
C      1  0.5209190000000  0.3958830000000  0.5082830000000 1.0
C      1  0.4822650000000  0.3947200000000  0.5132440000000 1.0
C      1  0.4013150000000  0.4879850000000  0.4430880000000 1.0
C      1  0.5968440000000  0.4881710000000  0.4433710000000 1.0
C      1  0.4997570000000  0.4901010000000  0.6119730000000 1.0
C      1  0.4891040000000  0.5958720000000  0.5764360000000 1.0
C      1  0.4428920000000  0.5921770000000  0.4567440000000 1.0
C      1  0.5682530000000  0.5935100000000  0.4710860000000 1.0
C      1  0.5637870000000  0.5686690000000  0.5594800000000 1.0
C      1  0.4178160000000  0.5667950000000  0.5275700000000 1.0
C      1  0.5178270000000  0.5691130000000  0.4119740000000 1.0
C      1  0.3901090000000  0.4876660000000  0.4698620000000 1.0
C      1  0.5794930000000  0.4874500000000  0.4200630000000 1.0
C      1  0.5286980000000  0.4890710000000  0.6088170000000 1.0
C      1  0.4590050000000  0.4356550000000  0.4428000000000 1.0
C      1  0.5685070000000  0.4364000000000  0.4930400000000 1.0
C      1  0.4713950000000  0.4375680000000  0.5621050000000 1.0
C      1  0.5002140000000  0.5479960000000  0.4540480000000 1.0
C      1  0.5395670000000  0.5501840000000  0.5215280000000 1.0
C      1  0.4682490000000  0.5424720000000  0.5347960000000 1.0
C      1  0.3941780000000  0.5016220000000  0.5144030000000 1.0
C      1  0.5392970000000  0.5012120000000  0.4010800000000 1.0
C      1  0.5650700000000  0.5026610000000  0.5832740000000 1.0
C      1  0.4976280000000  0.4983110000000  0.5363080000000 1.0
C      1  0.4679620000000  0.4946790000000  0.4788030000000 1.0
C      1  0.5318130000000  0.4957390000000  0.4815020000000 1.0
C      1  0.4591290000000  0.4746960000000  0.4044750000000 1.0
C      1  0.6019560000000  0.4757020000000  0.5125690000000 1.0
C      1  0.4374900000000  0.4754780000000  0.5812600000000 1.0
C      1  0.4849500000000  0.4991660000000  0.5856220000000 1.0
C      1  0.4310800000000  0.4967010000000  0.4443500000000 1.0
C      1  0.5813400000000  0.4971720000000  0.4691660000000 1.0
C      1  0.5851190000000  0.4883040000000  0.5379180000000 1.0
C      1  0.4231050000000  0.4874270000000  0.5545460000000 1.0
C      1  0.4900670000000  0.4865900000000  0.4056270000000 1.0
C      1  0.5789870000000  0.4644380000000  0.5577740000000 1.0
C      1  0.4093830000000  0.4632290000000  0.5393300000000 1.0
C      1  0.5102410000000  0.4624850000000  0.4008560000000 1.0
C      1  0.5526840000000  0.5019210000000  0.4625870000000 1.0
C      1  0.5042210000000  0.5040380000000  0.5635870000000 1.0
C      1  0.4397370000000  0.5003050000000  0.4732250000000 1.0
C      1  0.5185870000000  0.5910490000000  0.5699390000000 1.0
C      1  0.4344770000000  0.5856650000000  0.4837150000000 1.0
C      1  0.5483230000000  0.5842320000000  0.4499070000000 1.0
C      1  0.4139340000000  0.5160650000000  0.5824420000000 1.0
C      1  0.4704710000000  0.5170800000000  0.3861890000000 1.0
C      1  0.6131210000000  0.5179840000000  0.5315150000000 1.0
C      1  0.5054650000000  0.4161460000000  0.4602660000000 1.0
C      1  0.5305230000000  0.4180110000000  0.5247320000000 1.0
C      1  0.4628350000000  0.4170030000000  0.5130550000000 1.0
C      1  0.4494680000000  0.5637180000000  0.5680230000000 1.0
C      1  0.4689580000000  0.5622740000000  0.4266180000000 1.0
C      1  0.5800770000000  0.5636480000000  0.5099900000000 1.0
C      1  0.5432760000000  0.4322920000000  0.5697940000000 1.0
C      1  0.4170320000000  0.4312710000000  0.5021950000000 1.0
C      1  0.5384310000000  0.4307350000000  0.4267450000000 1.0
C      1  0.5487380000000  0.5441640000000  0.4880520000000 1.0
C      1  0.4905780000000  0.5518790000000  0.5561220000000 1.0
C      1  0.4651420000000  0.5424670000000  0.4638150000000 1.0
C      1  0.4919300000000  0.5940620000000  0.4589670000000 1.0
C      1  0.5414800000000  0.5951030000000  0.5115170000000 1.0
C      1  0.4677540000000  0.5909510000000  0.5311510000000 1.0
C      1  0.5565710000000  0.4558030000000  0.4209400000000 1.0
C      1  0.5389590000000  0.4574990000000  0.5882110000000 1.0
C      1  0.4027910000000  0.4562800000000  0.4895860000000 1.0
C      1  0.4735530000000  0.5134350000000  0.5015140000000 1.0
C      1  0.5085020000000  0.5156160000000  0.4734270000000 1.0
C      1  0.5160910000000  0.5187400000000  0.5200550000000 1.0
C      1  0.4284110000000  0.5518130000000  0.5499270000000 1.0
C      1  0.4934180000000  0.5545450000000  0.4110740000000 1.0
C      1  0.5795340000000  0.5547700000000  0.5388560000000 1.0
C      1  0.4171600000000  0.4605190000000  0.4381000000000 1.0
C      1  0.5922810000000  0.4611430000000  0.4587010000000 1.0
C      1  0.4886750000000  0.4630740000000  0.6000380000000 1.0
C      1  0.5003980000000  0.5702030000000  0.5018400000000 1.0
C      1  0.4986100000000  0.5262480000000  0.4980890000000 1.0
END
