TITL C-3578208-4450-533 -2.90615206885958e-06 125000 -643.124955154756 0 0 103 (C1) n - 1
REM
REM in /home/bkarasulu/work/CARBON/AIRSS/Generating-Clusters/EDIP-Nigel-Params/with-SteepDescent/Higher-Symm/SD-CG/HFTN-CG
REM
REM
REM
REM
REM
REM ./C.cell (12c818d87b63d06a65506943cc24bca4)
REM
REM compiler GCC version 9.2.1 20190827 (Red Hat 9.2.1-1)
REM options -cpp -mtune=generic -march=x86-64 -g -O0 -fpre-include=/usr/include/finclude/math-vector-fortran.h
REM seed -1447273796 -529307644 137660108 2000210773 -1350725735 120129911 -1719214843 1594901412 -1275431956 1349667826 1335041188 -881734345 1309114973 -558196132 -1679366278 3199763 1800029464 1107363518 1279047919 261517555 1346055849 -243848161 2033203014 -89478349 -611949816 -981356063 -1716437822 152159235 2093218969 -1552022531 -883773876 1561941446 99062667
REM
CELL 1.54180   50.00000   50.00000   50.00000   90.00000   90.00000   90.00000
LATT -1
SFAC C  
C      1  0.4346230000000  0.5197370000000  0.4375010000000 1.0
C      1  0.5181300000000  0.5358860000000  0.5298140000000 1.0
C      1  0.4713790000000  0.4883620000000  0.5034670000000 1.0
C      1  0.5657760000000  0.5155330000000  0.5520940000000 1.0
C      1  0.5619070000000  0.5264040000000  0.4506470000000 1.0
C      1  0.5508470000000  0.4531470000000  0.5552020000000 1.0
C      1  0.4948730000000  0.4482270000000  0.5167910000000 1.0
C      1  0.5490490000000  0.5447780000000  0.4721070000000 1.0
C      1  0.5364420000000  0.4758410000000  0.5692220000000 1.0
C      1  0.4708640000000  0.4651500000000  0.5220970000000 1.0
C      1  0.5676390000000  0.4586270000000  0.5309810000000 1.0
C      1  0.5072390000000  0.5459300000000  0.5031910000000 1.0
C      1  0.5465620000000  0.5034940000000  0.5727840000000 1.0
C      1  0.5012370000000  0.4466940000000  0.4455770000000 1.0
C      1  0.4691960000000  0.5138690000000  0.5183850000000 1.0
C      1  0.4642250000000  0.5280910000000  0.4401000000000 1.0
C      1  0.4508080000000  0.4378650000000  0.4802410000000 1.0
C      1  0.5188210000000  0.4231740000000  0.4544350000000 1.0
C      1  0.5668770000000  0.4956910000000  0.4849090000000 1.0
C      1  0.4937250000000  0.4131380000000  0.5425200000000 1.0
C      1  0.4904780000000  0.5854740000000  0.4770190000000 1.0
C      1  0.5089110000000  0.5386560000000  0.5678930000000 1.0
C      1  0.5694440000000  0.5497910000000  0.5103150000000 1.0
C      1  0.5587630000000  0.5739140000000  0.5008760000000 1.0
C      1  0.5061170000000  0.5925490000000  0.5222190000000 1.0
C      1  0.4656530000000  0.5585320000000  0.4447240000000 1.0
C      1  0.4875310000000  0.4585490000000  0.5696320000000 1.0
C      1  0.5174070000000  0.5663410000000  0.5609430000000 1.0
C      1  0.5413060000000  0.5630430000000  0.5455330000000 1.0
C      1  0.4919760000000  0.5678710000000  0.4545240000000 1.0
C      1  0.5399240000000  0.4775910000000  0.4429880000000 1.0
C      1  0.4430460000000  0.4809930000000  0.5568400000000 1.0
C      1  0.4642760000000  0.4135050000000  0.4791260000000 1.0
C      1  0.4906950000000  0.5128650000000  0.4209970000000 1.0
C      1  0.5634640000000  0.5061640000000  0.5141820000000 1.0
C      1  0.4737780000000  0.4166910000000  0.5221960000000 1.0
C      1  0.4588450000000  0.5616290000000  0.5054030000000 1.0
C      1  0.4301220000000  0.4912950000000  0.4316910000000 1.0
C      1  0.4625980000000  0.5842710000000  0.4852530000000 1.0
C      1  0.4891990000000  0.5077020000000  0.5432330000000 1.0
C      1  0.5159420000000  0.4671140000000  0.4295170000000 1.0
C      1  0.4300430000000  0.4727950000000  0.5065240000000 1.0
C      1  0.5059810000000  0.4761850000000  0.4709590000000 1.0
C      1  0.4159960000000  0.5146150000000  0.4817950000000 1.0
C      1  0.4898410000000  0.4309660000000  0.5640460000000 1.0
C      1  0.5721830000000  0.4521780000000  0.4788090000000 1.0
C      1  0.5243280000000  0.5289050000000  0.4823040000000 1.0
C      1  0.4717010000000  0.4483720000000  0.4378040000000 1.0
C      1  0.4461400000000  0.5057850000000  0.5727560000000 1.0
C      1  0.5418400000000  0.5073310000000  0.4387900000000 1.0
C      1  0.4465710000000  0.4809300000000  0.4117380000000 1.0
C      1  0.5149440000000  0.4082760000000  0.4798000000000 1.0
C      1  0.5454290000000  0.4288850000000  0.4488030000000 1.0
C      1  0.5104960000000  0.5779200000000  0.4978470000000 1.0
C      1  0.5218860000000  0.5491540000000  0.4209120000000 1.0
C      1  0.4314970000000  0.5555230000000  0.4970150000000 1.0
C      1  0.5772870000000  0.4863030000000  0.5316590000000 1.0
C      1  0.5157400000000  0.5236630000000  0.4333720000000 1.0
C      1  0.5212810000000  0.4159730000000  0.5321960000000 1.0
C      1  0.5569790000000  0.4538980000000  0.4533040000000 1.0
C      1  0.4280150000000  0.4883960000000  0.5318220000000 1.0
C      1  0.5105130000000  0.4718330000000  0.5837990000000 1.0
C      1  0.4303350000000  0.4743600000000  0.4562540000000 1.0
C      1  0.5334670000000  0.5109240000000  0.5220490000000 1.0
C      1  0.4771130000000  0.5185200000000  0.4676850000000 1.0
C      1  0.4464730000000  0.5695790000000  0.4642200000000 1.0
C      1  0.4367770000000  0.4442910000000  0.5048650000000 1.0
C      1  0.4944260000000  0.4838970000000  0.4172260000000 1.0
C      1  0.4633010000000  0.5476450000000  0.5557870000000 1.0
C      1  0.4224200000000  0.5300040000000  0.5054360000000 1.0
C      1  0.4770080000000  0.4866570000000  0.4744360000000 1.0
C      1  0.5148550000000  0.4924990000000  0.5343770000000 1.0
C      1  0.5024960000000  0.4991230000000  0.5929640000000 1.0
C      1  0.4761120000000  0.5095490000000  0.5800500000000 1.0
C      1  0.5334490000000  0.4645710000000  0.5030090000000 1.0
C      1  0.4772660000000  0.5372740000000  0.4992520000000 1.0
C      1  0.4507710000000  0.4331320000000  0.5273010000000 1.0
C      1  0.5093370000000  0.4504190000000  0.4881740000000 1.0
C      1  0.5051990000000  0.5261380000000  0.4608890000000 1.0
C      1  0.4566500000000  0.4606320000000  0.4613690000000 1.0
C      1  0.4695280000000  0.5734740000000  0.5466370000000 1.0
C      1  0.4400400000000  0.5295010000000  0.5543530000000 1.0
C      1  0.4165720000000  0.5282280000000  0.4573270000000 1.0
C      1  0.4214930000000  0.4862410000000  0.4817830000000 1.0
C      1  0.5566190000000  0.4453890000000  0.5037930000000 1.0
C      1  0.5413830000000  0.5718520000000  0.4589680000000 1.0
C      1  0.5318190000000  0.4964990000000  0.4806410000000 1.0
C      1  0.4965920000000  0.5823640000000  0.5463640000000 1.0
C      1  0.5850190000000  0.5360400000000  0.4912910000000 1.0
C      1  0.5242920000000  0.5190420000000  0.5851830000000 1.0
C      1  0.5177630000000  0.5685120000000  0.4407010000000 1.0
C      1  0.5813180000000  0.5167010000000  0.4706110000000 1.0
C      1  0.4385150000000  0.5163570000000  0.5273030000000 1.0
C      1  0.4725060000000  0.4772420000000  0.5500610000000 1.0
C      1  0.5869060000000  0.4747360000000  0.4838530000000 1.0
C      1  0.5604050000000  0.5428340000000  0.5375990000000 1.0
C      1  0.5353670000000  0.4300000000000  0.5516850000000 1.0
C      1  0.4879890000000  0.4014550000000  0.4832130000000 1.0
C      1  0.4811770000000  0.5373580000000  0.5748610000000 1.0
C      1  0.5373640000000  0.5845320000000  0.4859020000000 1.0
C      1  0.5310260000000  0.4203220000000  0.5037700000000 1.0
C      1  0.4704940000000  0.4670320000000  0.4147610000000 1.0
C      1  0.5199770000000  0.4630080000000  0.5307800000000 1.0
END
