TITL C-3577084-3642-753 2.26306235648205e-06 125000 -982.870859818271 0 0 160 (C5) n - 1
REM
REM in /home/bkarasulu/work/CARBON/AIRSS/Generating-Clusters/EDIP-Nigel-Params/with-SteepDescent/Higher-Symm/SD-CG/HFTN-CG
REM
REM
REM
REM
REM
REM ./C.cell (12c818d87b63d06a65506943cc24bca4)
REM
REM compiler GCC version 9.2.1 20190827 (Red Hat 9.2.1-1)
REM options -cpp -mtune=generic -march=x86-64 -g -O0 -fpre-include=/usr/include/finclude/math-vector-fortran.h
REM seed -15159346 -524414404 1250315948 905060766 -7741074 1739398704 -1132865776 1640132354 1698520276 931562088 1269533110 -1971433084 1369742061 1671160561 192621110 -1986641037 -186650062 -580355377 -1500377090 1570964136 500646974 -1732958555 -128760420 700796453 1547296982 -149791774 2038356454 -2026409251 -771238792 -432640677 1804863381 -1271152209 -1341377079
REM
CELL 1.54180   50.00000   50.00000   50.00000   90.00000   90.00000   90.00000
LATT -1
SFAC C  
C      1  0.5535160000000  0.4723140000000  0.5216130000000 1.0
C      1  0.4959820000000  0.4723140000000  0.5575760000000 1.0
C      1  0.4440000000000  0.4723150000000  0.5139710000000 1.0
C      1  0.4694070000000  0.4723150000000  0.4510580000000 1.0
C      1  0.5370920000000  0.4723140000000  0.4557810000000 1.0
C      1  0.5740120000000  0.4975760000000  0.5648130000000 1.0
C      1  0.4612300000000  0.4975770000000  0.5904180000000 1.0
C      1  0.4020270000000  0.4975790000000  0.4910690000000 1.0
C      1  0.4782190000000  0.4975780000000  0.4040620000000 1.0
C      1  0.5845120000000  0.4975760000000  0.4496380000000 1.0
C      1  0.5830980000000  0.5504100000000  0.5366480000000 1.0
C      1  0.4908250000000  0.5504110000000  0.5903550000000 1.0
C      1  0.4112330000000  0.5504130000000  0.5191950000000 1.0
C      1  0.4543150000000  0.5504120000000  0.4215080000000 1.0
C      1  0.5605330000000  0.5504110000000  0.4322950000000 1.0
C      1  0.5128250000000  0.5362590000000  0.6040520000000 1.0
C      1  0.4050040000000  0.5362610000000  0.5443510000000 1.0
C      1  0.4284650000000  0.5362610000000  0.4233590000000 1.0
C      1  0.5507850000000  0.5362590000000  0.4082820000000 1.0
C      1  0.6029230000000  0.5362580000000  0.5199570000000 1.0
C      1  0.5353080000000  0.4240010000000  0.5020510000000 1.0
C      1  0.5089590000000  0.4240010000000  0.5342140000000 1.0
C      1  0.4702280000000  0.4240020000000  0.5190940000000 1.0
C      1  0.4726390000000  0.4240020000000  0.4775860000000 1.0
C      1  0.5128610000000  0.4240010000000  0.4670530000000 1.0
C      1  0.5406730000000  0.5836640000000  0.4653540000000 1.0
C      1  0.5455200000000  0.5836640000000  0.5279750000000 1.0
C      1  0.4874610000000  0.5836650000000  0.5519360000000 1.0
C      1  0.4467320000000  0.5836660000000  0.5041230000000 1.0
C      1  0.4796190000000  0.5836650000000  0.4506130000000 1.0
C      1  0.5823820000000  0.4590850000000  0.5276320000000 1.0
C      1  0.4991770000000  0.4590860000000  0.5868890000000 1.0
C      1  0.4171080000000  0.4590870000000  0.5260680000000 1.0
C      1  0.4495920000000  0.4590870000000  0.4292210000000 1.0
C      1  0.5517370000000  0.4590860000000  0.4301880000000 1.0
C      1  0.5656820000000  0.5199070000000  0.5032560000000 1.0
C      1  0.5172010000000  0.5199070000000  0.5634730000000 1.0
C      1  0.4449490000000  0.5199080000000  0.5359730000000 1.0
C      1  0.4487760000000  0.5199090000000  0.4587590000000 1.0
C      1  0.5233930000000  0.5199080000000  0.4385390000000 1.0
C      1  0.5446470000000  0.5827680000000  0.5558960000000 1.0
C      1  0.4606370000000  0.5827700000000  0.5597340000000 1.0
C      1  0.4310270000000  0.5827700000000  0.4810220000000 1.0
C      1  0.4967370000000  0.5827700000000  0.4285370000000 1.0
C      1  0.5669580000000  0.5827680000000  0.4748120000000 1.0
C      1  0.4323010000000  0.4987350000000  0.5901280000000 1.0
C      1  0.3933630000000  0.4987360000000  0.4634660000000 1.0
C      1  0.5017930000000  0.4987350000000  0.3872930000000 1.0
C      1  0.6077450000000  0.4987330000000  0.4668770000000 1.0
C      1  0.5647970000000  0.4987330000000  0.5922360000000 1.0
C      1  0.4855150000000  0.5493110000000  0.4773590000000 1.0
C      1  0.5170570000000  0.5493110000000  0.4792270000000 1.0
C      1  0.5250280000000  0.5493100000000  0.5098020000000 1.0
C      1  0.4984120000000  0.5493110000000  0.5268320000000 1.0
C      1  0.4739920000000  0.5493110000000  0.5067810000000 1.0
C      1  0.4305840000000  0.4862580000000  0.4897060000000 1.0
C      1  0.4883400000000  0.4862580000000  0.4308000000000 1.0
C      1  0.5622090000000  0.4862570000000  0.4675270000000 1.0
C      1  0.5501080000000  0.4862560000000  0.5491300000000 1.0
C      1  0.4687590000000  0.4862580000000  0.5628370000000 1.0
C      1  0.5287330000000  0.5230050000000  0.4680540000000 1.0
C      1  0.5392610000000  0.5230050000000  0.5174550000000 1.0
C      1  0.4955320000000  0.5230060000000  0.5427340000000 1.0
C      1  0.4579780000000  0.5230060000000  0.5089560000000 1.0
C      1  0.4784970000000  0.5230060000000  0.4628020000000 1.0
C      1  0.4273660000000  0.4810940000000  0.4238890000000 1.0
C      1  0.5499410000000  0.4810920000000  0.4074010000000 1.0
C      1  0.6034990000000  0.4810910000000  0.5188820000000 1.0
C      1  0.5140250000000  0.4810920000000  0.6042680000000 1.0
C      1  0.4051690000000  0.4810940000000  0.5455590000000 1.0
C      1  0.4748060000000  0.5928620000000  0.5020370000000 1.0
C      1  0.4902780000000  0.5928620000000  0.4766670000000 1.0
C      1  0.5191870000000  0.5928610000000  0.4835430000000 1.0
C      1  0.5215820000000  0.5928610000000  0.5131620000000 1.0
C      1  0.4941530000000  0.5928610000000  0.5245920000000 1.0
C      1  0.4295840000000  0.4392600000000  0.5444300000000 1.0
C      1  0.4359840000000  0.4392610000000  0.4467610000000 1.0
C      1  0.5308510000000  0.4392590000000  0.4226660000000 1.0
C      1  0.5830810000000  0.4392580000000  0.5054440000000 1.0
C      1  0.5204950000000  0.4392590000000  0.5806980000000 1.0
C      1  0.5027290000000  0.5084540000000  0.5976120000000 1.0
C      1  0.4080090000000  0.5084550000000  0.5327590000000 1.0
C      1  0.4404170000000  0.5084550000000  0.4226340000000 1.0
C      1  0.5551680000000  0.5084530000000  0.4194260000000 1.0
C      1  0.5936780000000  0.5084530000000  0.5275690000000 1.0
C      1  0.4798170000000  0.4207520000000  0.5731240000000 1.0
C      1  0.4242170000000  0.4207530000000  0.5034020000000 1.0
C      1  0.4733450000000  0.4207520000000  0.4289790000000 1.0
C      1  0.5593080000000  0.4207510000000  0.4527040000000 1.0
C      1  0.5633070000000  0.4207500000000  0.5417900000000 1.0
C      1  0.4249450000000  0.4773190000000  0.5697090000000 1.0
C      1  0.4105100000000  0.4773190000000  0.4501600000000 1.0
C      1  0.5197460000000  0.4773180000000  0.3994890000000 1.0
C      1  0.6016940000000  0.4773160000000  0.4877200000000 1.0
C      1  0.5431040000000  0.4773170000000  0.5929220000000 1.0
C      1  0.5325440000000  0.4206370000000  0.4446440000000 1.0
C      1  0.5627020000000  0.4206370000000  0.5138460000000 1.0
C      1  0.5062060000000  0.4206370000000  0.5639130000000 1.0
C      1  0.4411320000000  0.4206380000000  0.5256540000000 1.0
C      1  0.4574100000000  0.4206380000000  0.4519420000000 1.0
C      1  0.4238790000000  0.5454220000000  0.5651690000000 1.0
C      1  0.4144980000000  0.5454230000000  0.4477430000000 1.0
C      1  0.5232790000000  0.5454210000000  0.4025340000000 1.0
C      1  0.5998890000000  0.5454200000000  0.4920200000000 1.0
C      1  0.5384570000000  0.5454210000000  0.5925340000000 1.0
C      1  0.4472420000000  0.4898460000000  0.5400250000000 1.0
C      1  0.4456310000000  0.4898460000000  0.4621920000000 1.0
C      1  0.5191560000000  0.4898450000000  0.4366090000000 1.0
C      1  0.5662080000000  0.4898440000000  0.4986290000000 1.0
C      1  0.5217630000000  0.4898450000000  0.5625440000000 1.0
C      1  0.6092710000000  0.5259010000000  0.4739410000000 1.0
C      1  0.5585500000000  0.5259010000000  0.5958700000000 1.0
C      1  0.4269150000000  0.5259030000000  0.5853100000000 1.0
C      1  0.3962810000000  0.5259040000000  0.4568540000000 1.0
C      1  0.5089840000000  0.5259020000000  0.3880250000000 1.0
C      1  0.4421240000000  0.4518120000000  0.5678810000000 1.0
C      1  0.4175560000000  0.4518130000000  0.4659330000000 1.0
C      1  0.5069220000000  0.4518120000000  0.4110650000000 1.0
C      1  0.5867210000000  0.4518110000000  0.4791010000000 1.0
C      1  0.5466730000000  0.4518110000000  0.5760190000000 1.0
C      1  0.5145310000000  0.5614630000000  0.4261680000000 1.0
C      1  0.5747100000000  0.5614620000000  0.4910040000000 1.0
C      1  0.5316430000000  0.5614620000000  0.5682720000000 1.0
C      1  0.4448480000000  0.5614640000000  0.5511910000000 1.0
C      1  0.4342720000000  0.5614640000000  0.4633660000000 1.0
C      1  0.5359360000000  0.5613170000000  0.4462990000000 1.0
C      1  0.5621790000000  0.5613160000000  0.5175820000000 1.0
C      1  0.5024930000000  0.5613170000000  0.5645680000000 1.0
C      1  0.4393630000000  0.5613180000000  0.5223230000000 1.0
C      1  0.4600320000000  0.5613180000000  0.4492290000000 1.0
C      1  0.4687960000000  0.5246450000000  0.5562380000000 1.0
C      1  0.4368720000000  0.5246460000000  0.4877010000000 1.0
C      1  0.4921900000000  0.5246450000000  0.4361610000000 1.0
C      1  0.5583010000000  0.5246440000000  0.4728440000000 1.0
C      1  0.5438430000000  0.5246440000000  0.5470560000000 1.0
C      1  0.5767680000000  0.4423120000000  0.4532010000000 1.0
C      1  0.5682300000000  0.4423110000000  0.5585500000000 1.0
C      1  0.4653990000000  0.4423130000000  0.5829850000000 1.0
C      1  0.4103840000000  0.4423140000000  0.4927370000000 1.0
C      1  0.4792140000000  0.4423130000000  0.4125260000000 1.0
C      1  0.5238210000000  0.4960910000000  0.5103330000000 1.0
C      1  0.4975340000000  0.4960910000000  0.5258480000000 1.0
C      1  0.4746540000000  0.4960910000000  0.5056420000000 1.0
C      1  0.4868020000000  0.4960910000000  0.4776390000000 1.0
C      1  0.5171890000000  0.4960910000000  0.4805380000000 1.0
C      1  0.4700830000000  0.5273360000000  0.5868990000000 1.0
C      1  0.4081100000000  0.5273370000000  0.4984000000000 1.0
C      1  0.4731260000000  0.5273370000000  0.4121120000000 1.0
C      1  0.5752820000000  0.5273350000000  0.4472820000000 1.0
C      1  0.5734010000000  0.5273350000000  0.5553060000000 1.0
C      1  0.5057670000000  0.3950930000000  0.4759280000000 1.0
C      1  0.5246750000000  0.3950920000000  0.4980470000000 1.0
C      1  0.5094810000000  0.3950920000000  0.5228650000000 1.0
C      1  0.4811830000000  0.3950930000000  0.5160840000000 1.0
C      1  0.4788870000000  0.3950930000000  0.4870750000000 1.0
C      1  0.4832680000000  0.4550880000000  0.5199770000000 1.0
C      1  0.4758300000000  0.4550880000000  0.4902610000000 1.0
C      1  0.5017930000000  0.4550880000000  0.4740030000000 1.0
C      1  0.5252780000000  0.4550870000000  0.4936720000000 1.0
C      1  0.5138290000000  0.4550880000000  0.5220860000000 1.0
END
