TITL C-3578205-846-175 -2.71597238495091e-06 125000 -581.369250397793 0 0 94 (C1) n - 1
REM
REM in /home/bkarasulu/work/CARBON/AIRSS/Generating-Clusters/EDIP-Nigel-Params/with-SteepDescent/Higher-Symm/SD-CG/HFTN-CG
REM
REM
REM
REM
REM
REM ./C.cell (12c818d87b63d06a65506943cc24bca4)
REM
REM compiler GCC version 9.2.1 20190827 (Red Hat 9.2.1-1)
REM options -cpp -mtune=generic -march=x86-64 -g -O0 -fpre-include=/usr/include/finclude/math-vector-fortran.h
REM seed -1933516604 -902088929 -1073456629 -1166204455 -1398061261 1999344936 1029496433 319380943 226561883 -1995682635 254873264 -845094583 -2144227270 1287506500 1853694759 932165198 2102685766 -1962402847 -1921105032 -18702068 1393887581 -5067514 -726025599 -614983267 286260457 -1807765510 -1052222565 -31391910 41728475 -1941295925 427166128 1629334287 -1277431967
REM
CELL 1.54180   50.00000   50.00000   50.00000   90.00000   90.00000   90.00000
LATT -1
SFAC C  
C      1  0.5206230000000  0.4665850000000  0.5172280000000 1.0
C      1  0.4728960000000  0.4757010000000  0.5126780000000 1.0
C      1  0.4926850000000  0.4546240000000  0.4792570000000 1.0
C      1  0.4855300000000  0.5239720000000  0.5029630000000 1.0
C      1  0.5309200000000  0.5235420000000  0.5207020000000 1.0
C      1  0.5064400000000  0.5405210000000  0.4620340000000 1.0
C      1  0.5276560000000  0.5544650000000  0.5175120000000 1.0
C      1  0.4868440000000  0.5536440000000  0.5035530000000 1.0
C      1  0.4866330000000  0.5608950000000  0.4750730000000 1.0
C      1  0.4799560000000  0.4461650000000  0.5071730000000 1.0
C      1  0.5068110000000  0.4399350000000  0.5261270000000 1.0
C      1  0.4995020000000  0.4315240000000  0.4615440000000 1.0
C      1  0.4973200000000  0.5142100000000  0.4750820000000 1.0
C      1  0.5421430000000  0.5088660000000  0.4937280000000 1.0
C      1  0.5007010000000  0.5134500000000  0.5274430000000 1.0
C      1  0.5193640000000  0.4680340000000  0.4866510000000 1.0
C      1  0.4644120000000  0.4777180000000  0.4735210000000 1.0
C      1  0.4986750000000  0.4845670000000  0.5255010000000 1.0
C      1  0.5404230000000  0.5013860000000  0.4178710000000 1.0
C      1  0.5350570000000  0.4915440000000  0.5737160000000 1.0
C      1  0.4276240000000  0.4777530000000  0.5090990000000 1.0
C      1  0.4523900000000  0.5095880000000  0.4282380000000 1.0
C      1  0.4591220000000  0.5264110000000  0.5665430000000 1.0
C      1  0.5794910000000  0.5155430000000  0.5180870000000 1.0
C      1  0.5052640000000  0.5258840000000  0.5961740000000 1.0
C      1  0.4057700000000  0.5136160000000  0.4719160000000 1.0
C      1  0.5744900000000  0.5201570000000  0.4544030000000 1.0
C      1  0.4821830000000  0.4886460000000  0.6015600000000 1.0
C      1  0.5837690000000  0.4772450000000  0.4613510000000 1.0
C      1  0.4245220000000  0.4778130000000  0.4542330000000 1.0
C      1  0.4859450000000  0.4505410000000  0.5739160000000 1.0
C      1  0.4537380000000  0.4418760000000  0.4549900000000 1.0
C      1  0.5426650000000  0.4532360000000  0.4726540000000 1.0
C      1  0.5206920000000  0.5618220000000  0.5687780000000 1.0
C      1  0.5379000000000  0.5500420000000  0.4673730000000 1.0
C      1  0.4359660000000  0.5523570000000  0.4819160000000 1.0
C      1  0.5833600000000  0.4699080000000  0.4896200000000 1.0
C      1  0.4602840000000  0.4905990000000  0.5817010000000 1.0
C      1  0.4429370000000  0.4828210000000  0.4328110000000 1.0
C      1  0.4072940000000  0.5096790000000  0.5005690000000 1.0
C      1  0.5315600000000  0.5177460000000  0.5870430000000 1.0
C      1  0.5616860000000  0.5288550000000  0.4301120000000 1.0
C      1  0.4834180000000  0.5634650000000  0.5399630000000 1.0
C      1  0.4549040000000  0.5564080000000  0.4372140000000 1.0
C      1  0.5635800000000  0.5636490000000  0.5083450000000 1.0
C      1  0.5326060000000  0.4429560000000  0.5688610000000 1.0
C      1  0.5289050000000  0.4513020000000  0.4276890000000 1.0
C      1  0.4548780000000  0.4303540000000  0.4990510000000 1.0
C      1  0.5271420000000  0.4658030000000  0.5853320000000 1.0
C      1  0.4299850000000  0.4489930000000  0.4954730000000 1.0
C      1  0.5474120000000  0.4734230000000  0.4273320000000 1.0
C      1  0.4737100000000  0.5522220000000  0.5659800000000 1.0
C      1  0.5767130000000  0.5393150000000  0.4992190000000 1.0
C      1  0.4393770000000  0.5328670000000  0.4381710000000 1.0
C      1  0.5644830000000  0.5393100000000  0.5574870000000 1.0
C      1  0.4418910000000  0.5324580000000  0.5243980000000 1.0
C      1  0.5241100000000  0.5556490000000  0.4206760000000 1.0
C      1  0.4449810000000  0.4567690000000  0.5481910000000 1.0
C      1  0.5625590000000  0.4459270000000  0.5224310000000 1.0
C      1  0.4869980000000  0.4648450000000  0.4213130000000 1.0
C      1  0.5648580000000  0.4896770000000  0.5050290000000 1.0
C      1  0.4680200000000  0.5060360000000  0.5473000000000 1.0
C      1  0.4777380000000  0.4990600000000  0.4554260000000 1.0
C      1  0.4424320000000  0.4967860000000  0.4893630000000 1.0
C      1  0.5537940000000  0.4904940000000  0.5517790000000 1.0
C      1  0.5120020000000  0.5083580000000  0.4221330000000 1.0
C      1  0.5580820000000  0.5290430000000  0.4778060000000 1.0
C      1  0.4972790000000  0.5521840000000  0.5847230000000 1.0
C      1  0.4281880000000  0.5303180000000  0.4647480000000 1.0
C      1  0.4291480000000  0.4521120000000  0.4662570000000 1.0
C      1  0.4990760000000  0.4646690000000  0.5958660000000 1.0
C      1  0.5558820000000  0.4737570000000  0.4550910000000 1.0
C      1  0.5072910000000  0.4384300000000  0.5564130000000 1.0
C      1  0.4646100000000  0.4206790000000  0.4724730000000 1.0
C      1  0.5269870000000  0.4360910000000  0.4520900000000 1.0
C      1  0.5122740000000  0.5684150000000  0.5406220000000 1.0
C      1  0.5398660000000  0.5692910000000  0.4912860000000 1.0
C      1  0.4584710000000  0.5627990000000  0.4647960000000 1.0
C      1  0.4489230000000  0.4797420000000  0.5313860000000 1.0
C      1  0.4967150000000  0.4873720000000  0.4357390000000 1.0
C      1  0.5504050000000  0.4722510000000  0.5266340000000 1.0
C      1  0.5574700000000  0.5177960000000  0.5391780000000 1.0
C      1  0.5061070000000  0.5366610000000  0.4316740000000 1.0
C      1  0.4572920000000  0.5166260000000  0.5064060000000 1.0
C      1  0.5466080000000  0.5532240000000  0.4375370000000 1.0
C      1  0.5414940000000  0.5413720000000  0.5731110000000 1.0
C      1  0.4176360000000  0.5352960000000  0.5107440000000 1.0
C      1  0.4616040000000  0.4606210000000  0.4329060000000 1.0
C      1  0.4595190000000  0.4627080000000  0.5708380000000 1.0
C      1  0.5658580000000  0.4458830000000  0.4939460000000 1.0
C      1  0.3999930000000  0.4912900000000  0.4560860000000 1.0
C      1  0.5955390000000  0.5016180000000  0.4549110000000 1.0
C      1  0.4916890000000  0.5109790000000  0.6158670000000 1.0
C      1  0.5207300000000  0.4964840000000  0.4788940000000 1.0
END
