TITL C-3577083-591-319 2.2199041939773e-06 125000 -387.099261224914 0 0 65 (C1) n - 1
REM
REM in /home/bkarasulu/work/CARBON/AIRSS/Generating-Clusters/EDIP-Nigel-Params/with-SteepDescent/Higher-Symm/SD-CG/HFTN-CG
REM
REM
REM
REM
REM
REM ./C.cell (12c818d87b63d06a65506943cc24bca4)
REM
REM compiler GCC version 9.2.1 20190827 (Red Hat 9.2.1-1)
REM options -cpp -mtune=generic -march=x86-64 -g -O0 -fpre-include=/usr/include/finclude/math-vector-fortran.h
REM seed 982059237 423597220 -416379866 218199644 -1918763879 -1553031266 -95131374 1629123896 -1025962344 -438310306 692718448 -1284658627 -1852566822 1944998791 -333430544 -768683452 -1863160856 -1844539190 46396166 1337543556 720281619 -1907627966 -490638512 -2134382308 546198250 166580803 191314003 -1490554596 -1750794856 1213868697 -1079023774 785472272 1389282424
REM
CELL 1.54180   50.00000   50.00000   50.00000   90.00000   90.00000   90.00000
LATT -1
SFAC C  
C      1  0.5645770000000  0.5308240000000  0.5334280000000 1.0
C      1  0.4346760000000  0.4658560000000  0.4598920000000 1.0
C      1  0.5333700000000  0.4516890000000  0.5509070000000 1.0
C      1  0.4679190000000  0.5489220000000  0.4557160000000 1.0
C      1  0.4506960000000  0.5442730000000  0.5403160000000 1.0
C      1  0.5492960000000  0.4537310000000  0.4630650000000 1.0
C      1  0.5026510000000  0.4470200000000  0.5196490000000 1.0
C      1  0.5039550000000  0.5491120000000  0.4822970000000 1.0
C      1  0.5008630000000  0.4354540000000  0.4635840000000 1.0
C      1  0.4980790000000  0.5650800000000  0.5325370000000 1.0
C      1  0.4656220000000  0.4939290000000  0.4953290000000 1.0
C      1  0.5130430000000  0.5010820000000  0.5033360000000 1.0
C      1  0.4842030000000  0.5247300000000  0.4573200000000 1.0
C      1  0.5172300000000  0.4757200000000  0.5424560000000 1.0
C      1  0.4881760000000  0.4440500000000  0.5666820000000 1.0
C      1  0.5089290000000  0.5473780000000  0.4381800000000 1.0
C      1  0.4504880000000  0.4709160000000  0.4356010000000 1.0
C      1  0.5479430000000  0.5304070000000  0.5576240000000 1.0
C      1  0.4337600000000  0.4975760000000  0.5382780000000 1.0
C      1  0.5684810000000  0.4986200000000  0.4562290000000 1.0
C      1  0.4784250000000  0.5772270000000  0.4904260000000 1.0
C      1  0.5295440000000  0.4201660000000  0.5163120000000 1.0
C      1  0.4668690000000  0.5004840000000  0.4663450000000 1.0
C      1  0.5293700000000  0.5001670000000  0.5273770000000 1.0
C      1  0.5177470000000  0.5471190000000  0.5243580000000 1.0
C      1  0.4804500000000  0.4536760000000  0.4675510000000 1.0
C      1  0.5534830000000  0.5515810000000  0.4906920000000 1.0
C      1  0.4501260000000  0.4411230000000  0.5036650000000 1.0
C      1  0.5466640000000  0.4806530000000  0.4517260000000 1.0
C      1  0.4538140000000  0.5160250000000  0.5460620000000 1.0
C      1  0.5677180000000  0.4508700000000  0.4839500000000 1.0
C      1  0.4318000000000  0.5492340000000  0.5202740000000 1.0
C      1  0.4730720000000  0.5608410000000  0.5416800000000 1.0
C      1  0.5273410000000  0.4368890000000  0.4612390000000 1.0
C      1  0.5112670000000  0.4140210000000  0.5370800000000 1.0
C      1  0.4941270000000  0.5840440000000  0.4679960000000 1.0
C      1  0.5001820000000  0.4853210000000  0.4359500000000 1.0
C      1  0.4997230000000  0.5202220000000  0.5617570000000 1.0
C      1  0.4651420000000  0.4440110000000  0.5506630000000 1.0
C      1  0.5354720000000  0.5523690000000  0.4470260000000 1.0
C      1  0.5203850000000  0.4940750000000  0.4538370000000 1.0
C      1  0.4784630000000  0.5036480000000  0.5550040000000 1.0
C      1  0.4884220000000  0.5671300000000  0.4450060000000 1.0
C      1  0.5128150000000  0.4319480000000  0.5598810000000 1.0
C      1  0.5473130000000  0.5529530000000  0.5194460000000 1.0
C      1  0.4529010000000  0.4475610000000  0.4756810000000 1.0
C      1  0.4421990000000  0.4788470000000  0.5052940000000 1.0
C      1  0.5510640000000  0.5227170000000  0.4807250000000 1.0
C      1  0.4361290000000  0.5451360000000  0.4929790000000 1.0
C      1  0.5643300000000  0.4576760000000  0.5107800000000 1.0
C      1  0.5207690000000  0.5151170000000  0.4781330000000 1.0
C      1  0.4858310000000  0.4785530000000  0.5389880000000 1.0
C      1  0.4722340000000  0.4396710000000  0.5228780000000 1.0
C      1  0.5315050000000  0.5617520000000  0.4739180000000 1.0
C      1  0.4375200000000  0.5034530000000  0.4620680000000 1.0
C      1  0.5585010000000  0.5043790000000  0.5197090000000 1.0
C      1  0.4602590000000  0.5568770000000  0.4822760000000 1.0
C      1  0.5462040000000  0.4411680000000  0.5265160000000 1.0
C      1  0.5220540000000  0.5247740000000  0.5442010000000 1.0
C      1  0.4762760000000  0.4769960000000  0.4495140000000 1.0
C      1  0.5626220000000  0.5263200000000  0.4519420000000 1.0
C      1  0.4432200000000  0.4709730000000  0.5349800000000 1.0
C      1  0.4263630000000  0.5229200000000  0.4788890000000 1.0
C      1  0.5746400000000  0.4815340000000  0.5211430000000 1.0
C      1  0.4887970000000  0.4875840000000  0.5096470000000 1.0
END
