TITL C-3577079-311-654 -1.03618294175282e-06 125000 -485.640932944627 0 0 77 (C1) n - 1
REM
REM in /home/bkarasulu/work/CARBON/AIRSS/Generating-Clusters/EDIP-Nigel-Params/with-SteepDescent/Higher-Symm/SD-CG/HFTN-CG
REM
REM
REM
REM
REM
REM ./C.cell (12c818d87b63d06a65506943cc24bca4)
REM
REM compiler GCC version 9.2.1 20190827 (Red Hat 9.2.1-1)
REM options -cpp -mtune=generic -march=x86-64 -g -O0 -fpre-include=/usr/include/finclude/math-vector-fortran.h
REM seed -32687697 486970115 1019310937 -2084945263 772856922 897441998 -1264522972 604198782 -649445869 1901435150 1697964367 -805992875 2075983313 -1989282979 7323197 -1092900776 -1215954408 702139624 -205174713 1166180996 1736064577 52514534 -1956709762 -712778467 -2043387167 272094023 -399226778 1170398557 937429235 1832838368 -1661333566 -1593598189 1738299989
REM
CELL 1.54180   50.00000   50.00000   50.00000   90.00000   90.00000   90.00000
LATT -1
SFAC C  
C      1  0.4651900000000  0.4508400000000  0.5303920000000 1.0
C      1  0.5455910000000  0.4480480000000  0.5164680000000 1.0
C      1  0.4923240000000  0.4494800000000  0.4537450000000 1.0
C      1  0.4626170000000  0.5476550000000  0.4701540000000 1.0
C      1  0.5419470000000  0.5445880000000  0.4846460000000 1.0
C      1  0.4910610000000  0.5471750000000  0.5462380000000 1.0
C      1  0.4813500000000  0.5653200000000  0.4537480000000 1.0
C      1  0.4674400000000  0.5651090000000  0.5392790000000 1.0
C      1  0.5480080000000  0.5620660000000  0.5086460000000 1.0
C      1  0.4837510000000  0.4340210000000  0.5469680000000 1.0
C      1  0.4685680000000  0.4333640000000  0.4624980000000 1.0
C      1  0.5496310000000  0.4306090000000  0.4920720000000 1.0
C      1  0.5045230000000  0.5737130000000  0.4711290000000 1.0
C      1  0.4706710000000  0.5737860000000  0.5107350000000 1.0
C      1  0.5223680000000  0.5722470000000  0.5199960000000 1.0
C      1  0.5059900000000  0.4252260000000  0.5296120000000 1.0
C      1  0.4726250000000  0.4252220000000  0.4906870000000 1.0
C      1  0.5228320000000  0.4231800000000  0.4811790000000 1.0
C      1  0.5423880000000  0.4842750000000  0.5607600000000 1.0
C      1  0.5309670000000  0.4842990000000  0.4347450000000 1.0
C      1  0.4274310000000  0.4849900000000  0.5054420000000 1.0
C      1  0.5395760000000  0.5126970000000  0.4388970000000 1.0
C      1  0.5329230000000  0.5121820000000  0.5661690000000 1.0
C      1  0.4255220000000  0.5130590000000  0.4954130000000 1.0
C      1  0.4572240000000  0.5237830000000  0.5630460000000 1.0
C      1  0.5738830000000  0.5212560000000  0.5049120000000 1.0
C      1  0.4658990000000  0.5240480000000  0.4325510000000 1.0
C      1  0.4583680000000  0.4728780000000  0.4366530000000 1.0
C      1  0.5779750000000  0.4703500000000  0.4957900000000 1.0
C      1  0.4665620000000  0.4739390000000  0.5683710000000 1.0
C      1  0.4894090000000  0.5439860000000  0.4330390000000 1.0
C      1  0.4456260000000  0.5436460000000  0.5424760000000 1.0
C      1  0.5613280000000  0.5402160000000  0.5256370000000 1.0
C      1  0.4918670000000  0.4565410000000  0.5664400000000 1.0
C      1  0.4473710000000  0.4553950000000  0.4593830000000 1.0
C      1  0.5639690000000  0.4520510000000  0.4751130000000 1.0
C      1  0.5320830000000  0.4746440000000  0.5059790000000 1.0
C      1  0.4933560000000  0.4758430000000  0.4710410000000 1.0
C      1  0.4815710000000  0.4764300000000  0.5212320000000 1.0
C      1  0.5255050000000  0.5196730000000  0.4931480000000 1.0
C      1  0.4911870000000  0.5251310000000  0.5262340000000 1.0
C      1  0.4778270000000  0.5239230000000  0.4804950000000 1.0
C      1  0.5291380000000  0.4401840000000  0.5396630000000 1.0
C      1  0.5201160000000  0.4378050000000  0.4553900000000 1.0
C      1  0.4526400000000  0.4407700000000  0.5055170000000 1.0
C      1  0.5276750000000  0.5574420000000  0.4612110000000 1.0
C      1  0.5193480000000  0.5566540000000  0.5451310000000 1.0
C      1  0.4499470000000  0.5584090000000  0.4953630000000 1.0
C      1  0.5037580000000  0.4836720000000  0.4232900000000 1.0
C      1  0.4317240000000  0.4844660000000  0.5347520000000 1.0
C      1  0.5654980000000  0.4824360000000  0.5422660000000 1.0
C      1  0.5066720000000  0.5147570000000  0.5771080000000 1.0
C      1  0.4282520000000  0.5159370000000  0.4672580000000 1.0
C      1  0.5629260000000  0.5151640000000  0.4548360000000 1.0
C      1  0.5189680000000  0.4663790000000  0.5518550000000 1.0
C      1  0.5379620000000  0.4625980000000  0.4583580000000 1.0
C      1  0.4469210000000  0.4661030000000  0.4893660000000 1.0
C      1  0.5155180000000  0.5328110000000  0.4475050000000 1.0
C      1  0.5355150000000  0.5303830000000  0.5412990000000 1.0
C      1  0.4438640000000  0.5330590000000  0.5121000000000 1.0
C      1  0.5051520000000  0.5180540000000  0.4718530000000 1.0
C      1  0.4697090000000  0.5165160000000  0.5079310000000 1.0
C      1  0.5172890000000  0.5143240000000  0.5218670000000 1.0
C      1  0.5115370000000  0.4828290000000  0.5266930000000 1.0
C      1  0.4726020000000  0.4819530000000  0.4933010000000 1.0
C      1  0.5223510000000  0.4781320000000  0.4781060000000 1.0
C      1  0.4857690000000  0.4602560000000  0.4262070000000 1.0
C      1  0.4434760000000  0.4609400000000  0.5492950000000 1.0
C      1  0.5730310000000  0.4582580000000  0.5259700000000 1.0
C      1  0.4853450000000  0.5331410000000  0.5723430000000 1.0
C      1  0.4432990000000  0.5341300000000  0.4514820000000 1.0
C      1  0.5682210000000  0.5323410000000  0.4765740000000 1.0
C      1  0.5591210000000  0.4943880000000  0.5068510000000 1.0
C      1  0.4635260000000  0.4986350000000  0.5478880000000 1.0
C      1  0.4766870000000  0.4982780000000  0.4446100000000 1.0
C      1  0.5006070000000  0.4283960000000  0.5004250000000 1.0
C      1  0.4990910000000  0.5705990000000  0.5006690000000 1.0
END
