TITL C-3577080-309-425 -2.27717255394046e-06 125000 -871.292273173233 0 0 144 (C1) n - 1
REM
REM in /home/bkarasulu/work/CARBON/AIRSS/Generating-Clusters/EDIP-Nigel-Params/with-SteepDescent/Higher-Symm/SD-CG/HFTN-CG
REM
REM
REM
REM
REM
REM ./C.cell (12c818d87b63d06a65506943cc24bca4)
REM
REM compiler GCC version 9.2.1 20190827 (Red Hat 9.2.1-1)
REM options -cpp -mtune=generic -march=x86-64 -g -O0 -fpre-include=/usr/include/finclude/math-vector-fortran.h
REM seed 1391841239 1270938371 1381871785 1394000353 -849268592 -1874056396 -1187428332 2075100588 -1905335363 1944788656 -71278581 1452640334 1659080237 -824352481 -1015221447 1553092056 1082427657 -1157592836 -662973844 135031792 1899603473 -761859674 552019573 353296868 -1561422111 -1560508991 -1040249013 -171018396 918062220 -753460686 2074792900 -1581620441 594879679
REM
CELL 1.54180   50.00000   50.00000   50.00000   90.00000   90.00000   90.00000
LATT -1
SFAC C  
C      1  0.4744660000000  0.4381050000000  0.4120470000000 1.0
C      1  0.5603420000000  0.4740180000000  0.4098870000000 1.0
C      1  0.5253550000000  0.5597250000000  0.4144670000000 1.0
C      1  0.4418440000000  0.5256530000000  0.4095970000000 1.0
C      1  0.4796250000000  0.5597950000000  0.4055320000000 1.0
C      1  0.5627880000000  0.5219770000000  0.4081970000000 1.0
C      1  0.5237570000000  0.4373070000000  0.4110220000000 1.0
C      1  0.4386780000000  0.4766240000000  0.4081180000000 1.0
C      1  0.4363480000000  0.5853580000000  0.5678520000000 1.0
C      1  0.4141940000000  0.4354550000000  0.5656070000000 1.0
C      1  0.5637020000000  0.4153540000000  0.5608140000000 1.0
C      1  0.5843470000000  0.5656660000000  0.5659110000000 1.0
C      1  0.4355450000000  0.4193610000000  0.5730420000000 1.0
C      1  0.4205730000000  0.5637600000000  0.5753150000000 1.0
C      1  0.5629100000000  0.5815350000000  0.5734590000000 1.0
C      1  0.5780060000000  0.4352480000000  0.5748980000000 1.0
C      1  0.4847170000000  0.5345470000000  0.5650770000000 1.0
C      1  0.4646130000000  0.4846170000000  0.5650460000000 1.0
C      1  0.5149290000000  0.4650390000000  0.5649330000000 1.0
C      1  0.5351220000000  0.5150570000000  0.5652140000000 1.0
C      1  0.4869950000000  0.4676460000000  0.5739650000000 1.0
C      1  0.4683280000000  0.5120900000000  0.5749570000000 1.0
C      1  0.5126520000000  0.5319030000000  0.5739380000000 1.0
C      1  0.5313900000000  0.4874500000000  0.5748650000000 1.0
C      1  0.4445000000000  0.4201840000000  0.5243000000000 1.0
C      1  0.5823550000000  0.4461560000000  0.5279140000000 1.0
C      1  0.5539010000000  0.5800800000000  0.5243470000000 1.0
C      1  0.4194760000000  0.5544110000000  0.5272030000000 1.0
C      1  0.4371010000000  0.5771640000000  0.5302950000000 1.0
C      1  0.5770230000000  0.5629750000000  0.5281460000000 1.0
C      1  0.5635250000000  0.4234280000000  0.5303310000000 1.0
C      1  0.4217540000000  0.4380200000000  0.5280400000000 1.0
C      1  0.5180440000000  0.5427820000000  0.5256310000000 1.0
C      1  0.4557790000000  0.5183860000000  0.5248890000000 1.0
C      1  0.4809010000000  0.4569320000000  0.5252140000000 1.0
C      1  0.5442320000000  0.4817340000000  0.5255150000000 1.0
C      1  0.5178240000000  0.4605160000000  0.5339690000000 1.0
C      1  0.4593970000000  0.4820120000000  0.5342510000000 1.0
C      1  0.4811010000000  0.5395300000000  0.5343290000000 1.0
C      1  0.5401430000000  0.5177940000000  0.5345020000000 1.0
C      1  0.5878320000000  0.5158530000000  0.4954890000000 1.0
C      1  0.4846900000000  0.5863680000000  0.4940350000000 1.0
C      1  0.4125850000000  0.4866700000000  0.4948260000000 1.0
C      1  0.5133030000000  0.4123350000000  0.4923660000000 1.0
C      1  0.5863620000000  0.4882550000000  0.4891540000000 1.0
C      1  0.4848210000000  0.4175420000000  0.4907810000000 1.0
C      1  0.4154000000000  0.5145540000000  0.4881140000000 1.0
C      1  0.5130420000000  0.5823290000000  0.4907560000000 1.0
C      1  0.5926130000000  0.4910460000000  0.5367290000000 1.0
C      1  0.5091930000000  0.5919560000000  0.5338200000000 1.0
C      1  0.4069950000000  0.5102390000000  0.5360270000000 1.0
C      1  0.4894840000000  0.4075740000000  0.5335130000000 1.0
C      1  0.5912390000000  0.5157070000000  0.5245640000000 1.0
C      1  0.5145810000000  0.4086660000000  0.5221250000000 1.0
C      1  0.4083520000000  0.4856810000000  0.5239270000000 1.0
C      1  0.4838840000000  0.5905210000000  0.5231560000000 1.0
C      1  0.4879510000000  0.5926140000000  0.4556930000000 1.0
C      1  0.4050110000000  0.4848630000000  0.4567050000000 1.0
C      1  0.5095370000000  0.4004440000000  0.4583320000000 1.0
C      1  0.5953310000000  0.5173070000000  0.4571660000000 1.0
C      1  0.4801850000000  0.4058370000000  0.4634850000000 1.0
C      1  0.4112280000000  0.5128610000000  0.4590940000000 1.0
C      1  0.5154790000000  0.5912810000000  0.4626240000000 1.0
C      1  0.5904730000000  0.4890800000000  0.4601370000000 1.0
C      1  0.5284360000000  0.4373920000000  0.4870360000000 1.0
C      1  0.5606190000000  0.5297170000000  0.4894130000000 1.0
C      1  0.4698930000000  0.5612560000000  0.4872820000000 1.0
C      1  0.4389070000000  0.4719620000000  0.4893860000000 1.0
C      1  0.5239680000000  0.5523320000000  0.4947530000000 1.0
C      1  0.5586250000000  0.4754070000000  0.4939260000000 1.0
C      1  0.4750490000000  0.4478660000000  0.4939150000000 1.0
C      1  0.4436030000000  0.5262820000000  0.4937420000000 1.0
C      1  0.5780730000000  0.5373600000000  0.5643930000000 1.0
C      1  0.4643950000000  0.5782090000000  0.5651390000000 1.0
C      1  0.4211230000000  0.4636440000000  0.5642330000000 1.0
C      1  0.5344100000000  0.4212680000000  0.5639210000000 1.0
C      1  0.5730930000000  0.4627500000000  0.5705070000000 1.0
C      1  0.4623680000000  0.4260200000000  0.5679500000000 1.0
C      1  0.4267990000000  0.5368320000000  0.5701440000000 1.0
C      1  0.5363490000000  0.5740120000000  0.5682910000000 1.0
C      1  0.5137610000000  0.4638390000000  0.4060320000000 1.0
C      1  0.5359170000000  0.5130110000000  0.4051360000000 1.0
C      1  0.4885850000000  0.5327420000000  0.4035300000000 1.0
C      1  0.4657530000000  0.4850620000000  0.4051010000000 1.0
C      1  0.5162670000000  0.5329710000000  0.4107390000000 1.0
C      1  0.5340400000000  0.4844800000000  0.4088220000000 1.0
C      1  0.4851940000000  0.4642830000000  0.4095080000000 1.0
C      1  0.4675530000000  0.5135770000000  0.4085880000000 1.0
C      1  0.5183810000000  0.4622060000000  0.4725700000000 1.0
C      1  0.5389010000000  0.5175580000000  0.4709940000000 1.0
C      1  0.4826730000000  0.5426280000000  0.4665660000000 1.0
C      1  0.4609810000000  0.4834650000000  0.4707090000000 1.0
C      1  0.5113870000000  0.5332820000000  0.4752320000000 1.0
C      1  0.5409580000000  0.4844860000000  0.4703390000000 1.0
C      1  0.4886260000000  0.4680380000000  0.4758610000000 1.0
C      1  0.4598900000000  0.5161490000000  0.4690450000000 1.0
C      1  0.5562860000000  0.5291940000000  0.5808930000000 1.0
C      1  0.4714980000000  0.5558110000000  0.5811540000000 1.0
C      1  0.4433340000000  0.4707240000000  0.5806460000000 1.0
C      1  0.5285980000000  0.4436100000000  0.5806130000000 1.0
C      1  0.5527280000000  0.4732240000000  0.5873270000000 1.0
C      1  0.4726530000000  0.4458440000000  0.5855510000000 1.0
C      1  0.4469310000000  0.5264210000000  0.5872880000000 1.0
C      1  0.5267390000000  0.5537380000000  0.5857610000000 1.0
C      1  0.4312950000000  0.4755330000000  0.4464270000000 1.0
C      1  0.5129860000000  0.4294260000000  0.4466200000000 1.0
C      1  0.5687390000000  0.5249000000000  0.4466140000000 1.0
C      1  0.4854470000000  0.5651980000000  0.4437000000000 1.0
C      1  0.4380220000000  0.5180550000000  0.4472770000000 1.0
C      1  0.5280660000000  0.5663790000000  0.4521510000000 1.0
C      1  0.5637240000000  0.4820890000000  0.4477180000000 1.0
C      1  0.4780300000000  0.4339910000000  0.4502370000000 1.0
C      1  0.5718050000000  0.4472090000000  0.4851890000000 1.0
C      1  0.5528800000000  0.5712650000000  0.4759820000000 1.0
C      1  0.4244140000000  0.5559690000000  0.4779970000000 1.0
C      1  0.4461350000000  0.4301530000000  0.4770860000000 1.0
C      1  0.5745330000000  0.5537020000000  0.4795520000000 1.0
C      1  0.5550960000000  0.4249910000000  0.4866840000000 1.0
C      1  0.4248500000000  0.4478120000000  0.4801280000000 1.0
C      1  0.4444090000000  0.5746250000000  0.4816850000000 1.0
C      1  0.5704700000000  0.5326590000000  0.5360200000000 1.0
C      1  0.4674390000000  0.5701890000000  0.5364500000000 1.0
C      1  0.4287780000000  0.4682650000000  0.5357660000000 1.0
C      1  0.5304340000000  0.4301010000000  0.5350440000000 1.0
C      1  0.5727420000000  0.4710680000000  0.5410320000000 1.0
C      1  0.4699120000000  0.4278540000000  0.5384520000000 1.0
C      1  0.4276690000000  0.5292350000000  0.5405530000000 1.0
C      1  0.5289080000000  0.5719690000000  0.5387880000000 1.0
C      1  0.4497040000000  0.4331220000000  0.4245110000000 1.0
C      1  0.5660630000000  0.4540190000000  0.4300490000000 1.0
C      1  0.5516540000000  0.5666540000000  0.4224630000000 1.0
C      1  0.4379490000000  0.5491270000000  0.4251400000000 1.0
C      1  0.4595470000000  0.5679430000000  0.4248180000000 1.0
C      1  0.5711610000000  0.5454150000000  0.4234070000000 1.0
C      1  0.5463150000000  0.4332550000000  0.4280700000000 1.0
C      1  0.4300370000000  0.4540510000000  0.4243100000000 1.0
C      1  0.4092380000000  0.5559200000000  0.5012340000000 1.0
C      1  0.4420090000000  0.4106990000000  0.4976400000000 1.0
C      1  0.5944860000000  0.4464620000000  0.5023710000000 1.0
C      1  0.5557450000000  0.5900010000000  0.4978940000000 1.0
C      1  0.4094120000000  0.4371040000000  0.5015450000000 1.0
C      1  0.4354280000000  0.5894530000000  0.5041180000000 1.0
C      1  0.5891940000000  0.5644830000000  0.5016170000000 1.0
C      1  0.5640770000000  0.4060270000000  0.5063700000000 1.0
END
