TITL C-3577083-591-159 -4.52570665707261e-06 125000 -484.995982360492 0 0 79 (C1) n - 1
REM
REM in /home/bkarasulu/work/CARBON/AIRSS/Generating-Clusters/EDIP-Nigel-Params/with-SteepDescent/Higher-Symm/SD-CG/HFTN-CG
REM
REM
REM
REM
REM
REM ./C.cell (12c818d87b63d06a65506943cc24bca4)
REM
REM compiler GCC version 9.2.1 20190827 (Red Hat 9.2.1-1)
REM options -cpp -mtune=generic -march=x86-64 -g -O0 -fpre-include=/usr/include/finclude/math-vector-fortran.h
REM seed 39267984 1679158598 1637282949 -1728199948 716228404 1797217236 -1501540918 -652337353 1953045017 -1287446536 621998980 925547759 -26095104 811094145 287436741 -1906159766 560119806 -1044892226 998575480 634469908 1525796218 -558589882 30385825 -2086779156 404238939 -1792208883 408849292 39688354 336936125 -1285531552 1924457156 -1531061919 1882950963
REM
CELL 1.54180   50.00000   50.00000   50.00000   90.00000   90.00000   90.00000
LATT -1
SFAC C  
C      1  0.4916850000000  0.5558630000000  0.4245560000000 1.0
C      1  0.5091450000000  0.4415590000000  0.4275570000000 1.0
C      1  0.5208980000000  0.5541600000000  0.4299960000000 1.0
C      1  0.4801530000000  0.4432980000000  0.4331000000000 1.0
C      1  0.4389500000000  0.5078780000000  0.4849830000000 1.0
C      1  0.5647490000000  0.4909560000000  0.4847580000000 1.0
C      1  0.5658580000000  0.5191520000000  0.4838990000000 1.0
C      1  0.4278730000000  0.4825970000000  0.4862630000000 1.0
C      1  0.5602570000000  0.5324640000000  0.5570190000000 1.0
C      1  0.4465170000000  0.4674510000000  0.5557150000000 1.0
C      1  0.4401760000000  0.5292650000000  0.5549230000000 1.0
C      1  0.5548750000000  0.4691690000000  0.5555830000000 1.0
C      1  0.4377960000000  0.5115930000000  0.5327040000000 1.0
C      1  0.5641540000000  0.4862620000000  0.5342380000000 1.0
C      1  0.5619510000000  0.5157190000000  0.5340490000000 1.0
C      1  0.4372390000000  0.4821140000000  0.5332830000000 1.0
C      1  0.4717240000000  0.4267200000000  0.4575150000000 1.0
C      1  0.5310510000000  0.5680910000000  0.4545680000000 1.0
C      1  0.5210070000000  0.4184870000000  0.4385850000000 1.0
C      1  0.4807550000000  0.5789310000000  0.4363600000000 1.0
C      1  0.4638840000000  0.5539920000000  0.4769210000000 1.0
C      1  0.5340880000000  0.4477210000000  0.4790820000000 1.0
C      1  0.5473290000000  0.5523020000000  0.4748780000000 1.0
C      1  0.4491920000000  0.4307760000000  0.4779140000000 1.0
C      1  0.5331300000000  0.5626110000000  0.5285520000000 1.0
C      1  0.4641850000000  0.4308160000000  0.5271790000000 1.0
C      1  0.4670640000000  0.5592570000000  0.5260610000000 1.0
C      1  0.5328320000000  0.4374280000000  0.5250230000000 1.0
C      1  0.4911050000000  0.4726480000000  0.4738570000000 1.0
C      1  0.5119580000000  0.5307320000000  0.4664320000000 1.0
C      1  0.5216070000000  0.4748280000000  0.4732460000000 1.0
C      1  0.4803590000000  0.5285960000000  0.4693070000000 1.0
C      1  0.5236640000000  0.5235850000000  0.4943180000000 1.0
C      1  0.4845200000000  0.4866990000000  0.4991440000000 1.0
C      1  0.4752700000000  0.5144560000000  0.4958210000000 1.0
C      1  0.5280330000000  0.4934840000000  0.4975760000000 1.0
C      1  0.5240960000000  0.4654780000000  0.4271160000000 1.0
C      1  0.4769550000000  0.5313150000000  0.4241220000000 1.0
C      1  0.4677470000000  0.4678010000000  0.4285540000000 1.0
C      1  0.5325650000000  0.5287880000000  0.4235020000000 1.0
C      1  0.4841580000000  0.4726040000000  0.5626590000000 1.0
C      1  0.5243830000000  0.5184100000000  0.5571100000000 1.0
C      1  0.5173310000000  0.4762260000000  0.5606050000000 1.0
C      1  0.4756080000000  0.5141220000000  0.5554610000000 1.0
C      1  0.5506120000000  0.5563240000000  0.5057760000000 1.0
C      1  0.4500450000000  0.4428070000000  0.5043850000000 1.0
C      1  0.4503780000000  0.5504490000000  0.5035500000000 1.0
C      1  0.5494910000000  0.4487790000000  0.5040310000000 1.0
C      1  0.5129180000000  0.5826040000000  0.5244810000000 1.0
C      1  0.4873280000000  0.4156180000000  0.5238640000000 1.0
C      1  0.4841600000000  0.5824360000000  0.5207080000000 1.0
C      1  0.5126830000000  0.4194660000000  0.5129070000000 1.0
C      1  0.4900760000000  0.5915750000000  0.4596060000000 1.0
C      1  0.5111840000000  0.4067890000000  0.4621260000000 1.0
C      1  0.5179880000000  0.5920590000000  0.4611930000000 1.0
C      1  0.4840610000000  0.4000260000000  0.4583430000000 1.0
C      1  0.4614650000000  0.4435400000000  0.5525490000000 1.0
C      1  0.5404870000000  0.5529780000000  0.5545900000000 1.0
C      1  0.5383130000000  0.4458450000000  0.5519760000000 1.0
C      1  0.4607320000000  0.5489230000000  0.5522480000000 1.0
C      1  0.4840150000000  0.5111810000000  0.5842420000000 1.0
C      1  0.5168610000000  0.4829540000000  0.5910370000000 1.0
C      1  0.5149560000000  0.5130860000000  0.5849370000000 1.0
C      1  0.4855650000000  0.4811560000000  0.5917930000000 1.0
C      1  0.4862510000000  0.4429810000000  0.4796740000000 1.0
C      1  0.5090710000000  0.5618350000000  0.4919470000000 1.0
C      1  0.5121780000000  0.4276470000000  0.4838130000000 1.0
C      1  0.4823010000000  0.5761400000000  0.4837900000000 1.0
C      1  0.4706090000000  0.5138680000000  0.4457480000000 1.0
C      1  0.5298320000000  0.4846370000000  0.4468140000000 1.0
C      1  0.5223340000000  0.5123590000000  0.4437890000000 1.0
C      1  0.4771760000000  0.4849660000000  0.4482510000000 1.0
C      1  0.4345840000000  0.4671640000000  0.5084880000000 1.0
C      1  0.5645710000000  0.5311550000000  0.5095050000000 1.0
C      1  0.5651260000000  0.4736660000000  0.5078710000000 1.0
C      1  0.4349780000000  0.5252450000000  0.5071080000000 1.0
C      1  0.4980870000000  0.5313050000000  0.5121280000000 1.0
C      1  0.5061580000000  0.4875410000000  0.5198320000000 1.0
C      1  0.5012780000000  0.5126810000000  0.5371320000000 1.0
END
