TITL C-3578200-9634-457 7.10487979094602e-07 125000 -402.062220218003 0 0 66 (C1) n - 1
REM
REM in /home/bkarasulu/work/CARBON/AIRSS/Generating-Clusters/EDIP-Nigel-Params/with-SteepDescent/Higher-Symm/SD-CG/HFTN-CG
REM
REM
REM
REM
REM
REM ./C.cell (12c818d87b63d06a65506943cc24bca4)
REM
REM compiler GCC version 9.2.1 20190827 (Red Hat 9.2.1-1)
REM options -cpp -mtune=generic -march=x86-64 -g -O0 -fpre-include=/usr/include/finclude/math-vector-fortran.h
REM seed 260405630 -624371162 1520235241 1947040178 413075723 1343329138 1734163461 -780865520 -1178980376 -275380022 -888990605 -1332321547 -1399299534 1458089870 -901301049 567889833 -1222927141 124021543 -862887373 550579976 1967186447 -815661129 -2050890882 -2145505161 -513063866 -67595823 -709009225 -1099896483 -179523770 7221623 -2143282280 1419587389 -1114982696
REM
CELL 1.54180   50.00000   50.00000   50.00000   90.00000   90.00000   90.00000
LATT -1
SFAC C  
C      1  0.4676700000000  0.5336410000000  0.4240620000000 1.0
C      1  0.4714500000000  0.4659210000000  0.5735920000000 1.0
C      1  0.4700400000000  0.4663960000000  0.4262890000000 1.0
C      1  0.4663890000000  0.5343270000000  0.5766290000000 1.0
C      1  0.4939930000000  0.5279000000000  0.4321280000000 1.0
C      1  0.4967380000000  0.4752980000000  0.5648140000000 1.0
C      1  0.4957390000000  0.4747860000000  0.4345350000000 1.0
C      1  0.4923740000000  0.5280980000000  0.5682090000000 1.0
C      1  0.4490090000000  0.4404860000000  0.4851470000000 1.0
C      1  0.4544230000000  0.5582970000000  0.5151110000000 1.0
C      1  0.4549350000000  0.5575540000000  0.4845680000000 1.0
C      1  0.4490610000000  0.4403480000000  0.5158230000000 1.0
C      1  0.4280590000000  0.5159680000000  0.4849440000000 1.0
C      1  0.4267810000000  0.4845530000000  0.5160610000000 1.0
C      1  0.4266280000000  0.4844790000000  0.4849900000000 1.0
C      1  0.4280120000000  0.5162760000000  0.5157180000000 1.0
C      1  0.5054390000000  0.5523910000000  0.5258720000000 1.0
C      1  0.5006100000000  0.4420390000000  0.4735490000000 1.0
C      1  0.5008330000000  0.4426140000000  0.5264190000000 1.0
C      1  0.5067120000000  0.5521640000000  0.4742900000000 1.0
C      1  0.5448850000000  0.5101400000000  0.4392500000000 1.0
C      1  0.5554620000000  0.4897940000000  0.5466540000000 1.0
C      1  0.5559820000000  0.4896080000000  0.4544780000000 1.0
C      1  0.5440270000000  0.5093890000000  0.5629890000000 1.0
C      1  0.4504390000000  0.4674130000000  0.5560210000000 1.0
C      1  0.4487210000000  0.5322160000000  0.4436850000000 1.0
C      1  0.4475800000000  0.5342480000000  0.5568150000000 1.0
C      1  0.4498130000000  0.4674550000000  0.4447850000000 1.0
C      1  0.4991360000000  0.4869180000000  0.5907700000000 1.0
C      1  0.4971800000000  0.5146830000000  0.4073560000000 1.0
C      1  0.4959280000000  0.5148510000000  0.5927890000000 1.0
C      1  0.4982070000000  0.4865480000000  0.4087780000000 1.0
C      1  0.4829080000000  0.5712130000000  0.5159590000000 1.0
C      1  0.4758800000000  0.4252780000000  0.4841360000000 1.0
C      1  0.4761810000000  0.4249130000000  0.5163330000000 1.0
C      1  0.4832950000000  0.5703980000000  0.4838850000000 1.0
C      1  0.4995270000000  0.5258850000000  0.5143700000000 1.0
C      1  0.4977050000000  0.4697600000000  0.4863650000000 1.0
C      1  0.4936660000000  0.4684560000000  0.5137370000000 1.0
C      1  0.5029970000000  0.5245100000000  0.4860030000000 1.0
C      1  0.5153440000000  0.4581930000000  0.5506450000000 1.0
C      1  0.5121790000000  0.5467010000000  0.4447340000000 1.0
C      1  0.5109690000000  0.5462050000000  0.5554130000000 1.0
C      1  0.5141820000000  0.4567960000000  0.4474590000000 1.0
C      1  0.5742090000000  0.5020910000000  0.5299660000000 1.0
C      1  0.5566220000000  0.5203030000000  0.4882250000000 1.0
C      1  0.5688450000000  0.5254520000000  0.5150980000000 1.0
C      1  0.5724560000000  0.5003100000000  0.4741500000000 1.0
C      1  0.5324470000000  0.5613230000000  0.5148810000000 1.0
C      1  0.5255480000000  0.4279310000000  0.4848950000000 1.0
C      1  0.5260180000000  0.4302090000000  0.5139890000000 1.0
C      1  0.5331240000000  0.5626830000000  0.4849590000000 1.0
C      1  0.5527570000000  0.5455420000000  0.5301650000000 1.0
C      1  0.5501220000000  0.4450490000000  0.4800480000000 1.0
C      1  0.5483690000000  0.4497190000000  0.5159970000000 1.0
C      1  0.5531810000000  0.5453950000000  0.4714520000000 1.0
C      1  0.4481220000000  0.5322900000000  0.4712940000000 1.0
C      1  0.4465470000000  0.4667260000000  0.5285990000000 1.0
C      1  0.4462310000000  0.4667160000000  0.4722330000000 1.0
C      1  0.4476040000000  0.5333950000000  0.5291730000000 1.0
C      1  0.5408360000000  0.5375700000000  0.4449490000000 1.0
C      1  0.5379460000000  0.4698570000000  0.5347350000000 1.0
C      1  0.5376470000000  0.4684360000000  0.4656070000000 1.0
C      1  0.5391970000000  0.5362730000000  0.5554370000000 1.0
C      1  0.5281750000000  0.5087610000000  0.4947680000000 1.0
C      1  0.5254980000000  0.4788620000000  0.4932190000000 1.0
END
