TITL C-3578209-2550-363 3.55221413819356e-06 125000 -492.775010417362 0 0 80 (C1) n - 1
REM
REM in /home/bkarasulu/work/CARBON/AIRSS/Generating-Clusters/EDIP-Nigel-Params/with-SteepDescent/Higher-Symm/SD-CG/HFTN-CG
REM
REM
REM
REM
REM
REM ./C.cell (12c818d87b63d06a65506943cc24bca4)
REM
REM compiler GCC version 9.2.1 20190827 (Red Hat 9.2.1-1)
REM options -cpp -mtune=generic -march=x86-64 -g -O0 -fpre-include=/usr/include/finclude/math-vector-fortran.h
REM seed -1933252901 10158120 12470396 -1681731060 226322212 -372938712 1034846120 -1549093853 1456018637 446483728 2070916332 1397340548 -1852985325 -584612352 1340119659 -979489520 -1218151621 41919990 -1868767284 -632350739 484447091 -1002794818 -383770802 -287846845 -1797723726 -371004448 1113165974 45653719 -362326230 896213736 -221877986 -1741882271 -2123219250
REM
CELL 1.54180   50.00000   50.00000   50.00000   90.00000   90.00000   90.00000
LATT -1
SFAC C  
C      1  0.5628610000000  0.4747340000000  0.4992050000000 1.0
C      1  0.5584710000000  0.4929410000000  0.4738690000000 1.0
C      1  0.5634840000000  0.5221470000000  0.4825380000000 1.0
C      1  0.5517830000000  0.5243130000000  0.5107900000000 1.0
C      1  0.5573250000000  0.4937820000000  0.5231750000000 1.0
C      1  0.4690310000000  0.4287400000000  0.4749970000000 1.0
C      1  0.4698080000000  0.5009720000000  0.4321880000000 1.0
C      1  0.4668430000000  0.5737780000000  0.4774700000000 1.0
C      1  0.4728160000000  0.5450950000000  0.5552590000000 1.0
C      1  0.4649750000000  0.4484640000000  0.5567820000000 1.0
C      1  0.4828730000000  0.5170630000000  0.5453250000000 1.0
C      1  0.4956940000000  0.4686260000000  0.5333090000000 1.0
C      1  0.4996540000000  0.4615980000000  0.4861690000000 1.0
C      1  0.4993970000000  0.5046100000000  0.4606150000000 1.0
C      1  0.4961240000000  0.5417230000000  0.4936560000000 1.0
C      1  0.5322200000000  0.4955770000000  0.5659770000000 1.0
C      1  0.5305790000000  0.4356930000000  0.5155270000000 1.0
C      1  0.5331360000000  0.4628470000000  0.4414890000000 1.0
C      1  0.5283670000000  0.5371580000000  0.4518890000000 1.0
C      1  0.5335860000000  0.5679610000000  0.5227080000000 1.0
C      1  0.4334830000000  0.4644660000000  0.5302730000000 1.0
C      1  0.4251700000000  0.4663200000000  0.4793080000000 1.0
C      1  0.4367660000000  0.5112960000000  0.4599310000000 1.0
C      1  0.4488790000000  0.5434870000000  0.4952970000000 1.0
C      1  0.4380630000000  0.5148950000000  0.5330470000000 1.0
C      1  0.4353750000000  0.4827600000000  0.4590900000000 1.0
C      1  0.4337820000000  0.5385050000000  0.4686130000000 1.0
C      1  0.4344410000000  0.5433000000000  0.5231650000000 1.0
C      1  0.4241130000000  0.4904110000000  0.5401210000000 1.0
C      1  0.4359190000000  0.4551050000000  0.5024740000000 1.0
C      1  0.4583790000000  0.4753950000000  0.4430540000000 1.0
C      1  0.4549920000000  0.5551930000000  0.4547040000000 1.0
C      1  0.4574770000000  0.5607730000000  0.5346300000000 1.0
C      1  0.4541500000000  0.4775090000000  0.5611840000000 1.0
C      1  0.4570850000000  0.4357980000000  0.5010520000000 1.0
C      1  0.5108210000000  0.5142700000000  0.4123890000000 1.0
C      1  0.5124620000000  0.5904060000000  0.4850280000000 1.0
C      1  0.5150740000000  0.5409150000000  0.5747800000000 1.0
C      1  0.5109670000000  0.4319730000000  0.5606320000000 1.0
C      1  0.5133330000000  0.4211450000000  0.4584630000000 1.0
C      1  0.4793130000000  0.5691730000000  0.5143110000000 1.0
C      1  0.4775930000000  0.4957840000000  0.5662360000000 1.0
C      1  0.4752730000000  0.4358550000000  0.5261490000000 1.0
C      1  0.4807930000000  0.4566660000000  0.4524290000000 1.0
C      1  0.4770960000000  0.5354820000000  0.4474770000000 1.0
C      1  0.4733830000000  0.4759750000000  0.4910840000000 1.0
C      1  0.4715030000000  0.5022730000000  0.4754760000000 1.0
C      1  0.4711870000000  0.5236900000000  0.4970650000000 1.0
C      1  0.4650980000000  0.5088630000000  0.5234830000000 1.0
C      1  0.4685100000000  0.4788680000000  0.5202200000000 1.0
C      1  0.5554090000000  0.4828240000000  0.4450340000000 1.0
C      1  0.5538020000000  0.5440360000000  0.4654490000000 1.0
C      1  0.5559350000000  0.5480240000000  0.5294410000000 1.0
C      1  0.5535950000000  0.4824980000000  0.5513550000000 1.0
C      1  0.5530110000000  0.4460030000000  0.4984980000000 1.0
C      1  0.4943630000000  0.4930180000000  0.4185170000000 1.0
C      1  0.4947590000000  0.5779410000000  0.4677480000000 1.0
C      1  0.4988190000000  0.5571040000000  0.5588260000000 1.0
C      1  0.4912930000000  0.4483680000000  0.5718860000000 1.0
C      1  0.4957690000000  0.4180600000000  0.4797920000000 1.0
C      1  0.5358050000000  0.5805030000000  0.4964280000000 1.0
C      1  0.5368780000000  0.5242200000000  0.5712240000000 1.0
C      1  0.5332190000000  0.4373910000000  0.5445150000000 1.0
C      1  0.5361420000000  0.4364210000000  0.4538620000000 1.0
C      1  0.5327050000000  0.5227720000000  0.4268250000000 1.0
C      1  0.5237270000000  0.4789460000000  0.4958470000000 1.0
C      1  0.5222760000000  0.5053210000000  0.4817910000000 1.0
C      1  0.5199720000000  0.5259600000000  0.5047360000000 1.0
C      1  0.5096170000000  0.5130740000000  0.5295950000000 1.0
C      1  0.5189010000000  0.4854870000000  0.5252440000000 1.0
C      1  0.5043930000000  0.4729350000000  0.4390840000000 1.0
C      1  0.5009840000000  0.5487740000000  0.4628540000000 1.0
C      1  0.5051940000000  0.5635230000000  0.5308840000000 1.0
C      1  0.5000310000000  0.4770430000000  0.5641270000000 1.0
C      1  0.5023330000000  0.4359630000000  0.5036270000000 1.0
C      1  0.5556760000000  0.4342200000000  0.4732400000000 1.0
C      1  0.5536430000000  0.5044300000000  0.4271560000000 1.0
C      1  0.5535120000000  0.5684150000000  0.4791460000000 1.0
C      1  0.5557080000000  0.5377080000000  0.5555840000000 1.0
C      1  0.5530230000000  0.4546480000000  0.5535820000000 1.0
END
