TITL C-3578198-8939-108 -3.96175464285192e-06 125000 -605.974030879007 0 0 99 (C1) n - 1
REM
REM in /home/bkarasulu/work/CARBON/AIRSS/Generating-Clusters/EDIP-Nigel-Params/with-SteepDescent/Higher-Symm/SD-CG/HFTN-CG
REM
REM
REM
REM
REM
REM ./C.cell (12c818d87b63d06a65506943cc24bca4)
REM
REM compiler GCC version 9.2.1 20190827 (Red Hat 9.2.1-1)
REM options -cpp -mtune=generic -march=x86-64 -g -O0 -fpre-include=/usr/include/finclude/math-vector-fortran.h
REM seed 1570584179 -1542452831 -1980203956 664477980 -2038297994 -917567210 -20416864 -1798817534 -1476381473 -826265240 1477813820 -1072194995 -921607985 600721994 1342274465 -1467560402 1128053809 -1035321583 -1465505632 -2106202525 477772181 -1192773472 787595861 788810004 -2138001478 -175847286 1529856204 1563626044 160196812 2100383787 1055955774 -1419133539 -1706699436
REM
CELL 1.54180   50.00000   50.00000   50.00000   90.00000   90.00000   90.00000
LATT -1
SFAC C  
C      1  0.4293590000000  0.4968710000000  0.4555120000000 1.0
C      1  0.4425080000000  0.4715260000000  0.4507290000000 1.0
C      1  0.4768280000000  0.4249690000000  0.4550880000000 1.0
C      1  0.5040130000000  0.4302860000000  0.4520090000000 1.0
C      1  0.5421750000000  0.4678030000000  0.4624370000000 1.0
C      1  0.5651000000000  0.4873280000000  0.4587800000000 1.0
C      1  0.5600800000000  0.5176550000000  0.4630760000000 1.0
C      1  0.5390730000000  0.5450830000000  0.4524120000000 1.0
C      1  0.5072380000000  0.5657120000000  0.4625940000000 1.0
C      1  0.4792170000000  0.5654090000000  0.4529320000000 1.0
C      1  0.4472500000000  0.5207730000000  0.4587520000000 1.0
C      1  0.5852540000000  0.5291460000000  0.4712440000000 1.0
C      1  0.5514290000000  0.5664790000000  0.4718000000000 1.0
C      1  0.5122210000000  0.5911400000000  0.4745760000000 1.0
C      1  0.4595790000000  0.5621140000000  0.4764200000000 1.0
C      1  0.4345500000000  0.5447400000000  0.4732120000000 1.0
C      1  0.4103830000000  0.4947940000000  0.4748790000000 1.0
C      1  0.4332050000000  0.4494710000000  0.4694140000000 1.0
C      1  0.4663550000000  0.4110010000000  0.4756910000000 1.0
C      1  0.5240810000000  0.4229740000000  0.4724840000000 1.0
C      1  0.5494520000000  0.4388100000000  0.4717850000000 1.0
C      1  0.5860560000000  0.4793320000000  0.4750750000000 1.0
C      1  0.5673100000000  0.5508620000000  0.5582480000000 1.0
C      1  0.5454920000000  0.5681140000000  0.5611690000000 1.0
C      1  0.4895570000000  0.5626420000000  0.5577170000000 1.0
C      1  0.4634530000000  0.5518640000000  0.5649360000000 1.0
C      1  0.4221530000000  0.4992600000000  0.5604280000000 1.0
C      1  0.4236710000000  0.4711660000000  0.5551490000000 1.0
C      1  0.4454680000000  0.4527670000000  0.5609870000000 1.0
C      1  0.4971590000000  0.4308450000000  0.5573850000000 1.0
C      1  0.5250770000000  0.4383090000000  0.5586620000000 1.0
C      1  0.5610240000000  0.4756190000000  0.5636200000000 1.0
C      1  0.5730570000000  0.5013380000000  0.5639140000000 1.0
C      1  0.4620470000000  0.5240780000000  0.5384890000000 1.0
C      1  0.4454210000000  0.4999720000000  0.5296220000000 1.0
C      1  0.4534210000000  0.4675560000000  0.5224080000000 1.0
C      1  0.4811030000000  0.4531790000000  0.5452500000000 1.0
C      1  0.5016600000000  0.4685310000000  0.5293320000000 1.0
C      1  0.5268680000000  0.4744220000000  0.5450020000000 1.0
C      1  0.5345650000000  0.4984220000000  0.5293050000000 1.0
C      1  0.5476840000000  0.5212230000000  0.5431650000000 1.0
C      1  0.5327740000000  0.5468810000000  0.5311540000000 1.0
C      1  0.5041350000000  0.5430940000000  0.5398790000000 1.0
C      1  0.4862480000000  0.5269300000000  0.5233150000000 1.0
C      1  0.4026910000000  0.4610460000000  0.5396630000000 1.0
C      1  0.4434600000000  0.4312340000000  0.5429590000000 1.0
C      1  0.4942650000000  0.4067570000000  0.5432300000000 1.0
C      1  0.5414280000000  0.4215710000000  0.5436560000000 1.0
C      1  0.5681160000000  0.4583480000000  0.5432120000000 1.0
C      1  0.5893410000000  0.5087760000000  0.5426180000000 1.0
C      1  0.5855050000000  0.5589070000000  0.5392260000000 1.0
C      1  0.5411560000000  0.5871570000000  0.5420330000000 1.0
C      1  0.4875350000000  0.5879650000000  0.5448700000000 1.0
C      1  0.4412320000000  0.5556700000000  0.5477170000000 1.0
C      1  0.4077340000000  0.5158900000000  0.5432770000000 1.0
C      1  0.5069340000000  0.4500250000000  0.4316450000000 1.0
C      1  0.5270630000000  0.4694790000000  0.4367580000000 1.0
C      1  0.5333800000000  0.4888700000000  0.4181590000000 1.0
C      1  0.5382280000000  0.5148240000000  0.4145720000000 1.0
C      1  0.5304860000000  0.5396100000000  0.4238310000000 1.0
C      1  0.5040980000000  0.5456820000000  0.4173630000000 1.0
C      1  0.4795600000000  0.5467820000000  0.4307310000000 1.0
C      1  0.4611470000000  0.5245800000000  0.4327740000000 1.0
C      1  0.4635670000000  0.5008880000000  0.4182320000000 1.0
C      1  0.4609190000000  0.4746440000000  0.4275480000000 1.0
C      1  0.4821140000000  0.4576210000000  0.4211830000000 1.0
C      1  0.5752350000000  0.4838520000000  0.5018410000000 1.0
C      1  0.5906420000000  0.5320860000000  0.4988100000000 1.0
C      1  0.5611380000000  0.5754350000000  0.4981500000000 1.0
C      1  0.5123830000000  0.5929740000000  0.5023670000000 1.0
C      1  0.4627970000000  0.5737550000000  0.5044440000000 1.0
C      1  0.4259600000000  0.5401720000000  0.5022790000000 1.0
C      1  0.4043300000000  0.4927230000000  0.5013470000000 1.0
C      1  0.4244910000000  0.4442370000000  0.4983240000000 1.0
C      1  0.4676210000000  0.4150410000000  0.5033050000000 1.0
C      1  0.5187880000000  0.4122370000000  0.5004890000000 1.0
C      1  0.5596820000000  0.4362200000000  0.5005620000000 1.0
C      1  0.5910750000000  0.5067520000000  0.5147290000000 1.0
C      1  0.5812740000000  0.5570200000000  0.5117070000000 1.0
C      1  0.5387710000000  0.5874340000000  0.5144400000000 1.0
C      1  0.4866190000000  0.5877270000000  0.5166960000000 1.0
C      1  0.4419220000000  0.5584540000000  0.5192170000000 1.0
C      1  0.4083870000000  0.5185750000000  0.5151480000000 1.0
C      1  0.4102690000000  0.4660770000000  0.5131920000000 1.0
C      1  0.4418880000000  0.4257120000000  0.5153280000000 1.0
C      1  0.4934400000000  0.4055420000000  0.5153280000000 1.0
C      1  0.5432170000000  0.4172450000000  0.5159660000000 1.0
C      1  0.5739670000000  0.4573830000000  0.5158380000000 1.0
C      1  0.4605910000000  0.4668120000000  0.4905130000000 1.0
C      1  0.4832380000000  0.4472250000000  0.4865820000000 1.0
C      1  0.5060280000000  0.4612390000000  0.5011480000000 1.0
C      1  0.5257890000000  0.4771330000000  0.4862260000000 1.0
C      1  0.5444600000000  0.4935940000000  0.5019330000000 1.0
C      1  0.5434210000000  0.5180880000000  0.4873040000000 1.0
C      1  0.5331630000000  0.5434240000000  0.4974790000000 1.0
C      1  0.5075410000000  0.5441310000000  0.4832390000000 1.0
C      1  0.4816210000000  0.5354790000000  0.4947730000000 1.0
C      1  0.4678050000000  0.5131710000000  0.4802680000000 1.0
C      1  0.4477400000000  0.4962370000000  0.4957370000000 1.0
END
