TITL C-3578199-7832-40 -4.5335700862391e-07 125000 -948.094751949471 0 0 149 (C1) n - 1
REM
REM in /home/bkarasulu/work/CARBON/AIRSS/Generating-Clusters/EDIP-Nigel-Params/with-SteepDescent/Higher-Symm/SD-CG/HFTN-CG
REM
REM
REM
REM
REM
REM ./C.cell (12c818d87b63d06a65506943cc24bca4)
REM
REM compiler GCC version 9.2.1 20190827 (Red Hat 9.2.1-1)
REM options -cpp -mtune=generic -march=x86-64 -g -O0 -fpre-include=/usr/include/finclude/math-vector-fortran.h
REM seed -1539116081 -2094433597 -2065951324 -263084804 819347233 1797377309 1324742362 -989949244 222967252 -1319387062 -702331476 379412745 -2054205572 111020784 -2041932575 823101874 -780139889 -1110208724 622076317 -1419368111 -361604183 1745096800 967389301 -998339914 -60451950 1357981341 -1858207980 1992162908 -1201700856 642106855 -1572180172 336403159 -754221343
REM
CELL 1.54180   50.00000   50.00000   50.00000   90.00000   90.00000   90.00000
LATT -1
SFAC C  
C      1  0.5567270000000  0.4274130000000  0.5025380000000 1.0
C      1  0.4222710000000  0.4962710000000  0.5593010000000 1.0
C      1  0.5042660000000  0.5601090000000  0.4212650000000 1.0
C      1  0.4432320000000  0.5705010000000  0.4999610000000 1.0
C      1  0.5637510000000  0.5876370000000  0.4936560000000 1.0
C      1  0.4402670000000  0.4201220000000  0.5004070000000 1.0
C      1  0.5780830000000  0.4978660000000  0.5620180000000 1.0
C      1  0.4220320000000  0.4956860000000  0.4430600000000 1.0
C      1  0.5752420000000  0.4966570000000  0.4443260000000 1.0
C      1  0.4961050000000  0.4411860000000  0.4177440000000 1.0
C      1  0.4963970000000  0.4457170000000  0.5697240000000 1.0
C      1  0.5062900000000  0.5551530000000  0.5697340000000 1.0
C      1  0.4335740000000  0.5251630000000  0.5588520000000 1.0
C      1  0.5336280000000  0.5605050000000  0.4279810000000 1.0
C      1  0.5576240000000  0.4331750000000  0.5308490000000 1.0
C      1  0.5677300000000  0.4708050000000  0.5616630000000 1.0
C      1  0.4284400000000  0.4671190000000  0.4418000000000 1.0
C      1  0.5665600000000  0.5255390000000  0.4446810000000 1.0
C      1  0.4673360000000  0.4387690000000  0.4279030000000 1.0
C      1  0.5255850000000  0.4422930000000  0.5679920000000 1.0
C      1  0.4764390000000  0.5560030000000  0.5643300000000 1.0
C      1  0.4412240000000  0.5689500000000  0.5296040000000 1.0
C      1  0.5624450000000  0.5722750000000  0.4674490000000 1.0
C      1  0.4403100000000  0.4293520000000  0.4717560000000 1.0
C      1  0.5754990000000  0.5445760000000  0.4657830000000 1.0
C      1  0.5419390000000  0.4654680000000  0.5747150000000 1.0
C      1  0.4674920000000  0.5730050000000  0.5423840000000 1.0
C      1  0.4228160000000  0.4524380000000  0.4663830000000 1.0
C      1  0.5729600000000  0.4576360000000  0.5366040000000 1.0
C      1  0.4230120000000  0.5442730000000  0.5376780000000 1.0
C      1  0.4585570000000  0.5340170000000  0.5734040000000 1.0
C      1  0.5391550000000  0.5313920000000  0.4338060000000 1.0
C      1  0.4537610000000  0.4645450000000  0.4262990000000 1.0
C      1  0.5328740000000  0.4266670000000  0.5447710000000 1.0
C      1  0.4637150000000  0.4236190000000  0.4541960000000 1.0
C      1  0.5385390000000  0.5792400000000  0.4509050000000 1.0
C      1  0.4937980000000  0.3933270000000  0.5498340000000 1.0
C      1  0.3996680000000  0.5479470000000  0.4921220000000 1.0
C      1  0.5463590000000  0.4963170000000  0.3946910000000 1.0
C      1  0.5073690000000  0.6035920000000  0.5457520000000 1.0
C      1  0.4869980000000  0.5989420000000  0.4460400000000 1.0
C      1  0.5089760000000  0.3982160000000  0.4523620000000 1.0
C      1  0.6052470000000  0.4521310000000  0.4977680000000 1.0
C      1  0.3893300000000  0.4488310000000  0.5056550000000 1.0
C      1  0.6058050000000  0.5474370000000  0.5092510000000 1.0
C      1  0.4482270000000  0.5114490000000  0.4061800000000 1.0
C      1  0.5496080000000  0.5042810000000  0.6035130000000 1.0
C      1  0.4525760000000  0.4964330000000  0.6050610000000 1.0
C      1  0.4120610000000  0.4370250000000  0.5471890000000 1.0
C      1  0.4438130000000  0.5511920000000  0.4371930000000 1.0
C      1  0.5395020000000  0.4287600000000  0.4424190000000 1.0
C      1  0.5774980000000  0.5627010000000  0.5398260000000 1.0
C      1  0.4156960000000  0.5509910000000  0.4438840000000 1.0
C      1  0.5840440000000  0.4401480000000  0.4606210000000 1.0
C      1  0.5634430000000  0.4455290000000  0.4421900000000 1.0
C      1  0.4344460000000  0.4435650000000  0.5631700000000 1.0
C      1  0.5629600000000  0.5424950000000  0.5816400000000 1.0
C      1  0.4425510000000  0.5793380000000  0.4440350000000 1.0
C      1  0.5571300000000  0.5584540000000  0.5599770000000 1.0
C      1  0.4544430000000  0.4224070000000  0.5633990000000 1.0
C      1  0.5301660000000  0.5618220000000  0.5491900000000 1.0
C      1  0.5708810000000  0.5635740000000  0.5100680000000 1.0
C      1  0.5401370000000  0.5036810000000  0.5536290000000 1.0
C      1  0.4837530000000  0.4369120000000  0.5421910000000 1.0
C      1  0.5079440000000  0.4359280000000  0.4444240000000 1.0
C      1  0.4955610000000  0.5697300000000  0.4472770000000 1.0
C      1  0.4382370000000  0.4423850000000  0.5196620000000 1.0
C      1  0.5667270000000  0.4537010000000  0.4926760000000 1.0
C      1  0.4374960000000  0.5405750000000  0.4957670000000 1.0
C      1  0.4428350000000  0.4735070000000  0.5635550000000 1.0
C      1  0.5576270000000  0.4731290000000  0.4328570000000 1.0
C      1  0.4510520000000  0.5046880000000  0.4440380000000 1.0
C      1  0.5490050000000  0.4805850000000  0.5075420000000 1.0
C      1  0.4622100000000  0.4805680000000  0.5400360000000 1.0
C      1  0.5145900000000  0.5524130000000  0.4758280000000 1.0
C      1  0.4544600000000  0.5282750000000  0.5204960000000 1.0
C      1  0.5263170000000  0.5083960000000  0.4813000000000 1.0
C      1  0.4629160000000  0.4946970000000  0.4927310000000 1.0
C      1  0.5107060000000  0.5011130000000  0.5391730000000 1.0
C      1  0.4810440000000  0.4833910000000  0.4545840000000 1.0
C      1  0.5194120000000  0.5267040000000  0.4594280000000 1.0
C      1  0.4882170000000  0.4545920000000  0.4722770000000 1.0
C      1  0.5197510000000  0.4717000000000  0.5083400000000 1.0
C      1  0.4837970000000  0.5296910000000  0.5092130000000 1.0
C      1  0.4879930000000  0.4734020000000  0.5790970000000 1.0
C      1  0.4690050000000  0.5787720000000  0.4872690000000 1.0
C      1  0.5874360000000  0.4866590000000  0.4699960000000 1.0
C      1  0.5154650000000  0.5335050000000  0.5868060000000 1.0
C      1  0.4893830000000  0.5334400000000  0.4202120000000 1.0
C      1  0.5096160000000  0.4698620000000  0.4154430000000 1.0
C      1  0.5305770000000  0.4213690000000  0.4894380000000 1.0
C      1  0.4629970000000  0.4049890000000  0.5117410000000 1.0
C      1  0.5338680000000  0.5879230000000  0.5069070000000 1.0
C      1  0.4098200000000  0.5076850000000  0.4666380000000 1.0
C      1  0.5833590000000  0.5125080000000  0.5362580000000 1.0
C      1  0.4036230000000  0.4871120000000  0.5374020000000 1.0
C      1  0.5126620000000  0.4039900000000  0.5060080000000 1.0
C      1  0.3984400000000  0.5044930000000  0.5145080000000 1.0
C      1  0.5029770000000  0.5158030000000  0.4007970000000 1.0
C      1  0.4858210000000  0.5975400000000  0.5028680000000 1.0
C      1  0.5126030000000  0.6016960000000  0.4909450000000 1.0
C      1  0.4860460000000  0.4021770000000  0.4943440000000 1.0
C      1  0.5996380000000  0.4958140000000  0.5173530000000 1.0
C      1  0.3984830000000  0.4918040000000  0.4875170000000 1.0
C      1  0.5990910000000  0.5053660000000  0.4893050000000 1.0
C      1  0.4917390000000  0.4883720000000  0.3996550000000 1.0
C      1  0.5054220000000  0.4864910000000  0.6002670000000 1.0
C      1  0.4970240000000  0.5153610000000  0.6006910000000 1.0
C      1  0.4592390000000  0.4752770000000  0.5881840000000 1.0
C      1  0.4615680000000  0.5936100000000  0.4609360000000 1.0
C      1  0.6021390000000  0.4603820000000  0.4698770000000 1.0
C      1  0.5424640000000  0.5221370000000  0.5814240000000 1.0
C      1  0.4592360000000  0.5364740000000  0.4157350000000 1.0
C      1  0.5399450000000  0.4729360000000  0.4083610000000 1.0
C      1  0.5352010000000  0.4073330000000  0.4626840000000 1.0
C      1  0.4706870000000  0.4088280000000  0.5415180000000 1.0
C      1  0.5293600000000  0.5891150000000  0.5369410000000 1.0
C      1  0.4050450000000  0.5360250000000  0.4663500000000 1.0
C      1  0.5970630000000  0.5405720000000  0.5369430000000 1.0
C      1  0.4034360000000  0.4579480000000  0.5289720000000 1.0
C      1  0.5478660000000  0.4886690000000  0.4772190000000 1.0
C      1  0.4876110000000  0.4889720000000  0.5534690000000 1.0
C      1  0.4860600000000  0.5506070000000  0.4862640000000 1.0
C      1  0.4525130000000  0.5179020000000  0.4739200000000 1.0
C      1  0.5535840000000  0.5117280000000  0.5262680000000 1.0
C      1  0.4523950000000  0.4996000000000  0.5189140000000 1.0
C      1  0.5043960000000  0.5286900000000  0.5304060000000 1.0
C      1  0.4921440000000  0.5198810000000  0.4481700000000 1.0
C      1  0.5092290000000  0.4799710000000  0.4437370000000 1.0
C      1  0.5171190000000  0.4523290000000  0.4847100000000 1.0
C      1  0.4738620000000  0.4676280000000  0.4954430000000 1.0
C      1  0.5331800000000  0.5569290000000  0.5004200000000 1.0
C      1  0.5158410000000  0.5998020000000  0.4609030000000 1.0
C      1  0.5969440000000  0.4668740000000  0.5212270000000 1.0
C      1  0.4679550000000  0.5180760000000  0.5959600000000 1.0
C      1  0.4843200000000  0.4054730000000  0.4655420000000 1.0
C      1  0.5144990000000  0.4060720000000  0.5348000000000 1.0
C      1  0.4856130000000  0.5931690000000  0.5314730000000 1.0
C      1  0.4010420000000  0.5338150000000  0.5176620000000 1.0
C      1  0.5932260000000  0.5335220000000  0.4870450000000 1.0
C      1  0.4020530000000  0.4630290000000  0.4849890000000 1.0
C      1  0.5342090000000  0.4815870000000  0.5975890000000 1.0
C      1  0.4626690000000  0.4858660000000  0.4063500000000 1.0
C      1  0.5314930000000  0.5162530000000  0.4076550000000 1.0
C      1  0.5311960000000  0.4677780000000  0.4614680000000 1.0
C      1  0.4660990000000  0.4558270000000  0.5235390000000 1.0
C      1  0.4742130000000  0.5353980000000  0.4651300000000 1.0
C      1  0.5307950000000  0.5405440000000  0.5261570000000 1.0
C      1  0.5050880000000  0.4979480000000  0.5007340000000 1.0
END
