TITL C-3577077-324-484 4.25155185133095e-06 125000 -976.713578152795 0 0 159 (C1) n - 1
REM
REM in /home/bkarasulu/work/CARBON/AIRSS/Generating-Clusters/EDIP-Nigel-Params/with-SteepDescent/Higher-Symm/SD-CG/HFTN-CG
REM
REM
REM
REM
REM
REM ./C.cell (12c818d87b63d06a65506943cc24bca4)
REM
REM compiler GCC version 9.2.1 20190827 (Red Hat 9.2.1-1)
REM options -cpp -mtune=generic -march=x86-64 -g -O0 -fpre-include=/usr/include/finclude/math-vector-fortran.h
REM seed -1883483439 -705932585 1851698734 -831212577 -1415070559 371739470 -1893778954 1700309629 223057146 -969399464 1427389614 1681981469 -1541776257 134974328 -1565962027 108853947 -854107426 -411747906 262479572 80823640 1186548209 -2128128203 1516833061 -57007477 -1522986991 447059396 -1022225667 -1279593581 -1339034614 -1865061039 -1926039644 1570778352 351782062
REM
CELL 1.54180   50.00000   50.00000   50.00000   90.00000   90.00000   90.00000
LATT -1
SFAC C  
C      1  0.5440410000000  0.4156560000000  0.4533220000000 1.0
C      1  0.4920920000000  0.4047300000000  0.4531400000000 1.0
C      1  0.4448890000000  0.4260190000000  0.4536360000000 1.0
C      1  0.4143700000000  0.4680590000000  0.4533710000000 1.0
C      1  0.4104540000000  0.5209150000000  0.4540220000000 1.0
C      1  0.4367660000000  0.5662160000000  0.4542320000000 1.0
C      1  0.4831750000000  0.5921860000000  0.4534800000000 1.0
C      1  0.5347810000000  0.5886270000000  0.4538210000000 1.0
C      1  0.5729490000000  0.5542010000000  0.4568080000000 1.0
C      1  0.5895600000000  0.5047000000000  0.4565790000000 1.0
C      1  0.5797540000000  0.4534580000000  0.4548690000000 1.0
C      1  0.5672280000000  0.3965000000000  0.5045020000000 1.0
C      1  0.5003270000000  0.3769360000000  0.5048500000000 1.0
C      1  0.4367890000000  0.3984030000000  0.5081840000000 1.0
C      1  0.3930890000000  0.4460850000000  0.5050020000000 1.0
C      1  0.3844290000000  0.5157150000000  0.5057650000000 1.0
C      1  0.4119740000000  0.5792030000000  0.5058980000000 1.0
C      1  0.4663020000000  0.6177440000000  0.5043100000000 1.0
C      1  0.5354770000000  0.6160270000000  0.5070900000000 1.0
C      1  0.5919100000000  0.5796140000000  0.5064300000000 1.0
C      1  0.6158540000000  0.5186450000000  0.5100690000000 1.0
C      1  0.6067290000000  0.4492640000000  0.5092590000000 1.0
C      1  0.5135590000000  0.4468160000000  0.4727940000000 1.0
C      1  0.4846980000000  0.4500790000000  0.4702960000000 1.0
C      1  0.4612610000000  0.4608340000000  0.4856820000000 1.0
C      1  0.4508030000000  0.4947850000000  0.4731070000000 1.0
C      1  0.4544830000000  0.5230400000000  0.4738300000000 1.0
C      1  0.4733050000000  0.5445520000000  0.4725460000000 1.0
C      1  0.4993050000000  0.5450050000000  0.4841860000000 1.0
C      1  0.5247230000000  0.5384590000000  0.4699830000000 1.0
C      1  0.5476940000000  0.5143150000000  0.4640960000000 1.0
C      1  0.5390420000000  0.4883400000000  0.4779270000000 1.0
C      1  0.5395610000000  0.4585620000000  0.4844860000000 1.0
C      1  0.4531770000000  0.4365930000000  0.4288160000000 1.0
C      1  0.4264450000000  0.4727420000000  0.4283160000000 1.0
C      1  0.4238220000000  0.5185200000000  0.4291590000000 1.0
C      1  0.4450510000000  0.5566940000000  0.4287820000000 1.0
C      1  0.4855370000000  0.5787120000000  0.4289770000000 1.0
C      1  0.5301170000000  0.5759600000000  0.4288050000000 1.0
C      1  0.5624990000000  0.5467730000000  0.4317680000000 1.0
C      1  0.5757010000000  0.5045060000000  0.4321720000000 1.0
C      1  0.5679550000000  0.4600080000000  0.4301680000000 1.0
C      1  0.5384740000000  0.4280050000000  0.4285000000000 1.0
C      1  0.4929390000000  0.4184280000000  0.4282920000000 1.0
C      1  0.5193480000000  0.4034780000000  0.4667610000000 1.0
C      1  0.4659020000000  0.4100510000000  0.4680520000000 1.0
C      1  0.4257680000000  0.4440400000000  0.4678250000000 1.0
C      1  0.4069130000000  0.4938320000000  0.4675730000000 1.0
C      1  0.4176780000000  0.5467890000000  0.4685070000000 1.0
C      1  0.4573190000000  0.5853870000000  0.4671850000000 1.0
C      1  0.5095460000000  0.5971920000000  0.4672650000000 1.0
C      1  0.5586520000000  0.5774890000000  0.4693250000000 1.0
C      1  0.5864050000000  0.5312060000000  0.4707280000000 1.0
C      1  0.5928250000000  0.4769840000000  0.4689640000000 1.0
C      1  0.5670570000000  0.4293230000000  0.4675600000000 1.0
C      1  0.5467730000000  0.5872810000000  0.5454650000000 1.0
C      1  0.5793110000000  0.5470540000000  0.5432320000000 1.0
C      1  0.5915370000000  0.4920380000000  0.5440320000000 1.0
C      1  0.5745470000000  0.4403300000000  0.5456220000000 1.0
C      1  0.5330640000000  0.4095080000000  0.5389380000000 1.0
C      1  0.4795090000000  0.4025990000000  0.5414200000000 1.0
C      1  0.4351920000000  0.4313790000000  0.5458120000000 1.0
C      1  0.4078550000000  0.4778050000000  0.5405600000000 1.0
C      1  0.4138190000000  0.5329160000000  0.5413410000000 1.0
C      1  0.4442930000000  0.5758320000000  0.5421310000000 1.0
C      1  0.4947350000000  0.5935880000000  0.5392780000000 1.0
C      1  0.5487800000000  0.4285850000000  0.5552240000000 1.0
C      1  0.5068480000000  0.4066980000000  0.5519980000000 1.0
C      1  0.4617280000000  0.4213250000000  0.5573960000000 1.0
C      1  0.4246240000000  0.4582860000000  0.5562980000000 1.0
C      1  0.4120190000000  0.5053790000000  0.5519050000000 1.0
C      1  0.4360510000000  0.5500870000000  0.5549580000000 1.0
C      1  0.4713290000000  0.5824300000000  0.5534420000000 1.0
C      1  0.5187840000000  0.5874960000000  0.5561280000000 1.0
C      1  0.5567010000000  0.5612460000000  0.5564240000000 1.0
C      1  0.5766570000000  0.5176310000000  0.5528810000000 1.0
C      1  0.5774840000000  0.4679890000000  0.5577780000000 1.0
C      1  0.4365700000000  0.4263820000000  0.5145740000000 1.0
C      1  0.3988960000000  0.4719900000000  0.5130750000000 1.0
C      1  0.3966060000000  0.5376240000000  0.5164830000000 1.0
C      1  0.4398330000000  0.5783130000000  0.5121240000000 1.0
C      1  0.4902530000000  0.6073120000000  0.5135540000000 1.0
C      1  0.5484990000000  0.5920200000000  0.5146040000000 1.0
C      1  0.5836670000000  0.5539900000000  0.5145710000000 1.0
C      1  0.6045050000000  0.4945910000000  0.5172870000000 1.0
C      1  0.5800130000000  0.4413010000000  0.5151400000000 1.0
C      1  0.5406850000000  0.3999420000000  0.5120700000000 1.0
C      1  0.4822320000000  0.3980120000000  0.5111850000000 1.0
C      1  0.5334430000000  0.5676210000000  0.5044090000000 1.0
C      1  0.5483430000000  0.5407720000000  0.4909960000000 1.0
C      1  0.5672560000000  0.4999270000000  0.4940500000000 1.0
C      1  0.5613440000000  0.4647410000000  0.5078340000000 1.0
C      1  0.5185010000000  0.4378840000000  0.5092300000000 1.0
C      1  0.4891880000000  0.4267970000000  0.5018620000000 1.0
C      1  0.4638150000000  0.4431750000000  0.5095980000000 1.0
C      1  0.4370140000000  0.4884540000000  0.4983790000000 1.0
C      1  0.4380610000000  0.5263260000000  0.5085550000000 1.0
C      1  0.4558170000000  0.5525700000000  0.5057130000000 1.0
C      1  0.5019990000000  0.5655880000000  0.5057790000000 1.0
C      1  0.4642900000000  0.5380060000000  0.4197450000000 1.0
C      1  0.4903630000000  0.5520290000000  0.4217290000000 1.0
C      1  0.5196420000000  0.5511310000000  0.4200450000000 1.0
C      1  0.5406360000000  0.5307830000000  0.4237420000000 1.0
C      1  0.5495060000000  0.5023840000000  0.4220770000000 1.0
C      1  0.5443510000000  0.4731840000000  0.4223080000000 1.0
C      1  0.5247990000000  0.4513850000000  0.4207850000000 1.0
C      1  0.4960240000000  0.4453090000000  0.4201290000000 1.0
C      1  0.4694220000000  0.4584620000000  0.4212130000000 1.0
C      1  0.4515620000000  0.4821660000000  0.4197180000000 1.0
C      1  0.4501530000000  0.5118470000000  0.4212490000000 1.0
C      1  0.5283760000000  0.4619070000000  0.5978580000000 1.0
C      1  0.5032190000000  0.4610470000000  0.6101670000000 1.0
C      1  0.4787450000000  0.4552930000000  0.5979030000000 1.0
C      1  0.4579660000000  0.4750950000000  0.5967550000000 1.0
C      1  0.4616750000000  0.5007830000000  0.6067830000000 1.0
C      1  0.4662580000000  0.5273860000000  0.5998230000000 1.0
C      1  0.4892260000000  0.5383110000000  0.6111150000000 1.0
C      1  0.5139330000000  0.5488870000000  0.6041420000000 1.0
C      1  0.5353830000000  0.5316440000000  0.6078670000000 1.0
C      1  0.5499030000000  0.5105390000000  0.5972360000000 1.0
C      1  0.5441810000000  0.4841840000000  0.6049830000000 1.0
C      1  0.5167000000000  0.4624990000000  0.5259360000000 1.0
C      1  0.4936910000000  0.4661790000000  0.5407790000000 1.0
C      1  0.4683810000000  0.4638890000000  0.5296400000000 1.0
C      1  0.4567980000000  0.4883780000000  0.5204140000000 1.0
C      1  0.4526230000000  0.5133380000000  0.5370080000000 1.0
C      1  0.4803440000000  0.5253770000000  0.5378170000000 1.0
C      1  0.4793540000000  0.5539140000000  0.5269940000000 1.0
C      1  0.5200400000000  0.5428080000000  0.5314460000000 1.0
C      1  0.5360880000000  0.5247370000000  0.5137230000000 1.0
C      1  0.5549930000000  0.5052640000000  0.5230310000000 1.0
C      1  0.5425620000000  0.4768280000000  0.5318230000000 1.0
C      1  0.5698830000000  0.5906140000000  0.4940380000000 1.0
C      1  0.5956380000000  0.5335650000000  0.4981960000000 1.0
C      1  0.6033340000000  0.4741860000000  0.4969100000000 1.0
C      1  0.5755970000000  0.4205240000000  0.4943820000000 1.0
C      1  0.5218350000000  0.3893720000000  0.4927860000000 1.0
C      1  0.4594980000000  0.3948990000000  0.4930730000000 1.0
C      1  0.4164820000000  0.4358910000000  0.4946420000000 1.0
C      1  0.3932490000000  0.4927040000000  0.4938180000000 1.0
C      1  0.4064780000000  0.5545220000000  0.4951770000000 1.0
C      1  0.4518780000000  0.5972510000000  0.4934560000000 1.0
C      1  0.5118610000000  0.6075910000000  0.4948750000000 1.0
C      1  0.4345080000000  0.5037790000000  0.5690150000000 1.0
C      1  0.4592080000000  0.5403990000000  0.5737500000000 1.0
C      1  0.4804380000000  0.5608750000000  0.5707890000000 1.0
C      1  0.5113430000000  0.5611010000000  0.5763930000000 1.0
C      1  0.5321900000000  0.5433560000000  0.5594180000000 1.0
C      1  0.5497930000000  0.5101390000000  0.5678010000000 1.0
C      1  0.5491140000000  0.4783190000000  0.5622570000000 1.0
C      1  0.5312850000000  0.4406410000000  0.5770110000000 1.0
C      1  0.5067330000000  0.4238060000000  0.5752120000000 1.0
C      1  0.4796140000000  0.4339590000000  0.5782800000000 1.0
C      1  0.4402000000000  0.4762320000000  0.5743710000000 1.0
C      1  0.4952270000000  0.4931020000000  0.4720100000000 1.0
C      1  0.4998920000000  0.4989270000000  0.4459290000000 1.0
C      1  0.5016440000000  0.5025030000000  0.4970130000000 1.0
C      1  0.4967570000000  0.5072650000000  0.5237150000000 1.0
C      1  0.5007180000000  0.4993160000000  0.4201430000000 1.0
END
