TITL C-3578197-9521-43 -2.29735941756357e-06 125000 -300.031012281944 0 0 50 (C1) n - 1
REM
REM in /home/bkarasulu/work/CARBON/AIRSS/Generating-Clusters/EDIP-Nigel-Params/with-SteepDescent/Higher-Symm/SD-CG/HFTN-CG
REM
REM
REM
REM
REM
REM ./C.cell (12c818d87b63d06a65506943cc24bca4)
REM
REM compiler GCC version 9.2.1 20190827 (Red Hat 9.2.1-1)
REM options -cpp -mtune=generic -march=x86-64 -g -O0 -fpre-include=/usr/include/finclude/math-vector-fortran.h
REM seed 1581673317 -618318526 990997195 -135659669 1160038912 608219531 1254976553 -984098007 -404603243 1166454429 1636513222 -115676582 169851199 1124536213 -1308550748 -950382080 350163957 350039608 123629594 17108524 -1573511820 -876238447 1421045215 -2021768731 1789983799 -2025320821 -1663915260 -1131080716 -2122863894 -641136414 400295304 -1255840396 -1426043636
REM
CELL 1.54180   50.00000   50.00000   50.00000   90.00000   90.00000   90.00000
LATT -1
SFAC C  
C      1  0.4414610000000  0.5459640000000  0.4855170000000 1.0
C      1  0.5134590000000  0.5455530000000  0.5567460000000 1.0
C      1  0.5392740000000  0.5455710000000  0.4596940000000 1.0
C      1  0.4731090000000  0.4284470000000  0.4968210000000 1.0
C      1  0.4989570000000  0.4232170000000  0.5126130000000 1.0
C      1  0.5208630000000  0.4275530000000  0.4895550000000 1.0
C      1  0.4851470000000  0.5422250000000  0.5484310000000 1.0
C      1  0.5473330000000  0.5435740000000  0.4884440000000 1.0
C      1  0.4629000000000  0.5443220000000  0.4644470000000 1.0
C      1  0.5254550000000  0.4671690000000  0.4592590000000 1.0
C      1  0.4468910000000  0.4683770000000  0.4979140000000 1.0
C      1  0.5242360000000  0.4667870000000  0.5462690000000 1.0
C      1  0.5278390000000  0.4423850000000  0.5308310000000 1.0
C      1  0.5096770000000  0.4415010000000  0.4643530000000 1.0
C      1  0.4527640000000  0.4431380000000  0.5116330000000 1.0
C      1  0.5269360000000  0.5538240000000  0.5087250000000 1.0
C      1  0.4909830000000  0.5547650000000  0.4722930000000 1.0
C      1  0.4773730000000  0.5530680000000  0.5210680000000 1.0
C      1  0.5629030000000  0.4947130000000  0.4769060000000 1.0
C      1  0.4469150000000  0.4939680000000  0.4554250000000 1.0
C      1  0.4883480000000  0.4935060000000  0.5668940000000 1.0
C      1  0.4810880000000  0.5120510000000  0.5442610000000 1.0
C      1  0.5478500000000  0.5132980000000  0.4953410000000 1.0
C      1  0.4692150000000  0.5135090000000  0.4621600000000 1.0
C      1  0.4632730000000  0.4896020000000  0.5101020000000 1.0
C      1  0.5275830000000  0.4904520000000  0.5281560000000 1.0
C      1  0.5077350000000  0.4898380000000  0.4672040000000 1.0
C      1  0.5561960000000  0.5297950000000  0.4440550000000 1.0
C      1  0.4205210000000  0.5292890000000  0.4769400000000 1.0
C      1  0.5179380000000  0.5295510000000  0.5792670000000 1.0
C      1  0.5053200000000  0.5105200000000  0.5225640000000 1.0
C      1  0.5171580000000  0.5108520000000  0.4885530000000 1.0
C      1  0.4731690000000  0.5114590000000  0.4924980000000 1.0
C      1  0.5068870000000  0.5054260000000  0.5843680000000 1.0
C      1  0.5670840000000  0.5063810000000  0.4517600000000 1.0
C      1  0.4226120000000  0.5059900000000  0.4632610000000 1.0
C      1  0.4844920000000  0.4519820000000  0.4802100000000 1.0
C      1  0.4849860000000  0.4561090000000  0.5282330000000 1.0
C      1  0.5286380000000  0.4540210000000  0.5030680000000 1.0
C      1  0.5113210000000  0.5340630000000  0.4640640000000 1.0
C      1  0.4580610000000  0.5336020000000  0.5082780000000 1.0
C      1  0.5255730000000  0.5342710000000  0.5314130000000 1.0
C      1  0.4538020000000  0.5063490000000  0.5321170000000 1.0
C      1  0.5513260000000  0.5073530000000  0.5252180000000 1.0
C      1  0.4961200000000  0.5089360000000  0.4480900000000 1.0
C      1  0.4528210000000  0.4682230000000  0.4689720000000 1.0
C      1  0.4960660000000  0.4663720000000  0.5558760000000 1.0
C      1  0.5497490000000  0.4685050000000  0.4762290000000 1.0
C      1  0.5000500000000  0.4663000000000  0.5034920000000 1.0
C      1  0.4984400000000  0.5603350000000  0.5009420000000 1.0
END
