TITL C-3577088-510-634 -2.74480641796933e-06 125000 -1209.08186791454 0 0 192 (C1) n - 1
REM
REM in /home/bkarasulu/work/CARBON/AIRSS/Generating-Clusters/EDIP-Nigel-Params/with-SteepDescent/Higher-Symm/SD-CG/HFTN-CG
REM
REM
REM
REM
REM
REM ./C.cell (12c818d87b63d06a65506943cc24bca4)
REM
REM compiler GCC version 9.2.1 20190827 (Red Hat 9.2.1-1)
REM options -cpp -mtune=generic -march=x86-64 -g -O0 -fpre-include=/usr/include/finclude/math-vector-fortran.h
REM seed -1095488240 -1668996222 1160260972 -1254418116 -1227517544 112062507 -756935665 -664242072 618563656 1335535794 -2029384258 2013147446 1878852567 -19457968 -621355665 -607891308 -1854052366 -545182152 -692052036 -765981602 470472242 -1379149268 -1886076052 -1576260152 1769802333 -1192840907 370616211 1665175794 -1022314971 -151002130 -1701394098 -1283459743 -18826405
REM
CELL 1.54180   50.00000   50.00000   50.00000   90.00000   90.00000   90.00000
LATT -1
SFAC C  
C      1  0.5870410000000  0.5317500000000  0.5604190000000 1.0
C      1  0.5862020000000  0.4571380000000  0.5478870000000 1.0
C      1  0.5867640000000  0.4416970000000  0.4714260000000 1.0
C      1  0.5844540000000  0.5098850000000  0.4358420000000 1.0
C      1  0.5852520000000  0.5651000000000  0.4901630000000 1.0
C      1  0.4817900000000  0.4106130000000  0.5278540000000 1.0
C      1  0.4898690000000  0.4298520000000  0.4055910000000 1.0
C      1  0.4900020000000  0.5604070000000  0.4185250000000 1.0
C      1  0.4931630000000  0.6074120000000  0.5369290000000 1.0
C      1  0.4931140000000  0.4998860000000  0.6147700000000 1.0
C      1  0.4701520000000  0.5320360000000  0.5221670000000 1.0
C      1  0.4683050000000  0.4863600000000  0.5395300000000 1.0
C      1  0.4692350000000  0.4530910000000  0.5003030000000 1.0
C      1  0.4689920000000  0.4831170000000  0.4580350000000 1.0
C      1  0.4720820000000  0.5322960000000  0.4712700000000 1.0
C      1  0.5681720000000  0.5890150000000  0.4795840000000 1.0
C      1  0.5676580000000  0.5481150000000  0.5789490000000 1.0
C      1  0.5655030000000  0.4453750000000  0.5689220000000 1.0
C      1  0.5673250000000  0.4165710000000  0.4654590000000 1.0
C      1  0.5665710000000  0.5080830000000  0.4097620000000 1.0
C      1  0.3977420000000  0.5239110000000  0.4913720000000 1.0
C      1  0.4150490000000  0.5258180000000  0.5169920000000 1.0
C      1  0.4053670000000  0.5016620000000  0.5329530000000 1.0
C      1  0.3958270000000  0.4822510000000  0.5123370000000 1.0
C      1  0.4165140000000  0.4874080000000  0.4639490000000 1.0
C      1  0.5066180000000  0.5571140000000  0.5177300000000 1.0
C      1  0.5158200000000  0.5034080000000  0.5661420000000 1.0
C      1  0.5163840000000  0.4402150000000  0.5181880000000 1.0
C      1  0.5124410000000  0.4605500000000  0.4488370000000 1.0
C      1  0.5098820000000  0.5363580000000  0.4482680000000 1.0
C      1  0.5207270000000  0.4357410000000  0.4897370000000 1.0
C      1  0.5183590000000  0.4871700000000  0.4360710000000 1.0
C      1  0.5175920000000  0.5558780000000  0.4699950000000 1.0
C      1  0.5186960000000  0.5438080000000  0.5417180000000 1.0
C      1  0.5153010000000  0.4811970000000  0.5468960000000 1.0
C      1  0.5980570000000  0.4890890000000  0.4525140000000 1.0
C      1  0.5964170000000  0.5421760000000  0.4751540000000 1.0
C      1  0.5989710000000  0.5389570000000  0.5337890000000 1.0
C      1  0.6046460000000  0.4823650000000  0.5514490000000 1.0
C      1  0.6019900000000  0.4501510000000  0.4963740000000 1.0
C      1  0.5290750000000  0.5789880000000  0.5872440000000 1.0
C      1  0.5285420000000  0.4431740000000  0.6011340000000 1.0
C      1  0.5281150000000  0.3888060000000  0.4802190000000 1.0
C      1  0.5269770000000  0.4849940000000  0.3862860000000 1.0
C      1  0.5295320000000  0.6057040000000  0.4531380000000 1.0
C      1  0.4682710000000  0.6107260000000  0.5215980000000 1.0
C      1  0.4677900000000  0.5141550000000  0.6137200000000 1.0
C      1  0.4647490000000  0.3947100000000  0.5481690000000 1.0
C      1  0.4652110000000  0.4171700000000  0.4140960000000 1.0
C      1  0.4671890000000  0.5536860000000  0.4013100000000 1.0
C      1  0.4960480000000  0.4853470000000  0.4739520000000 1.0
C      1  0.4996520000000  0.5166010000000  0.4798990000000 1.0
C      1  0.4974630000000  0.5195250000000  0.5115920000000 1.0
C      1  0.4954760000000  0.4901870000000  0.5240340000000 1.0
C      1  0.4951980000000  0.4695510000000  0.5012100000000 1.0
C      1  0.5537820000000  0.4845150000000  0.3965530000000 1.0
C      1  0.5551460000000  0.5937990000000  0.4535250000000 1.0
C      1  0.5543850000000  0.5740820000000  0.5754470000000 1.0
C      1  0.5541690000000  0.4531850000000  0.5945740000000 1.0
C      1  0.5548400000000  0.3976360000000  0.4847080000000 1.0
C      1  0.4683410000000  0.5324070000000  0.4403670000000 1.0
C      1  0.4627610000000  0.5580790000000  0.5112540000000 1.0
C      1  0.4612390000000  0.5071610000000  0.5600220000000 1.0
C      1  0.4644350000000  0.4370370000000  0.5267320000000 1.0
C      1  0.4619160000000  0.4554620000000  0.4521200000000 1.0
C      1  0.5455680000000  0.4733600000000  0.5409300000000 1.0
C      1  0.5459560000000  0.4507660000000  0.4831110000000 1.0
C      1  0.5431190000000  0.4998190000000  0.4461180000000 1.0
C      1  0.5438110000000  0.5520160000000  0.4821270000000 1.0
C      1  0.5471870000000  0.5350840000000  0.5417120000000 1.0
C      1  0.4464310000000  0.5988160000000  0.5375910000000 1.0
C      1  0.4458890000000  0.4954910000000  0.6050260000000 1.0
C      1  0.4407950000000  0.3939290000000  0.5265150000000 1.0
C      1  0.4433180000000  0.4361320000000  0.4079210000000 1.0
C      1  0.4462170000000  0.5680380000000  0.4167670000000 1.0
C      1  0.4880900000000  0.5921040000000  0.5619990000000 1.0
C      1  0.4883320000000  0.4708690000000  0.6073000000000 1.0
C      1  0.4825550000000  0.3937240000000  0.5018810000000 1.0
C      1  0.4856070000000  0.4561600000000  0.3922610000000 1.0
C      1  0.4880520000000  0.5886890000000  0.4294910000000 1.0
C      1  0.5898560000000  0.5027940000000  0.5672660000000 1.0
C      1  0.5897600000000  0.4415910000000  0.5217590000000 1.0
C      1  0.5882960000000  0.4619850000000  0.4494050000000 1.0
C      1  0.5852470000000  0.5365820000000  0.4490000000000 1.0
C      1  0.5867040000000  0.5616890000000  0.5198760000000 1.0
C      1  0.4203200000000  0.5552000000000  0.4565550000000 1.0
C      1  0.4048550000000  0.5500500000000  0.5573020000000 1.0
C      1  0.4030530000000  0.4676600000000  0.5672550000000 1.0
C      1  0.4143660000000  0.4321380000000  0.5102250000000 1.0
C      1  0.4013640000000  0.4836340000000  0.4186490000000 1.0
C      1  0.4501830000000  0.4677770000000  0.5759540000000 1.0
C      1  0.4467780000000  0.4132920000000  0.4790100000000 1.0
C      1  0.4483880000000  0.4800730000000  0.4124420000000 1.0
C      1  0.4553630000000  0.5808980000000  0.4636910000000 1.0
C      1  0.4513970000000  0.5593680000000  0.5577820000000 1.0
C      1  0.4447550000000  0.5171070000000  0.5115730000000 1.0
C      1  0.4462920000000  0.4891950000000  0.5210350000000 1.0
C      1  0.4472200000000  0.4722340000000  0.4985980000000 1.0
C      1  0.4448310000000  0.4897790000000  0.4750670000000 1.0
C      1  0.4489460000000  0.5173450000000  0.4827840000000 1.0
C      1  0.6197310000000  0.4753700000000  0.4976930000000 1.0
C      1  0.6142430000000  0.4953200000000  0.4760570000000 1.0
C      1  0.6107910000000  0.5210870000000  0.4885770000000 1.0
C      1  0.6139580000000  0.5199920000000  0.5173520000000 1.0
C      1  0.6232840000000  0.4929580000000  0.5265180000000 1.0
C      1  0.4831720000000  0.4255940000000  0.5850690000000 1.0
C      1  0.4877750000000  0.3890050000000  0.4514270000000 1.0
C      1  0.4794880000000  0.5061540000000  0.3851190000000 1.0
C      1  0.4856470000000  0.6188830000000  0.4717750000000 1.0
C      1  0.4838590000000  0.5639700000000  0.6036850000000 1.0
C      1  0.5110850000000  0.5399740000000  0.5912190000000 1.0
C      1  0.5139460000000  0.4294270000000  0.5626160000000 1.0
C      1  0.5182550000000  0.4118760000000  0.4439020000000 1.0
C      1  0.5107000000000  0.5229330000000  0.4005080000000 1.0
C      1  0.5112690000000  0.5990770000000  0.4926500000000 1.0
C      1  0.5482910000000  0.5298440000000  0.5933350000000 1.0
C      1  0.5453190000000  0.4288590000000  0.5561740000000 1.0
C      1  0.5471600000000  0.4224870000000  0.4440640000000 1.0
C      1  0.5480350000000  0.5315420000000  0.4071870000000 1.0
C      1  0.5494840000000  0.6000540000000  0.5004080000000 1.0
C      1  0.4280820000000  0.5513030000000  0.5727160000000 1.0
C      1  0.4255640000000  0.4525590000000  0.5736720000000 1.0
C      1  0.4214040000000  0.4239420000000  0.4838650000000 1.0
C      1  0.4237200000000  0.4939870000000  0.4050450000000 1.0
C      1  0.4259780000000  0.5805610000000  0.4714060000000 1.0
C      1  0.4998420000000  0.3902690000000  0.4778710000000 1.0
C      1  0.4983450000000  0.4825920000000  0.3876240000000 1.0
C      1  0.5013820000000  0.6049400000000  0.4505010000000 1.0
C      1  0.5008320000000  0.5821960000000  0.5866400000000 1.0
C      1  0.5002850000000  0.4442920000000  0.6018510000000 1.0
C      1  0.5425680000000  0.4509980000000  0.4518690000000 1.0
C      1  0.5395020000000  0.5301750000000  0.4371750000000 1.0
C      1  0.5414100000000  0.5715690000000  0.5097020000000 1.0
C      1  0.5441180000000  0.5122030000000  0.5687460000000 1.0
C      1  0.5436510000000  0.4439460000000  0.5303090000000 1.0
C      1  0.5165450000000  0.6066860000000  0.5205710000000 1.0
C      1  0.5156900000000  0.5175760000000  0.6106160000000 1.0
C      1  0.5078870000000  0.4178430000000  0.5353280000000 1.0
C      1  0.5123210000000  0.4183050000000  0.4166280000000 1.0
C      1  0.5144260000000  0.5511940000000  0.4068690000000 1.0
C      1  0.5621440000000  0.4684000000000  0.4367340000000 1.0
C      1  0.5590450000000  0.5497870000000  0.4501010000000 1.0
C      1  0.5601970000000  0.5646400000000  0.5324000000000 1.0
C      1  0.5636190000000  0.4894060000000  0.5711930000000 1.0
C      1  0.5643160000000  0.4318850000000  0.5109870000000 1.0
C      1  0.4312310000000  0.5214440000000  0.4040770000000 1.0
C      1  0.4367030000000  0.6073890000000  0.4830530000000 1.0
C      1  0.4360580000000  0.5406670000000  0.5971050000000 1.0
C      1  0.4318610000000  0.4265780000000  0.5613500000000 1.0
C      1  0.4395870000000  0.4025820000000  0.4543630000000 1.0
C      1  0.5009870000000  0.5697550000000  0.4893690000000 1.0
C      1  0.5024670000000  0.5308230000000  0.5624660000000 1.0
C      1  0.5008270000000  0.4577110000000  0.5597430000000 1.0
C      1  0.5021580000000  0.4327220000000  0.4656150000000 1.0
C      1  0.4994160000000  0.5065920000000  0.4248790000000 1.0
C      1  0.4125710000000  0.4698620000000  0.4405720000000 1.0
C      1  0.4010760000000  0.5395720000000  0.4685390000000 1.0
C      1  0.4140320000000  0.5524560000000  0.5307630000000 1.0
C      1  0.4126690000000  0.4931760000000  0.5604990000000 1.0
C      1  0.3982540000000  0.4543910000000  0.5141170000000 1.0
C      1  0.5623880000000  0.4609880000000  0.4086010000000 1.0
C      1  0.5603260000000  0.5742940000000  0.4345640000000 1.0
C      1  0.5606230000000  0.5865170000000  0.5516250000000 1.0
C      1  0.5611770000000  0.4796020000000  0.5986870000000 1.0
C      1  0.5631790000000  0.4028160000000  0.5107930000000 1.0
C      1  0.4641690000000  0.4019380000000  0.4396810000000 1.0
C      1  0.4596940000000  0.5255980000000  0.3970570000000 1.0
C      1  0.4644270000000  0.6127130000000  0.4918970000000 1.0
C      1  0.4645230000000  0.5409310000000  0.6024890000000 1.0
C      1  0.4586190000000  0.4136410000000  0.5708480000000 1.0
C      1  0.4392670000000  0.4569710000000  0.4322600000000 1.0
C      1  0.4386080000000  0.5439430000000  0.4335860000000 1.0
C      1  0.4406020000000  0.5681970000000  0.5290340000000 1.0
C      1  0.4359450000000  0.5077120000000  0.5762170000000 1.0
C      1  0.4353150000000  0.4240560000000  0.5306160000000 1.0
C      1  0.4696900000000  0.5007060000000  0.4323540000000 1.0
C      1  0.4719770000000  0.5613330000000  0.4828640000000 1.0
C      1  0.4718680000000  0.5331490000000  0.5528510000000 1.0
C      1  0.4712060000000  0.4583420000000  0.5521410000000 1.0
C      1  0.4696450000000  0.4364050000000  0.4741810000000 1.0
C      1  0.4535690000000  0.3914470000000  0.4988170000000 1.0
C      1  0.4566880000000  0.4590600000000  0.3915050000000 1.0
C      1  0.4593570000000  0.5883150000000  0.4344140000000 1.0
C      1  0.4595180000000  0.5886890000000  0.5635670000000 1.0
C      1  0.4597270000000  0.4681210000000  0.6042370000000 1.0
C      1  0.5455890000000  0.4787120000000  0.4924110000000 1.0
C      1  0.5409480000000  0.5009610000000  0.4755270000000 1.0
C      1  0.5417410000000  0.5244560000000  0.4918410000000 1.0
C      1  0.5503190000000  0.5174120000000  0.5180250000000 1.0
C      1  0.5566660000000  0.4886860000000  0.5177470000000 1.0
C      1  0.5871150000000  0.4848160000000  0.5169070000000 1.0
C      1  0.3947520000000  0.4949920000000  0.4848930000000 1.0
END
