TITL C-3578196-9646-471 -2.14395788328734e-07 125000 -885.274310254302 0 0 142 (C1) n - 1
REM
REM in /home/bkarasulu/work/CARBON/AIRSS/Generating-Clusters/EDIP-Nigel-Params/with-SteepDescent/Higher-Symm/SD-CG/HFTN-CG
REM
REM
REM
REM
REM
REM ./C.cell (12c818d87b63d06a65506943cc24bca4)
REM
REM compiler GCC version 9.2.1 20190827 (Red Hat 9.2.1-1)
REM options -cpp -mtune=generic -march=x86-64 -g -O0 -fpre-include=/usr/include/finclude/math-vector-fortran.h
REM seed -1320703405 -1111983770 1544047881 451916198 517283755 1097941676 1953392269 -147053884 -1952004329 -650903052 -1373111931 5775655 -230588985 -836172782 -989299732 -1309575578 -143812914 -435970462 -2132823236 -429939528 -2005476883 -630198149 793307199 -1103817470 1186662582 -1215474514 1337013931 584856915 601653845 878226163 1082851933 247789620 1696406028
REM
CELL 1.54180   50.00000   50.00000   50.00000   90.00000   90.00000   90.00000
LATT -1
SFAC C  
C      1  0.5171570000000  0.3837540000000  0.4938540000000 1.0
C      1  0.3898890000000  0.5439800000000  0.4895360000000 1.0
C      1  0.5749160000000  0.5493320000000  0.4960490000000 1.0
C      1  0.4969800000000  0.4025950000000  0.4927070000000 1.0
C      1  0.6013180000000  0.5416300000000  0.4918600000000 1.0
C      1  0.4162980000000  0.5466900000000  0.4982270000000 1.0
C      1  0.4298790000000  0.4766870000000  0.5584780000000 1.0
C      1  0.5103420000000  0.5758790000000  0.5538330000000 1.0
C      1  0.5619950000000  0.4487710000000  0.5540430000000 1.0
C      1  0.5767410000000  0.4755860000000  0.5530120000000 1.0
C      1  0.4805670000000  0.5741150000000  0.5531080000000 1.0
C      1  0.4442370000000  0.4511780000000  0.5540030000000 1.0
C      1  0.5146270000000  0.5238670000000  0.5653240000000 1.0
C      1  0.5188110000000  0.4747070000000  0.5643000000000 1.0
C      1  0.4751780000000  0.4974840000000  0.5733050000000 1.0
C      1  0.4850210000000  0.5227360000000  0.5606880000000 1.0
C      1  0.4890850000000  0.4752320000000  0.5584230000000 1.0
C      1  0.5316760000000  0.4992220000000  0.5499110000000 1.0
C      1  0.4420090000000  0.4607390000000  0.5106260000000 1.0
C      1  0.4820050000000  0.5780040000000  0.5043950000000 1.0
C      1  0.5787870000000  0.4710490000000  0.5044990000000 1.0
C      1  0.5589600000000  0.4502740000000  0.5083730000000 1.0
C      1  0.5115620000000  0.5862180000000  0.5055370000000 1.0
C      1  0.4214330000000  0.4821250000000  0.5108880000000 1.0
C      1  0.5708630000000  0.4747680000000  0.4153700000000 1.0
C      1  0.4482300000000  0.4638930000000  0.4078160000000 1.0
C      1  0.4997760000000  0.5669570000000  0.4012470000000 1.0
C      1  0.4336420000000  0.4870650000000  0.4104020000000 1.0
C      1  0.5565370000000  0.4518980000000  0.4108960000000 1.0
C      1  0.5266280000000  0.5647050000000  0.4048420000000 1.0
C      1  0.5362610000000  0.4342810000000  0.4159150000000 1.0
C      1  0.4278830000000  0.5092540000000  0.4273120000000 1.0
C      1  0.5486540000000  0.5543440000000  0.4171380000000 1.0
C      1  0.4696770000000  0.4522990000000  0.4227480000000 1.0
C      1  0.5738840000000  0.5003660000000  0.4245350000000 1.0
C      1  0.4733560000000  0.5629660000000  0.4061610000000 1.0
C      1  0.4860140000000  0.4045570000000  0.5542780000000 1.0
C      1  0.4193810000000  0.5555560000000  0.5647270000000 1.0
C      1  0.5872020000000  0.5443160000000  0.5544900000000 1.0
C      1  0.5156670000000  0.4023050000000  0.5536090000000 1.0
C      1  0.5690710000000  0.5699240000000  0.5543660000000 1.0
C      1  0.4060630000000  0.5282930000000  0.5680490000000 1.0
C      1  0.4889750000000  0.4315700000000  0.4208600000000 1.0
C      1  0.4549830000000  0.5540200000000  0.4254800000000 1.0
C      1  0.5648750000000  0.5164050000000  0.4459830000000 1.0
C      1  0.5144050000000  0.4287610000000  0.4330100000000 1.0
C      1  0.5535230000000  0.5436070000000  0.4428410000000 1.0
C      1  0.4364510000000  0.5344150000000  0.4189060000000 1.0
C      1  0.4667450000000  0.4786320000000  0.5126570000000 1.0
C      1  0.4821960000000  0.5473630000000  0.5051460000000 1.0
C      1  0.5301950000000  0.4920820000000  0.5193890000000 1.0
C      1  0.5308490000000  0.4630080000000  0.5130710000000 1.0
C      1  0.5130440000000  0.5464260000000  0.5073540000000 1.0
C      1  0.4422460000000  0.5059050000000  0.5083920000000 1.0
C      1  0.4745510000000  0.4491240000000  0.5569730000000 1.0
C      1  0.4670130000000  0.5474040000000  0.5619940000000 1.0
C      1  0.5622380000000  0.5028460000000  0.5572330000000 1.0
C      1  0.5313520000000  0.4481540000000  0.5547590000000 1.0
C      1  0.5268190000000  0.5502570000000  0.5573750000000 1.0
C      1  0.4454320000000  0.4982030000000  0.5699610000000 1.0
C      1  0.3836030000000  0.4985200000000  0.4851880000000 1.0
C      1  0.5540910000000  0.5904140000000  0.4826280000000 1.0
C      1  0.5583980000000  0.4037760000000  0.4834040000000 1.0
C      1  0.6074480000000  0.4957490000000  0.4774210000000 1.0
C      1  0.4429810000000  0.5850330000000  0.4783060000000 1.0
C      1  0.4470910000000  0.4072150000000  0.4838880000000 1.0
C      1  0.4872870000000  0.4277390000000  0.5754500000000 1.0
C      1  0.4432710000000  0.5461340000000  0.5840580000000 1.0
C      1  0.5691320000000  0.5327650000000  0.5779530000000 1.0
C      1  0.5188930000000  0.4263750000000  0.5733550000000 1.0
C      1  0.5503700000000  0.5562680000000  0.5747820000000 1.0
C      1  0.4303430000000  0.5181140000000  0.5846050000000 1.0
C      1  0.5208550000000  0.5211580000000  0.4085220000000 1.0
C      1  0.5182720000000  0.4739760000000  0.4094360000000 1.0
C      1  0.4789320000000  0.4997690000000  0.4006840000000 1.0
C      1  0.4958920000000  0.5217730000000  0.3944340000000 1.0
C      1  0.4939900000000  0.4764060000000  0.3945010000000 1.0
C      1  0.5343170000000  0.4966740000000  0.4033180000000 1.0
C      1  0.5513280000000  0.4082120000000  0.5214690000000 1.0
C      1  0.3776490000000  0.5198470000000  0.5271680000000 1.0
C      1  0.5522590000000  0.5752990000000  0.5284670000000 1.0
C      1  0.4521540000000  0.4147550000000  0.5215530000000 1.0
C      1  0.6022170000000  0.5066860000000  0.5251820000000 1.0
C      1  0.4400830000000  0.5766130000000  0.5262850000000 1.0
C      1  0.4699130000000  0.3940730000000  0.4941980000000 1.0
C      1  0.4281920000000  0.5738170000000  0.4994070000000 1.0
C      1  0.6093120000000  0.5153600000000  0.4975290000000 1.0
C      1  0.5442250000000  0.3854760000000  0.4999600000000 1.0
C      1  0.5679210000000  0.5768160000000  0.5024990000000 1.0
C      1  0.3768940000000  0.5215010000000  0.4992310000000 1.0
C      1  0.4379460000000  0.5511190000000  0.5407070000000 1.0
C      1  0.5784970000000  0.5213650000000  0.5362800000000 1.0
C      1  0.4787460000000  0.4242780000000  0.5319540000000 1.0
C      1  0.5374770000000  0.5479150000000  0.5275100000000 1.0
C      1  0.4032730000000  0.5155150000000  0.5398090000000 1.0
C      1  0.5248760000000  0.4195430000000  0.5305340000000 1.0
C      1  0.4698400000000  0.5000190000000  0.4306130000000 1.0
C      1  0.5141650000000  0.5229460000000  0.4383010000000 1.0
C      1  0.5112400000000  0.4727150000000  0.4393690000000 1.0
C      1  0.5209550000000  0.4974640000000  0.4528130000000 1.0
C      1  0.4855350000000  0.5235640000000  0.4406290000000 1.0
C      1  0.4806240000000  0.4730580000000  0.4404320000000 1.0
C      1  0.4834960000000  0.4965780000000  0.6024040000000 1.0
C      1  0.5194710000000  0.5213370000000  0.5950120000000 1.0
C      1  0.5226270000000  0.4771940000000  0.5940470000000 1.0
C      1  0.5372330000000  0.5002440000000  0.6011010000000 1.0
C      1  0.4957050000000  0.5207630000000  0.6104160000000 1.0
C      1  0.4988160000000  0.4737370000000  0.6088850000000 1.0
C      1  0.5212110000000  0.5264680000000  0.4865380000000 1.0
C      1  0.5092530000000  0.4536140000000  0.4933950000000 1.0
C      1  0.4448910000000  0.5173140000000  0.4808250000000 1.0
C      1  0.4720450000000  0.5297240000000  0.4819510000000 1.0
C      1  0.4861720000000  0.4764200000000  0.4902970000000 1.0
C      1  0.5443750000000  0.5094900000000  0.4986330000000 1.0
C      1  0.5205190000000  0.4479770000000  0.4567020000000 1.0
C      1  0.4389500000000  0.5010430000000  0.4546830000000 1.0
C      1  0.5275800000000  0.5437400000000  0.4577830000000 1.0
C      1  0.4709930000000  0.4655080000000  0.4669150000000 1.0
C      1  0.5497050000000  0.4986600000000  0.4644070000000 1.0
C      1  0.4705280000000  0.5476830000000  0.4506150000000 1.0
C      1  0.4430390000000  0.4548760000000  0.4670500000000 1.0
C      1  0.4854320000000  0.5728960000000  0.4573360000000 1.0
C      1  0.5664440000000  0.4736440000000  0.4592100000000 1.0
C      1  0.5509100000000  0.4473330000000  0.4603050000000 1.0
C      1  0.5149440000000  0.5716820000000  0.4595730000000 1.0
C      1  0.4229930000000  0.4764450000000  0.4631560000000 1.0
C      1  0.5693750000000  0.4322570000000  0.5303220000000 1.0
C      1  0.4093960000000  0.4855940000000  0.5385450000000 1.0
C      1  0.5251870000000  0.5907580000000  0.5318930000000 1.0
C      1  0.4357120000000  0.4381870000000  0.5295520000000 1.0
C      1  0.5938230000000  0.4785160000000  0.5281380000000 1.0
C      1  0.4675620000000  0.5869730000000  0.5290940000000 1.0
C      1  0.4707790000000  0.5876370000000  0.4784220000000 1.0
C      1  0.5897650000000  0.4740230000000  0.4782860000000 1.0
C      1  0.4361650000000  0.4335610000000  0.4853990000000 1.0
C      1  0.5262820000000  0.5900320000000  0.4799230000000 1.0
C      1  0.4042180000000  0.4798120000000  0.4865140000000 1.0
C      1  0.5575140000000  0.4324460000000  0.4844600000000 1.0
C      1  0.4252440000000  0.5296500000000  0.5221680000000 1.0
C      1  0.5599770000000  0.5312220000000  0.5143400000000 1.0
C      1  0.5017930000000  0.4258060000000  0.5102120000000 1.0
C      1  0.4952760000000  0.5072170000000  0.4805060000000 1.0
END
