TITL C-3578208-4450-210 5.1502117370076e-07 125000 -713.789303191781 0 0 112 (C1) n - 1
REM
REM in /home/bkarasulu/work/CARBON/AIRSS/Generating-Clusters/EDIP-Nigel-Params/with-SteepDescent/Higher-Symm/SD-CG/HFTN-CG
REM
REM
REM
REM
REM
REM ./C.cell (12c818d87b63d06a65506943cc24bca4)
REM
REM compiler GCC version 9.2.1 20190827 (Red Hat 9.2.1-1)
REM options -cpp -mtune=generic -march=x86-64 -g -O0 -fpre-include=/usr/include/finclude/math-vector-fortran.h
REM seed -709480025 647624853 -350255642 -809923913 770680515 1530488892 -1605850666 1530678230 2070858986 17498631 179387725 1802939762 -46949387 -626232526 371262760 1087886546 -1428408693 829417661 -1874690233 223257257 -1136843332 415204074 1202042784 -1836425352 958144300 1579767667 -1151870478 -1132317125 2026292266 713330400 1268865100 262372739 -1573893374
REM
CELL 1.54180   50.00000   50.00000   50.00000   90.00000   90.00000   90.00000
LATT -1
SFAC C  
C      1  0.4579780000000  0.4979830000000  0.4742390000000 1.0
C      1  0.4580370000000  0.4739930000000  0.4934490000000 1.0
C      1  0.4587520000000  0.4857460000000  0.5217300000000 1.0
C      1  0.4582700000000  0.5169050000000  0.5200790000000 1.0
C      1  0.4569270000000  0.5246290000000  0.4902750000000 1.0
C      1  0.4095290000000  0.4833270000000  0.5209710000000 1.0
C      1  0.4091130000000  0.5133440000000  0.5215270000000 1.0
C      1  0.4082050000000  0.5231560000000  0.4931660000000 1.0
C      1  0.4087240000000  0.4992430000000  0.4748880000000 1.0
C      1  0.4089780000000  0.4746520000000  0.4921460000000 1.0
C      1  0.4995800000000  0.4687310000000  0.4692290000000 1.0
C      1  0.4999700000000  0.4587090000000  0.5180440000000 1.0
C      1  0.5004930000000  0.5050960000000  0.5414870000000 1.0
C      1  0.4980300000000  0.5481770000000  0.5055890000000 1.0
C      1  0.4981430000000  0.5219920000000  0.4616720000000 1.0
C      1  0.4773640000000  0.4560410000000  0.4276290000000 1.0
C      1  0.4780210000000  0.4172880000000  0.5185390000000 1.0
C      1  0.4792710000000  0.4908930000000  0.5828660000000 1.0
C      1  0.4777300000000  0.5777940000000  0.5332290000000 1.0
C      1  0.4768450000000  0.5540740000000  0.4369760000000 1.0
C      1  0.5781420000000  0.4767780000000  0.4622880000000 1.0
C      1  0.5790890000000  0.4514080000000  0.5118880000000 1.0
C      1  0.5845860000000  0.4900580000000  0.5516940000000 1.0
C      1  0.5861600000000  0.5458970000000  0.5181520000000 1.0
C      1  0.5806890000000  0.5335260000000  0.4649680000000 1.0
C      1  0.4823150000000  0.4219350000000  0.4661380000000 1.0
C      1  0.4829480000000  0.4421880000000  0.5636470000000 1.0
C      1  0.4825810000000  0.5402960000000  0.5679750000000 1.0
C      1  0.4794410000000  0.5798360000000  0.4806360000000 1.0
C      1  0.4815420000000  0.5067880000000  0.4180800000000 1.0
C      1  0.4527530000000  0.4297910000000  0.5137410000000 1.0
C      1  0.4532900000000  0.4904830000000  0.5706320000000 1.0
C      1  0.4525900000000  0.5639130000000  0.5296460000000 1.0
C      1  0.4513770000000  0.5472040000000  0.4484260000000 1.0
C      1  0.4517030000000  0.4644330000000  0.4374870000000 1.0
C      1  0.5240520000000  0.5872920000000  0.5236660000000 1.0
C      1  0.5223940000000  0.5472930000000  0.4239920000000 1.0
C      1  0.5222840000000  0.4421300000000  0.4322970000000 1.0
C      1  0.5224670000000  0.4140420000000  0.5348290000000 1.0
C      1  0.5244160000000  0.5053370000000  0.5862360000000 1.0
C      1  0.5234940000000  0.5710050000000  0.5489920000000 1.0
C      1  0.5207780000000  0.5682110000000  0.4452180000000 1.0
C      1  0.5220430000000  0.4688880000000  0.4190770000000 1.0
C      1  0.5223070000000  0.4080510000000  0.5053290000000 1.0
C      1  0.5233910000000  0.4751920000000  0.5880810000000 1.0
C      1  0.5715430000000  0.5058140000000  0.4567520000000 1.0
C      1  0.5669240000000  0.4603960000000  0.4854900000000 1.0
C      1  0.5682180000000  0.4687340000000  0.5345810000000 1.0
C      1  0.5836320000000  0.5201240000000  0.5453530000000 1.0
C      1  0.5737280000000  0.5454850000000  0.4913720000000 1.0
C      1  0.4393500000000  0.4658670000000  0.5737660000000 1.0
C      1  0.4389270000000  0.5586710000000  0.5542040000000 1.0
C      1  0.4364100000000  0.5686860000000  0.4598410000000 1.0
C      1  0.4377300000000  0.4829820000000  0.4210030000000 1.0
C      1  0.4384960000000  0.4191520000000  0.4914870000000 1.0
C      1  0.4377870000000  0.4410890000000  0.5360210000000 1.0
C      1  0.4379260000000  0.5151300000000  0.5663910000000 1.0
C      1  0.4361340000000  0.5674260000000  0.5055320000000 1.0
C      1  0.4363900000000  0.5247930000000  0.4373620000000 1.0
C      1  0.4366660000000  0.4471930000000  0.4556050000000 1.0
C      1  0.5483950000000  0.4395480000000  0.4464470000000 1.0
C      1  0.5493850000000  0.4249560000000  0.5421560000000 1.0
C      1  0.5494470000000  0.5088030000000  0.5724550000000 1.0
C      1  0.5508080000000  0.5827250000000  0.5103290000000 1.0
C      1  0.5498560000000  0.5353090000000  0.4255000000000 1.0
C      1  0.5653720000000  0.4630190000000  0.4379890000000 1.0
C      1  0.5664190000000  0.4240190000000  0.5169490000000 1.0
C      1  0.5679940000000  0.4871650000000  0.5768090000000 1.0
C      1  0.5680630000000  0.5667410000000  0.5301010000000 1.0
C      1  0.5658630000000  0.5519960000000  0.4451630000000 1.0
C      1  0.4316530000000  0.5419220000000  0.4869980000000 1.0
C      1  0.4329870000000  0.4993320000000  0.4556190000000 1.0
C      1  0.4331080000000  0.4568520000000  0.4858030000000 1.0
C      1  0.4340800000000  0.4724300000000  0.5361060000000 1.0
C      1  0.4333630000000  0.5251510000000  0.5364720000000 1.0
C      1  0.5496740000000  0.4527950000000  0.5512220000000 1.0
C      1  0.5622610000000  0.5323420000000  0.5619760000000 1.0
C      1  0.5489120000000  0.5621860000000  0.4884240000000 1.0
C      1  0.5527440000000  0.5076850000000  0.4348000000000 1.0
C      1  0.5479420000000  0.4401030000000  0.4758490000000 1.0
C      1  0.5469120000000  0.5706800000000  0.4593590000000 1.0
C      1  0.5486710000000  0.4819750000000  0.4216570000000 1.0
C      1  0.5484020000000  0.4166190000000  0.4936300000000 1.0
C      1  0.5498530000000  0.4628630000000  0.5786780000000 1.0
C      1  0.5465410000000  0.5503970000000  0.5436390000000 1.0
C      1  0.4934550000000  0.4783680000000  0.4154710000000 1.0
C      1  0.4948120000000  0.4149160000000  0.4939500000000 1.0
C      1  0.4951130000000  0.4656290000000  0.5806160000000 1.0
C      1  0.4945350000000  0.5651750000000  0.5541300000000 1.0
C      1  0.4921290000000  0.5734300000000  0.4530310000000 1.0
C      1  0.4969220000000  0.4321500000000  0.5366280000000 1.0
C      1  0.4980280000000  0.5116360000000  0.5724010000000 1.0
C      1  0.4963390000000  0.5788770000000  0.5101370000000 1.0
C      1  0.4962310000000  0.5316290000000  0.4316350000000 1.0
C      1  0.4960210000000  0.4447850000000  0.4486200000000 1.0
C      1  0.4511520000000  0.5085430000000  0.4165120000000 1.0
C      1  0.4513000000000  0.4222930000000  0.4652900000000 1.0
C      1  0.4522310000000  0.4420390000000  0.5626340000000 1.0
C      1  0.4524550000000  0.5406520000000  0.5727820000000 1.0
C      1  0.4490400000000  0.5820320000000  0.4824530000000 1.0
C      1  0.4846080000000  0.5294700000000  0.5305370000000 1.0
C      1  0.4811610000000  0.5408430000000  0.4803940000000 1.0
C      1  0.4845900000000  0.4951220000000  0.4607440000000 1.0
C      1  0.4836170000000  0.4576870000000  0.4919850000000 1.0
C      1  0.4856680000000  0.4801940000000  0.5334090000000 1.0
C      1  0.5229520000000  0.5189720000000  0.4780160000000 1.0
C      1  0.5259150000000  0.4698460000000  0.4983010000000 1.0
C      1  0.5271700000000  0.5049790000000  0.5254870000000 1.0
C      1  0.5371920000000  0.5317020000000  0.5222190000000 1.0
C      1  0.5269220000000  0.5418860000000  0.4971900000000 1.0
C      1  0.5485930000000  0.4829650000000  0.5187440000000 1.0
C      1  0.5141420000000  0.4991250000000  0.4971910000000 1.0
END
