TITL C-3578206-1180-224 -6.83448915339238e-09 125000 -355.815468934718 0 0 60 (C1) n - 1
REM
REM in /home/bkarasulu/work/CARBON/AIRSS/Generating-Clusters/EDIP-Nigel-Params/with-SteepDescent/Higher-Symm/SD-CG/HFTN-CG
REM
REM
REM
REM
REM
REM ./C.cell (12c818d87b63d06a65506943cc24bca4)
REM
REM compiler GCC version 9.2.1 20190827 (Red Hat 9.2.1-1)
REM options -cpp -mtune=generic -march=x86-64 -g -O0 -fpre-include=/usr/include/finclude/math-vector-fortran.h
REM seed 1437739225 109231774 -1411692681 -1930178282 2093971622 -2104126991 1840975345 2084949345 -1749509862 -1934454761 -59896449 1770816445 -159136743 -1261074531 1041286899 327748458 -638343741 2016972391 1248643255 704331906 1877185601 -1364543446 -277655080 2004663597 1051971749 1643543951 -120829077 1041161099 -1357592737 -1803488062 376085644 -1687700306 508298001
REM
CELL 1.54180   50.00000   50.00000   50.00000   90.00000   90.00000   90.00000
LATT -1
SFAC C  
C      1  0.5208320000000  0.4338660000000  0.4700270000000 1.0
C      1  0.5232250000000  0.5671620000000  0.5308340000000 1.0
C      1  0.4791300000000  0.5659580000000  0.4693720000000 1.0
C      1  0.4770880000000  0.4330030000000  0.5303550000000 1.0
C      1  0.4946140000000  0.4282160000000  0.4693420000000 1.0
C      1  0.4964920000000  0.5685210000000  0.5306200000000 1.0
C      1  0.5053550000000  0.5716890000000  0.4692600000000 1.0
C      1  0.5037910000000  0.4310750000000  0.5305190000000 1.0
C      1  0.5622060000000  0.5192730000000  0.4594570000000 1.0
C      1  0.5625940000000  0.4817980000000  0.5401650000000 1.0
C      1  0.4373120000000  0.4807640000000  0.4592030000000 1.0
C      1  0.4377030000000  0.5187520000000  0.5408370000000 1.0
C      1  0.4802100000000  0.5026860000000  0.4849380000000 1.0
C      1  0.4783270000000  0.4949430000000  0.5138040000000 1.0
C      1  0.5193140000000  0.4974450000000  0.4857640000000 1.0
C      1  0.5207810000000  0.5055530000000  0.5153320000000 1.0
C      1  0.4876290000000  0.5195190000000  0.5312990000000 1.0
C      1  0.4853690000000  0.4770620000000  0.4666970000000 1.0
C      1  0.5146450000000  0.4794970000000  0.5336480000000 1.0
C      1  0.5144890000000  0.5228770000000  0.4672380000000 1.0
C      1  0.4805050000000  0.4502810000000  0.4789160000000 1.0
C      1  0.4821540000000  0.5469780000000  0.5203330000000 1.0
C      1  0.5192750000000  0.5497230000000  0.4793570000000 1.0
C      1  0.5187180000000  0.4526270000000  0.5212310000000 1.0
C      1  0.5460440000000  0.5536310000000  0.4905130000000 1.0
C      1  0.5449800000000  0.4479640000000  0.5095630000000 1.0
C      1  0.4537910000000  0.4464480000000  0.4902520000000 1.0
C      1  0.4555140000000  0.5518290000000  0.5092550000000 1.0
C      1  0.5450560000000  0.4802520000000  0.4803580000000 1.0
C      1  0.5469640000000  0.5213730000000  0.5198200000000 1.0
C      1  0.4543280000000  0.5199110000000  0.4799610000000 1.0
C      1  0.4530450000000  0.4790960000000  0.5191130000000 1.0
C      1  0.5154520000000  0.4754920000000  0.4428000000000 1.0
C      1  0.5152930000000  0.5246290000000  0.5580110000000 1.0
C      1  0.4843380000000  0.5241030000000  0.4433930000000 1.0
C      1  0.4847780000000  0.4755280000000  0.5575860000000 1.0
C      1  0.5394170000000  0.4897800000000  0.4351290000000 1.0
C      1  0.5395610000000  0.5107760000000  0.5652260000000 1.0
C      1  0.4603760000000  0.5102100000000  0.4350790000000 1.0
C      1  0.4605280000000  0.4894480000000  0.5650490000000 1.0
C      1  0.5599960000000  0.5101670000000  0.5441910000000 1.0
C      1  0.5594080000000  0.4907800000000  0.4564700000000 1.0
C      1  0.4399760000000  0.4899540000000  0.5439400000000 1.0
C      1  0.4400540000000  0.5092620000000  0.4560690000000 1.0
C      1  0.5426540000000  0.4481490000000  0.4798920000000 1.0
C      1  0.5449610000000  0.5532980000000  0.5203010000000 1.0
C      1  0.4571930000000  0.5519830000000  0.4794450000000 1.0
C      1  0.4553020000000  0.4469330000000  0.5199690000000 1.0
C      1  0.4911880000000  0.5250110000000  0.5722240000000 1.0
C      1  0.4912230000000  0.4732190000000  0.4279920000000 1.0
C      1  0.5086110000000  0.4743270000000  0.5729030000000 1.0
C      1  0.5085010000000  0.5268590000000  0.4285700000000 1.0
C      1  0.4638160000000  0.4815250000000  0.4310850000000 1.0
C      1  0.4642680000000  0.5179920000000  0.5681750000000 1.0
C      1  0.5358690000000  0.5184750000000  0.4312640000000 1.0
C      1  0.5360700000000  0.4819560000000  0.5685330000000 1.0
C      1  0.4391100000000  0.5280440000000  0.5136160000000 1.0
C      1  0.4379400000000  0.4708450000000  0.4861870000000 1.0
C      1  0.5609580000000  0.4723070000000  0.5131010000000 1.0
C      1  0.5616790000000  0.5291780000000  0.4864160000000 1.0
END
