TITL C-3578200-9634-654 -1.42458612010438e-06 125000 -511.063823282176 0 0 84 (C1) n - 1
REM
REM in /home/bkarasulu/work/CARBON/AIRSS/Generating-Clusters/EDIP-Nigel-Params/with-SteepDescent/Higher-Symm/SD-CG/HFTN-CG
REM
REM
REM
REM
REM
REM ./C.cell (12c818d87b63d06a65506943cc24bca4)
REM
REM compiler GCC version 9.2.1 20190827 (Red Hat 9.2.1-1)
REM options -cpp -mtune=generic -march=x86-64 -g -O0 -fpre-include=/usr/include/finclude/math-vector-fortran.h
REM seed -2145134496 480507305 -972200143 -682054364 -232085001 1332914809 -731680325 250197386 1652702602 -1956315479 -1499804122 -1682017226 -1470531585 312165158 862928537 -1732253476 646069468 946833477 -858264913 1791109590 1610871142 708071706 1729942947 -889634400 -1276022119 1977667083 515299594 452859478 -1871599165 -1296956465 -1293058899 -1299628429 -1246132452
REM
CELL 1.54180   50.00000   50.00000   50.00000   90.00000   90.00000   90.00000
LATT -1
SFAC C  
C      1  0.5357140000000  0.5399240000000  0.4442980000000 1.0
C      1  0.5426440000000  0.5666230000000  0.5156630000000 1.0
C      1  0.5492990000000  0.5006190000000  0.5650030000000 1.0
C      1  0.5486330000000  0.4291520000000  0.5233110000000 1.0
C      1  0.5419250000000  0.4590060000000  0.4520150000000 1.0
C      1  0.4867400000000  0.4165430000000  0.4888710000000 1.0
C      1  0.4861430000000  0.4862170000000  0.4273270000000 1.0
C      1  0.4810880000000  0.5672780000000  0.4669280000000 1.0
C      1  0.4865200000000  0.5485730000000  0.5479200000000 1.0
C      1  0.4809280000000  0.4695740000000  0.5575060000000 1.0
C      1  0.5120690000000  0.5100950000000  0.5686120000000 1.0
C      1  0.5104820000000  0.4359180000000  0.5335400000000 1.0
C      1  0.5124010000000  0.4496490000000  0.4554040000000 1.0
C      1  0.5063560000000  0.5329160000000  0.4357430000000 1.0
C      1  0.5125820000000  0.5793740000000  0.5105860000000 1.0
C      1  0.5309780000000  0.5539220000000  0.5624980000000 1.0
C      1  0.5261490000000  0.4578650000000  0.5712650000000 1.0
C      1  0.5335090000000  0.4123080000000  0.4785180000000 1.0
C      1  0.5305580000000  0.4946350000000  0.4149910000000 1.0
C      1  0.5247410000000  0.5865610000000  0.4622540000000 1.0
C      1  0.4554720000000  0.5279960000000  0.5189210000000 1.0
C      1  0.4486530000000  0.4998540000000  0.5288880000000 1.0
C      1  0.4297210000000  0.4907950000000  0.5088510000000 1.0
C      1  0.4409510000000  0.5026390000000  0.4855790000000 1.0
C      1  0.4497090000000  0.5319090000000  0.4885760000000 1.0
C      1  0.4485350000000  0.5734930000000  0.5041120000000 1.0
C      1  0.4467210000000  0.5206960000000  0.5614020000000 1.0
C      1  0.4441770000000  0.4411190000000  0.5424620000000 1.0
C      1  0.4578200000000  0.4461460000000  0.4647650000000 1.0
C      1  0.4524630000000  0.5129410000000  0.4384630000000 1.0
C      1  0.4972930000000  0.5448900000000  0.5024400000000 1.0
C      1  0.4958310000000  0.5029630000000  0.5236380000000 1.0
C      1  0.4743680000000  0.4599950000000  0.5102200000000 1.0
C      1  0.5045430000000  0.4670380000000  0.4769220000000 1.0
C      1  0.4968550000000  0.5207740000000  0.4621920000000 1.0
C      1  0.4871190000000  0.4927260000000  0.5759870000000 1.0
C      1  0.4851280000000  0.4331600000000  0.5162390000000 1.0
C      1  0.4944590000000  0.4566950000000  0.4321240000000 1.0
C      1  0.4830830000000  0.5551030000000  0.4374910000000 1.0
C      1  0.4912170000000  0.5757670000000  0.5333610000000 1.0
C      1  0.4529030000000  0.5744650000000  0.4754910000000 1.0
C      1  0.4584210000000  0.5481890000000  0.5584700000000 1.0
C      1  0.4536910000000  0.4588590000000  0.5634230000000 1.0
C      1  0.4574340000000  0.4201690000000  0.4811200000000 1.0
C      1  0.4544570000000  0.4876680000000  0.4181840000000 1.0
C      1  0.5038710000000  0.5832420000000  0.4804200000000 1.0
C      1  0.5075360000000  0.5398870000000  0.5674870000000 1.0
C      1  0.5027270000000  0.4482900000000  0.5596360000000 1.0
C      1  0.5089090000000  0.4208690000000  0.4678870000000 1.0
C      1  0.5058440000000  0.5074160000000  0.4169750000000 1.0
C      1  0.5201240000000  0.5012480000000  0.5390640000000 1.0
C      1  0.5270150000000  0.4614100000000  0.5250700000000 1.0
C      1  0.5288300000000  0.4689020000000  0.4954840000000 1.0
C      1  0.5259810000000  0.5127240000000  0.4789110000000 1.0
C      1  0.5253600000000  0.5370670000000  0.4966840000000 1.0
C      1  0.4543790000000  0.5432610000000  0.4369510000000 1.0
C      1  0.4634210000000  0.5846390000000  0.5266170000000 1.0
C      1  0.4597360000000  0.5034600000000  0.5815560000000 1.0
C      1  0.4602300000000  0.4222960000000  0.5293210000000 1.0
C      1  0.4687730000000  0.4430760000000  0.4360610000000 1.0
C      1  0.4387280000000  0.5543290000000  0.4598620000000 1.0
C      1  0.4448740000000  0.5685880000000  0.5427240000000 1.0
C      1  0.4409940000000  0.4827200000000  0.5740990000000 1.0
C      1  0.4426690000000  0.4214150000000  0.5070920000000 1.0
C      1  0.4474310000000  0.4616530000000  0.4303160000000 1.0
C      1  0.5468030000000  0.5478930000000  0.5404080000000 1.0
C      1  0.5499330000000  0.4698930000000  0.5621750000000 1.0
C      1  0.5516300000000  0.4277940000000  0.4932530000000 1.0
C      1  0.5439960000000  0.4887050000000  0.4392430000000 1.0
C      1  0.5395100000000  0.5626540000000  0.4639790000000 1.0
C      1  0.5569530000000  0.4577320000000  0.5353260000000 1.0
C      1  0.5517210000000  0.4553020000000  0.4811860000000 1.0
C      1  0.5460070000000  0.5141200000000  0.4563680000000 1.0
C      1  0.5551380000000  0.5589370000000  0.4888960000000 1.0
C      1  0.5537190000000  0.5191790000000  0.5403730000000 1.0
C      1  0.4755210000000  0.4652010000000  0.4822240000000 1.0
C      1  0.4768190000000  0.5013220000000  0.4539150000000 1.0
C      1  0.4809600000000  0.5400650000000  0.4793680000000 1.0
C      1  0.4845780000000  0.5301170000000  0.5241710000000 1.0
C      1  0.4753810000000  0.4825110000000  0.5296220000000 1.0
C      1  0.5656660000000  0.4991730000000  0.5030130000000 1.0
C      1  0.4655000000000  0.4907900000000  0.4773910000000 1.0
C      1  0.5894080000000  0.5065030000000  0.5098610000000 1.0
C      1  0.5381950000000  0.4955860000000  0.4991500000000 1.0
END
