TITL C-3578209-2550-292 5.43151609071292e-08 125000 -720.015028634638 0 0 115 (C1) n - 1
REM
REM in /home/bkarasulu/work/CARBON/AIRSS/Generating-Clusters/EDIP-Nigel-Params/with-SteepDescent/Higher-Symm/SD-CG/HFTN-CG
REM
REM
REM
REM
REM
REM ./C.cell (12c818d87b63d06a65506943cc24bca4)
REM
REM compiler GCC version 9.2.1 20190827 (Red Hat 9.2.1-1)
REM options -cpp -mtune=generic -march=x86-64 -g -O0 -fpre-include=/usr/include/finclude/math-vector-fortran.h
REM seed -1125309648 366373411 -1031779718 -262281909 -1789828404 1398036176 -1457868757 -366251450 1097476963 -1081440735 1821714676 -1476331266 -1565922732 -1316992784 -239558726 -1902324313 -1494811402 761162228 -1598790084 -2035090656 -358609944 -925033987 1109560797 -872474885 -1145244167 950534190 544062290 1315917610 1710214588 652348331 778508620 -145784195 16459664
REM
CELL 1.54180   50.00000   50.00000   50.00000   90.00000   90.00000   90.00000
LATT -1
SFAC C  
C      1  0.5683390000000  0.5120970000000  0.5338970000000 1.0
C      1  0.4802780000000  0.5730710000000  0.4681010000000 1.0
C      1  0.4394170000000  0.4864470000000  0.5217370000000 1.0
C      1  0.5250660000000  0.4336050000000  0.4819720000000 1.0
C      1  0.4163130000000  0.5039180000000  0.5104530000000 1.0
C      1  0.5026780000000  0.4149690000000  0.4886400000000 1.0
C      1  0.5893990000000  0.4948030000000  0.5178430000000 1.0
C      1  0.5023020000000  0.5932810000000  0.4752550000000 1.0
C      1  0.5192490000000  0.5073870000000  0.4544340000000 1.0
C      1  0.4936270000000  0.5180940000000  0.5453380000000 1.0
C      1  0.4574990000000  0.4849580000000  0.4729030000000 1.0
C      1  0.5123030000000  0.4614690000000  0.5321090000000 1.0
C      1  0.5827350000000  0.4445210000000  0.5042440000000 1.0
C      1  0.5426730000000  0.5747770000000  0.5026890000000 1.0
C      1  0.4223120000000  0.5594910000000  0.5015350000000 1.0
C      1  0.4455380000000  0.4228060000000  0.4931160000000 1.0
C      1  0.4312260000000  0.5689900000000  0.5520600000000 1.0
C      1  0.4266520000000  0.4340010000000  0.4477980000000 1.0
C      1  0.5727420000000  0.4295410000000  0.5525810000000 1.0
C      1  0.5712200000000  0.5603960000000  0.4584900000000 1.0
C      1  0.4645220000000  0.4528690000000  0.4336660000000 1.0
C      1  0.5505950000000  0.4679470000000  0.5654780000000 1.0
C      1  0.5336450000000  0.5494280000000  0.4352390000000 1.0
C      1  0.4463650000000  0.5257410000000  0.5632580000000 1.0
C      1  0.4781760000000  0.4517350000000  0.5483760000000 1.0
C      1  0.5654870000000  0.4625530000000  0.4311160000000 1.0
C      1  0.5315450000000  0.5602890000000  0.5487830000000 1.0
C      1  0.4357790000000  0.5392980000000  0.4286570000000 1.0
C      1  0.5203380000000  0.4974000000000  0.4816090000000 1.0
C      1  0.5075960000000  0.5220690000000  0.5184690000000 1.0
C      1  0.4733070000000  0.5089170000000  0.4819560000000 1.0
C      1  0.4931350000000  0.4757100000000  0.5145790000000 1.0
C      1  0.5768620000000  0.4677580000000  0.5228730000000 1.0
C      1  0.5279220000000  0.5754970000000  0.4758350000000 1.0
C      1  0.4230260000000  0.5342280000000  0.5211730000000 1.0
C      1  0.4680050000000  0.4222100000000  0.4721700000000 1.0
C      1  0.4760740000000  0.5644410000000  0.4304910000000 1.0
C      1  0.4417740000000  0.4822070000000  0.5674560000000 1.0
C      1  0.5266480000000  0.4294510000000  0.4341890000000 1.0
C      1  0.5733450000000  0.5170210000000  0.5720960000000 1.0
C      1  0.4238920000000  0.5416250000000  0.5507860000000 1.0
C      1  0.4542390000000  0.4280550000000  0.4452810000000 1.0
C      1  0.5742810000000  0.4577640000000  0.5513680000000 1.0
C      1  0.5459900000000  0.5709170000000  0.4512370000000 1.0
C      1  0.4272850000000  0.5444710000000  0.4751670000000 1.0
C      1  0.4590600000000  0.4238100000000  0.5202770000000 1.0
C      1  0.5845620000000  0.4549220000000  0.4766850000000 1.0
C      1  0.5207080000000  0.5699940000000  0.5227860000000 1.0
C      1  0.5492210000000  0.4746190000000  0.5134690000000 1.0
C      1  0.5150370000000  0.5492650000000  0.4792970000000 1.0
C      1  0.4518140000000  0.5284620000000  0.5189890000000 1.0
C      1  0.4845710000000  0.4477080000000  0.4775560000000 1.0
C      1  0.4576730000000  0.5326370000000  0.4902780000000 1.0
C      1  0.4746700000000  0.4557600000000  0.5047770000000 1.0
C      1  0.5458870000000  0.5004520000000  0.4951440000000 1.0
C      1  0.5026720000000  0.5495810000000  0.5070100000000 1.0
C      1  0.5464890000000  0.4827660000000  0.4262310000000 1.0
C      1  0.5121320000000  0.5463500000000  0.5657660000000 1.0
C      1  0.4486260000000  0.5143350000000  0.4254230000000 1.0
C      1  0.4938320000000  0.4521540000000  0.5714060000000 1.0
C      1  0.5189990000000  0.4369390000000  0.5679440000000 1.0
C      1  0.5481670000000  0.5068870000000  0.4434530000000 1.0
C      1  0.4845090000000  0.5572760000000  0.5632940000000 1.0
C      1  0.4328730000000  0.4899860000000  0.4309450000000 1.0
C      1  0.4559620000000  0.5777590000000  0.4473470000000 1.0
C      1  0.4337230000000  0.4677750000000  0.5446610000000 1.0
C      1  0.5409570000000  0.4322180000000  0.4579890000000 1.0
C      1  0.5780790000000  0.5357410000000  0.5508550000000 1.0
C      1  0.5019440000000  0.4119030000000  0.5187760000000 1.0
C      1  0.5919120000000  0.4975040000000  0.4875620000000 1.0
C      1  0.4955660000000  0.6029260000000  0.5009260000000 1.0
C      1  0.4127330000000  0.5028870000000  0.4804910000000 1.0
C      1  0.5238300000000  0.4223360000000  0.5400090000000 1.0
C      1  0.5674390000000  0.5101690000000  0.4743710000000 1.0
C      1  0.4786400000000  0.5772080000000  0.5421950000000 1.0
C      1  0.4285190000000  0.4843980000000  0.4610830000000 1.0
C      1  0.5575790000000  0.5482830000000  0.5030830000000 1.0
C      1  0.4469160000000  0.5762900000000  0.5067900000000 1.0
C      1  0.4298840000000  0.4482630000000  0.4917120000000 1.0
C      1  0.5600840000000  0.4254860000000  0.5079250000000 1.0
C      1  0.5309580000000  0.4818900000000  0.5467680000000 1.0
C      1  0.5126980000000  0.5368670000000  0.4523660000000 1.0
C      1  0.4621620000000  0.5110260000000  0.5411910000000 1.0
C      1  0.4778510000000  0.4687690000000  0.4552450000000 1.0
C      1  0.4772600000000  0.4028160000000  0.5276110000000 1.0
C      1  0.6030900000000  0.4756660000000  0.4739050000000 1.0
C      1  0.4998390000000  0.5902940000000  0.5257060000000 1.0
C      1  0.4047010000000  0.5270950000000  0.4702310000000 1.0
C      1  0.4637800000000  0.5438140000000  0.5761880000000 1.0
C      1  0.4452170000000  0.4674930000000  0.4195200000000 1.0
C      1  0.5401260000000  0.4480590000000  0.5828020000000 1.0
C      1  0.5521290000000  0.5301720000000  0.4266640000000 1.0
C      1  0.5706270000000  0.5403440000000  0.4783800000000 1.0
C      1  0.4504430000000  0.5822660000000  0.5357070000000 1.0
C      1  0.4191950000000  0.4550190000000  0.4653410000000 1.0
C      1  0.5540010000000  0.4167360000000  0.5354480000000 1.0
C      1  0.5448610000000  0.5231810000000  0.5159740000000 1.0
C      1  0.4718600000000  0.5596670000000  0.4945810000000 1.0
C      1  0.4497930000000  0.4695270000000  0.4985990000000 1.0
C      1  0.5370890000000  0.4450000000000  0.5062970000000 1.0
C      1  0.5639100000000  0.4499760000000  0.4560750000000 1.0
C      1  0.5589030000000  0.5560290000000  0.5518360000000 1.0
C      1  0.4330290000000  0.5588060000000  0.4488630000000 1.0
C      1  0.4512610000000  0.4431220000000  0.5438250000000 1.0
C      1  0.5154360000000  0.4477190000000  0.4177740000000 1.0
C      1  0.5489560000000  0.5186910000000  0.5845420000000 1.0
C      1  0.4861790000000  0.5392800000000  0.4400450000000 1.0
C      1  0.4649960000000  0.4888580000000  0.5799820000000 1.0
C      1  0.5217930000000  0.5208450000000  0.5797140000000 1.0
C      1  0.4783680000000  0.5137940000000  0.4282390000000 1.0
C      1  0.4920580000000  0.4806370000000  0.5805770000000 1.0
C      1  0.5182340000000  0.4753870000000  0.4205600000000 1.0
C      1  0.5098220000000  0.4988620000000  0.5637790000000 1.0
C      1  0.4979660000000  0.4907800000000  0.4381940000000 1.0
C      1  0.4975160000000  0.5009300000000  0.4989170000000 1.0
END
