TITL C-3578201-9217-374 -8.54466545109654e-07 125000 -606.980567442289 0 0 96 (C1) n - 1
REM
REM in /home/bkarasulu/work/CARBON/AIRSS/Generating-Clusters/EDIP-Nigel-Params/with-SteepDescent/Higher-Symm/SD-CG/HFTN-CG
REM
REM
REM
REM
REM
REM ./C.cell (12c818d87b63d06a65506943cc24bca4)
REM
REM compiler GCC version 9.2.1 20190827 (Red Hat 9.2.1-1)
REM options -cpp -mtune=generic -march=x86-64 -g -O0 -fpre-include=/usr/include/finclude/math-vector-fortran.h
REM seed -1668230401 262183919 -1879820520 314181858 -1394336222 -620431740 121153500 1545152233 299336782 -1904060551 -235130626 -1558031802 290126837 1989149795 1295583511 -1182193213 -1106938948 -635080683 1756655287 -1277530160 1945472347 1339299422 -973506763 -1329276363 594561623 -896067198 -1245824014 1712483103 1621710689 2092700991 -1317794151 -1439395055 188089147
REM
CELL 1.54180   50.00000   50.00000   50.00000   90.00000   90.00000   90.00000
LATT -1
SFAC C  
C      1  0.5640000000000  0.4847070000000  0.4527120000000 1.0
C      1  0.4313460000000  0.4858780000000  0.4795720000000 1.0
C      1  0.5095480000000  0.4845380000000  0.5802600000000 1.0
C      1  0.5538230000000  0.5143510000000  0.4526370000000 1.0
C      1  0.4280170000000  0.5165030000000  0.4704420000000 1.0
C      1  0.5148170000000  0.5146160000000  0.5722840000000 1.0
C      1  0.5821820000000  0.5095570000000  0.5097500000000 1.0
C      1  0.4581550000000  0.5166740000000  0.4122510000000 1.0
C      1  0.4496390000000  0.5101490000000  0.5689260000000 1.0
C      1  0.5914550000000  0.4826230000000  0.5071600000000 1.0
C      1  0.4612720000000  0.4877040000000  0.4135550000000 1.0
C      1  0.4472510000000  0.4831880000000  0.5779070000000 1.0
C      1  0.5597230000000  0.5375260000000  0.5712720000000 1.0
C      1  0.5306530000000  0.5328520000000  0.4125110000000 1.0
C      1  0.4109520000000  0.5337880000000  0.5146830000000 1.0
C      1  0.5562120000000  0.4710860000000  0.5648150000000 1.0
C      1  0.5322050000000  0.4738300000000  0.4161550000000 1.0
C      1  0.4106390000000  0.4638330000000  0.5188960000000 1.0
C      1  0.5102360000000  0.5860740000000  0.5000390000000 1.0
C      1  0.4982660000000  0.5892230000000  0.4749880000000 1.0
C      1  0.4914300000000  0.5871770000000  0.5203760000000 1.0
C      1  0.5096230000000  0.4136760000000  0.4990320000000 1.0
C      1  0.4974790000000  0.4117100000000  0.4739490000000 1.0
C      1  0.4915390000000  0.4121670000000  0.5199420000000 1.0
C      1  0.5307410000000  0.5399940000000  0.5758140000000 1.0
C      1  0.5492200000000  0.5377450000000  0.4348150000000 1.0
C      1  0.4205860000000  0.5406280000000  0.4881860000000 1.0
C      1  0.5303570000000  0.4629710000000  0.5748100000000 1.0
C      1  0.5510520000000  0.4636020000000  0.4354260000000 1.0
C      1  0.4211330000000  0.4601760000000  0.4917570000000 1.0
C      1  0.5359830000000  0.5585220000000  0.4528320000000 1.0
C      1  0.4441700000000  0.5598680000000  0.4911030000000 1.0
C      1  0.5205200000000  0.5603270000000  0.5555640000000 1.0
C      1  0.5361310000000  0.4439520000000  0.4529800000000 1.0
C      1  0.4440120000000  0.4393910000000  0.4923580000000 1.0
C      1  0.5198050000000  0.4419880000000  0.5556050000000 1.0
C      1  0.4345640000000  0.4647310000000  0.5617260000000 1.0
C      1  0.5837660000000  0.4640180000000  0.5258980000000 1.0
C      1  0.4856420000000  0.4761700000000  0.4081270000000 1.0
C      1  0.4303010000000  0.5250690000000  0.5566970000000 1.0
C      1  0.5810750000000  0.5238030000000  0.5329380000000 1.0
C      1  0.4817410000000  0.5313340000000  0.4107610000000 1.0
C      1  0.5318780000000  0.4326770000000  0.5031380000000 1.0
C      1  0.4867770000000  0.4340680000000  0.4609130000000 1.0
C      1  0.4765570000000  0.4317470000000  0.5328740000000 1.0
C      1  0.5327580000000  0.5669910000000  0.5037310000000 1.0
C      1  0.4875130000000  0.5672980000000  0.4612850000000 1.0
C      1  0.4762720000000  0.5675940000000  0.5330890000000 1.0
C      1  0.4782860000000  0.5155380000000  0.4819440000000 1.0
C      1  0.4939240000000  0.5152720000000  0.5300560000000 1.0
C      1  0.5282190000000  0.5154040000000  0.4923280000000 1.0
C      1  0.4786180000000  0.4852260000000  0.4817890000000 1.0
C      1  0.4941220000000  0.4848210000000  0.5301170000000 1.0
C      1  0.5280580000000  0.4848670000000  0.4917050000000 1.0
C      1  0.5481790000000  0.5571380000000  0.4796800000000 1.0
C      1  0.4598040000000  0.5569020000000  0.4659280000000 1.0
C      1  0.4916630000000  0.5558000000000  0.5553590000000 1.0
C      1  0.5482390000000  0.4425540000000  0.4799860000000 1.0
C      1  0.4590230000000  0.4443200000000  0.4672730000000 1.0
C      1  0.4905570000000  0.4435360000000  0.5558780000000 1.0
C      1  0.4565860000000  0.5276030000000  0.4609940000000 1.0
C      1  0.4900700000000  0.5264090000000  0.5599430000000 1.0
C      1  0.5548680000000  0.5274710000000  0.4795510000000 1.0
C      1  0.4549990000000  0.4741160000000  0.4652520000000 1.0
C      1  0.4867450000000  0.4726390000000  0.5605500000000 1.0
C      1  0.5565940000000  0.4714160000000  0.4820100000000 1.0
C      1  0.5056040000000  0.5242800000000  0.4740570000000 1.0
C      1  0.4731680000000  0.5243660000000  0.5104900000000 1.0
C      1  0.5216380000000  0.5238960000000  0.5204450000000 1.0
C      1  0.5056610000000  0.4771410000000  0.4723040000000 1.0
C      1  0.4743830000000  0.4754680000000  0.5102060000000 1.0
C      1  0.5211980000000  0.4760840000000  0.5198050000000 1.0
C      1  0.5060170000000  0.4646180000000  0.4227730000000 1.0
C      1  0.4346530000000  0.4601440000000  0.5345230000000 1.0
C      1  0.5614490000000  0.4569230000000  0.5402270000000 1.0
C      1  0.5047970000000  0.5351930000000  0.4252910000000 1.0
C      1  0.4319410000000  0.5398590000000  0.5333900000000 1.0
C      1  0.5629130000000  0.5424140000000  0.5425020000000 1.0
C      1  0.4726640000000  0.4749000000000  0.5876300000000 1.0
C      1  0.5876380000000  0.4730980000000  0.4807660000000 1.0
C      1  0.4515310000000  0.4804290000000  0.4379440000000 1.0
C      1  0.4698040000000  0.5240470000000  0.5806770000000 1.0
C      1  0.5827650000000  0.5250700000000  0.4874230000000 1.0
C      1  0.4418880000000  0.5238540000000  0.4347770000000 1.0
C      1  0.5337770000000  0.4502820000000  0.5289680000000 1.0
C      1  0.5073220000000  0.4547510000000  0.4520460000000 1.0
C      1  0.4580030000000  0.4510670000000  0.5177570000000 1.0
C      1  0.5350140000000  0.5493640000000  0.5300050000000 1.0
C      1  0.5076500000000  0.5464090000000  0.4532670000000 1.0
C      1  0.4569470000000  0.5486800000000  0.5176570000000 1.0
C      1  0.5374920000000  0.5123940000000  0.3948090000000 1.0
C      1  0.3936450000000  0.5122700000000  0.5183620000000 1.0
C      1  0.5718720000000  0.5144550000000  0.5817290000000 1.0
C      1  0.5400540000000  0.4857960000000  0.3920910000000 1.0
C      1  0.3938150000000  0.4858180000000  0.5220540000000 1.0
C      1  0.5731240000000  0.4877980000000  0.5791410000000 1.0
END
