TITL C-3577090-796-323 -7.81442172275399e-07 125000 -706.937894722821 0 0 113 (C1) n - 1
REM
REM in /home/bkarasulu/work/CARBON/AIRSS/Generating-Clusters/EDIP-Nigel-Params/with-SteepDescent/Higher-Symm/SD-CG/HFTN-CG
REM
REM
REM
REM
REM
REM ./C.cell (12c818d87b63d06a65506943cc24bca4)
REM
REM compiler GCC version 9.2.1 20190827 (Red Hat 9.2.1-1)
REM options -cpp -mtune=generic -march=x86-64 -g -O0 -fpre-include=/usr/include/finclude/math-vector-fortran.h
REM seed 1299377445 1850046233 -442635686 -2130841657 -82794173 -2029373542 1237401147 -981937570 -1259063186 -1357535641 789626036 -1937227989 2129244023 368888738 70840189 421355973 -1465365504 1933548518 -600773114 -392630439 563685156 412994043 976461784 -619824806 -47177431 -2017135207 156959361 1128947221 -850352893 1127253251 687976486 -532008353 -415957307
REM
CELL 1.54180   50.00000   50.00000   50.00000   90.00000   90.00000   90.00000
LATT -1
SFAC C  
C      1  0.6069660000000  0.4808690000000  0.4968630000000 1.0
C      1  0.5772090000000  0.5672830000000  0.4933480000000 1.0
C      1  0.4995750000000  0.6118840000000  0.4964160000000 1.0
C      1  0.4133170000000  0.5641140000000  0.4949350000000 1.0
C      1  0.4009790000000  0.4774560000000  0.4937500000000 1.0
C      1  0.4521830000000  0.4018290000000  0.4957490000000 1.0
C      1  0.5523440000000  0.4015120000000  0.4914850000000 1.0
C      1  0.5957030000000  0.5258050000000  0.4739800000000 1.0
C      1  0.5344100000000  0.5821220000000  0.4749760000000 1.0
C      1  0.4527800000000  0.5879130000000  0.4733510000000 1.0
C      1  0.4023660000000  0.5206430000000  0.4715570000000 1.0
C      1  0.4270850000000  0.4408710000000  0.4768150000000 1.0
C      1  0.5011410000000  0.4091350000000  0.4821220000000 1.0
C      1  0.5761930000000  0.4434170000000  0.4780330000000 1.0
C      1  0.5543570000000  0.5167370000000  0.4550560000000 1.0
C      1  0.5126120000000  0.5436380000000  0.4730790000000 1.0
C      1  0.4702790000000  0.5520620000000  0.4547140000000 1.0
C      1  0.4416300000000  0.5056750000000  0.4540930000000 1.0
C      1  0.4643700000000  0.4638320000000  0.4658130000000 1.0
C      1  0.5111190000000  0.4457800000000  0.4544330000000 1.0
C      1  0.5528260000000  0.4708510000000  0.4517260000000 1.0
C      1  0.5307310000000  0.4121360000000  0.4765970000000 1.0
C      1  0.5888040000000  0.4701560000000  0.4778990000000 1.0
C      1  0.5831690000000  0.5523690000000  0.4691790000000 1.0
C      1  0.5107570000000  0.5990790000000  0.4734310000000 1.0
C      1  0.4340180000000  0.5653670000000  0.4757940000000 1.0
C      1  0.3992050000000  0.4909990000000  0.4681090000000 1.0
C      1  0.4500090000000  0.4239330000000  0.4786970000000 1.0
C      1  0.5420100000000  0.5784280000000  0.5247930000000 1.0
C      1  0.4645580000000  0.5827380000000  0.5207970000000 1.0
C      1  0.4185930000000  0.5221620000000  0.5267680000000 1.0
C      1  0.4243710000000  0.4499110000000  0.5255520000000 1.0
C      1  0.5004640000000  0.4206280000000  0.5329570000000 1.0
C      1  0.5689490000000  0.4419940000000  0.5286900000000 1.0
C      1  0.5813990000000  0.5170210000000  0.5273920000000 1.0
C      1  0.4751520000000  0.5818210000000  0.4926180000000 1.0
C      1  0.4234190000000  0.5263700000000  0.4941110000000 1.0
C      1  0.4259110000000  0.4614960000000  0.4980900000000 1.0
C      1  0.4856320000000  0.4230330000000  0.5054810000000 1.0
C      1  0.5564690000000  0.4391820000000  0.5000780000000 1.0
C      1  0.5804980000000  0.5096600000000  0.4955470000000 1.0
C      1  0.5476200000000  0.5670950000000  0.4978330000000 1.0
C      1  0.4494960000000  0.5081280000000  0.4857860000000 1.0
C      1  0.4548670000000  0.4769560000000  0.4939020000000 1.0
C      1  0.5127760000000  0.4608680000000  0.4812760000000 1.0
C      1  0.5424290000000  0.4712210000000  0.4834390000000 1.0
C      1  0.5505340000000  0.5068350000000  0.4852400000000 1.0
C      1  0.5331850000000  0.5361210000000  0.4957830000000 1.0
C      1  0.4849110000000  0.5536810000000  0.4820980000000 1.0
C      1  0.4904720000000  0.4440240000000  0.5502500000000 1.0
C      1  0.5380270000000  0.4654790000000  0.5554510000000 1.0
C      1  0.5577950000000  0.5059010000000  0.5415120000000 1.0
C      1  0.5299650000000  0.5415250000000  0.5506590000000 1.0
C      1  0.4844560000000  0.5417850000000  0.5515570000000 1.0
C      1  0.4450890000000  0.5197950000000  0.5393800000000 1.0
C      1  0.4540990000000  0.4724630000000  0.5566950000000 1.0
C      1  0.4052730000000  0.4954120000000  0.5339330000000 1.0
C      1  0.4476960000000  0.4335080000000  0.5309690000000 1.0
C      1  0.5293940000000  0.4215920000000  0.5305470000000 1.0
C      1  0.5832900000000  0.4669580000000  0.5383040000000 1.0
C      1  0.5802500000000  0.5470090000000  0.5325380000000 1.0
C      1  0.5133040000000  0.5792750000000  0.5295130000000 1.0
C      1  0.4438740000000  0.5662590000000  0.5335870000000 1.0
C      1  0.5235700000000  0.4703380000000  0.5812530000000 1.0
C      1  0.5265580000000  0.4977000000000  0.5880490000000 1.0
C      1  0.5213750000000  0.5231310000000  0.5767970000000 1.0
C      1  0.4926810000000  0.5256790000000  0.5755510000000 1.0
C      1  0.4780180000000  0.5048130000000  0.5864140000000 1.0
C      1  0.4720210000000  0.4780430000000  0.5818030000000 1.0
C      1  0.4958990000000  0.4594820000000  0.5778420000000 1.0
C      1  0.5072140000000  0.5216750000000  0.4534800000000 1.0
C      1  0.4830090000000  0.5288010000000  0.4389090000000 1.0
C      1  0.4666530000000  0.5043260000000  0.4370830000000 1.0
C      1  0.4813650000000  0.4814830000000  0.4479600000000 1.0
C      1  0.5043790000000  0.4678300000000  0.4347420000000 1.0
C      1  0.5308200000000  0.4820880000000  0.4322420000000 1.0
C      1  0.5299650000000  0.5106090000000  0.4392110000000 1.0
C      1  0.5613130000000  0.4416380000000  0.4507410000000 1.0
C      1  0.5909840000000  0.5107750000000  0.4490200000000 1.0
C      1  0.5370930000000  0.5654470000000  0.4525080000000 1.0
C      1  0.4697900000000  0.5836660000000  0.4479030000000 1.0
C      1  0.4209150000000  0.5272270000000  0.4483440000000 1.0
C      1  0.4301020000000  0.4548920000000  0.4517060000000 1.0
C      1  0.4921060000000  0.4219010000000  0.4565180000000 1.0
C      1  0.4943900000000  0.5971830000000  0.4505650000000 1.0
C      1  0.4324170000000  0.5529470000000  0.4503500000000 1.0
C      1  0.4217790000000  0.4826620000000  0.4498930000000 1.0
C      1  0.4643890000000  0.4267110000000  0.4549100000000 1.0
C      1  0.5359990000000  0.4269990000000  0.4516030000000 1.0
C      1  0.5825080000000  0.4832510000000  0.4520790000000 1.0
C      1  0.5588500000000  0.5464340000000  0.4533900000000 1.0
C      1  0.4974610000000  0.6022110000000  0.5231710000000 1.0
C      1  0.4172300000000  0.5580140000000  0.5224790000000 1.0
C      1  0.3859260000000  0.4871350000000  0.5154060000000 1.0
C      1  0.4518800000000  0.4071430000000  0.5223350000000 1.0
C      1  0.5447250000000  0.4024710000000  0.5175050000000 1.0
C      1  0.6016340000000  0.4859600000000  0.5242950000000 1.0
C      1  0.5946200000000  0.5636630000000  0.5151200000000 1.0
C      1  0.5205530000000  0.4779440000000  0.5346800000000 1.0
C      1  0.5336780000000  0.5015400000000  0.5258390000000 1.0
C      1  0.5204030000000  0.5269650000000  0.5231720000000 1.0
C      1  0.4899570000000  0.5265020000000  0.5258780000000 1.0
C      1  0.4658400000000  0.5087810000000  0.5208500000000 1.0
C      1  0.4707220000000  0.4835380000000  0.5342730000000 1.0
C      1  0.4935180000000  0.4662610000000  0.5285310000000 1.0
C      1  0.5547450000000  0.5585900000000  0.5433180000000 1.0
C      1  0.5070540000000  0.5627540000000  0.5520330000000 1.0
C      1  0.4544110000000  0.5453470000000  0.5512550000000 1.0
C      1  0.4226750000000  0.4729030000000  0.5445790000000 1.0
C      1  0.4610370000000  0.4431240000000  0.5537650000000 1.0
C      1  0.5460680000000  0.4376710000000  0.5474060000000 1.0
C      1  0.5638060000000  0.4809640000000  0.5553630000000 1.0
C      1  0.4879290000000  0.4553100000000  0.4998210000000 1.0
END
