TITL C-3577084-3642-434 -2.57076720471519e-07 125000 -208.393679016462 0 0 34 (C1) n - 1
REM
REM in /home/bkarasulu/work/CARBON/AIRSS/Generating-Clusters/EDIP-Nigel-Params/with-SteepDescent/Higher-Symm/SD-CG/HFTN-CG
REM
REM
REM
REM
REM
REM ./C.cell (12c818d87b63d06a65506943cc24bca4)
REM
REM compiler GCC version 9.2.1 20190827 (Red Hat 9.2.1-1)
REM options -cpp -mtune=generic -march=x86-64 -g -O0 -fpre-include=/usr/include/finclude/math-vector-fortran.h
REM seed 1141122236 -1427416607 -1054956375 -738303412 -1855388335 -1809282188 1160544258 1868411305 -1517623964 917575171 907059084 -2033239153 -1634905198 1822595267 1391098252 -1226335147 -2014861379 -743754994 2121744697 -2099569376 1780135841 1740339803 -699637645 795273773 -981407891 1400032421 -1257343527 -453640410 -1412508883 -933659497 -365308035 -1875788597 1900151744
REM
CELL 1.54180   50.00000   50.00000   50.00000   90.00000   90.00000   90.00000
LATT -1
SFAC C  
C      1  0.5170750000000  0.5414310000000  0.5188870000000 1.0
C      1  0.5142690000000  0.4979520000000  0.5413650000000 1.0
C      1  0.5172570000000  0.4566580000000  0.5128420000000 1.0
C      1  0.5214520000000  0.4756080000000  0.4622530000000 1.0
C      1  0.5157760000000  0.5168300000000  0.4776300000000 1.0
C      1  0.4865130000000  0.5375590000000  0.5181310000000 1.0
C      1  0.4845840000000  0.4976550000000  0.5450210000000 1.0
C      1  0.4870610000000  0.4574340000000  0.5105680000000 1.0
C      1  0.4906010000000  0.4751620000000  0.4626400000000 1.0
C      1  0.4887460000000  0.5248170000000  0.4677690000000 1.0
C      1  0.4752330000000  0.5004990000000  0.4563880000000 1.0
C      1  0.4714700000000  0.5352290000000  0.4898750000000 1.0
C      1  0.4728370000000  0.5249070000000  0.5418940000000 1.0
C      1  0.4695680000000  0.4730670000000  0.5300560000000 1.0
C      1  0.4753250000000  0.4593290000000  0.4832970000000 1.0
C      1  0.5323360000000  0.5039900000000  0.4559260000000 1.0
C      1  0.5311230000000  0.5377410000000  0.4926810000000 1.0
C      1  0.5305470000000  0.5223200000000  0.5375160000000 1.0
C      1  0.5292710000000  0.4741730000000  0.5340140000000 1.0
C      1  0.5345190000000  0.4623540000000  0.4874950000000 1.0
C      1  0.4479830000000  0.4720320000000  0.4860290000000 1.0
C      1  0.4480000000000  0.4977140000000  0.4696750000000 1.0
C      1  0.4451250000000  0.5201460000000  0.4894520000000 1.0
C      1  0.4453120000000  0.5233350000000  0.5384890000000 1.0
C      1  0.4438510000000  0.4799120000000  0.5149850000000 1.0
C      1  0.5612330000000  0.4732060000000  0.4971840000000 1.0
C      1  0.5600760000000  0.5086890000000  0.4622660000000 1.0
C      1  0.5584640000000  0.5255740000000  0.4971360000000 1.0
C      1  0.5567980000000  0.5136660000000  0.5252430000000 1.0
C      1  0.5564750000000  0.4831980000000  0.5250940000000 1.0
C      1  0.5110620000000  0.4924760000000  0.4976890000000 1.0
C      1  0.4815480000000  0.5010700000000  0.5060180000000 1.0
C      1  0.5739670000000  0.4938460000000  0.4815170000000 1.0
C      1  0.4366460000000  0.5089310000000  0.5157860000000 1.0
END
