TITL C-3578201-9217-485 -2.62998181732757e-06 125000 -1067.22338920681 0 0 169 (C1) n - 1
REM
REM in /home/bkarasulu/work/CARBON/AIRSS/Generating-Clusters/EDIP-Nigel-Params/with-SteepDescent/Higher-Symm/SD-CG/HFTN-CG
REM
REM
REM
REM
REM
REM ./C.cell (12c818d87b63d06a65506943cc24bca4)
REM
REM compiler GCC version 9.2.1 20190827 (Red Hat 9.2.1-1)
REM options -cpp -mtune=generic -march=x86-64 -g -O0 -fpre-include=/usr/include/finclude/math-vector-fortran.h
REM seed -502600694 -2058359455 1194395782 -66909484 -369471439 -1487043738 492587733 -909656221 929844417 1081643717 1091830312 -2035015942 -1109807069 -640178176 842477662 871518202 -1555038485 -139973676 -185271664 -80979764 -319903279 1864601189 1245999900 -1349463959 -1992139812 300343935 -1040727227 1705657231 -405155718 -1466682149 -734905413 -50451782 468042914
REM
CELL 1.54180   50.00000   50.00000   50.00000   90.00000   90.00000   90.00000
LATT -1
SFAC C  
C      1  0.5691860000000  0.5852020000000  0.5377650000000 1.0
C      1  0.4850210000000  0.5825610000000  0.5704600000000 1.0
C      1  0.4181480000000  0.5856620000000  0.5072740000000 1.0
C      1  0.4716510000000  0.5810030000000  0.4317480000000 1.0
C      1  0.5594100000000  0.5822530000000  0.4486730000000 1.0
C      1  0.5900070000000  0.5194760000000  0.4209650000000 1.0
C      1  0.6034080000000  0.5214510000000  0.5627170000000 1.0
C      1  0.4742150000000  0.5203840000000  0.6158630000000 1.0
C      1  0.3775720000000  0.5222590000000  0.5122950000000 1.0
C      1  0.4521710000000  0.5192340000000  0.3936050000000 1.0
C      1  0.6028950000000  0.4594180000000  0.4791140000000 1.0
C      1  0.5444830000000  0.4631070000000  0.5828350000000 1.0
C      1  0.4276450000000  0.4594010000000  0.5800360000000 1.0
C      1  0.4097630000000  0.4611570000000  0.4606960000000 1.0
C      1  0.5121610000000  0.4602010000000  0.3967370000000 1.0
C      1  0.5081010000000  0.5122640000000  0.3895530000000 1.0
C      1  0.6097310000000  0.5112210000000  0.4733080000000 1.0
C      1  0.5507650000000  0.5164880000000  0.5830300000000 1.0
C      1  0.4276400000000  0.5134780000000  0.5866030000000 1.0
C      1  0.4103960000000  0.5128840000000  0.4668380000000 1.0
C      1  0.4901920000000  0.4962930000000  0.5422800000000 1.0
C      1  0.4435310000000  0.4767670000000  0.5100560000000 1.0
C      1  0.4799830000000  0.4928410000000  0.4639960000000 1.0
C      1  0.5333090000000  0.4872180000000  0.4638820000000 1.0
C      1  0.5467260000000  0.4838570000000  0.5227510000000 1.0
C      1  0.4722980000000  0.4055910000000  0.5616140000000 1.0
C      1  0.4409180000000  0.4092350000000  0.4961370000000 1.0
C      1  0.4871550000000  0.4065090000000  0.4358750000000 1.0
C      1  0.5566070000000  0.4085860000000  0.4656350000000 1.0
C      1  0.5467960000000  0.4061540000000  0.5409440000000 1.0
C      1  0.5500380000000  0.5874220000000  0.5622000000000 1.0
C      1  0.4562100000000  0.5848050000000  0.5625090000000 1.0
C      1  0.4279730000000  0.5838870000000  0.4797820000000 1.0
C      1  0.5001430000000  0.5815090000000  0.4251310000000 1.0
C      1  0.5762550000000  0.5834980000000  0.4737250000000 1.0
C      1  0.4961690000000  0.5371540000000  0.4009420000000 1.0
C      1  0.5936540000000  0.5355100000000  0.4657840000000 1.0
C      1  0.5640200000000  0.5422960000000  0.5770980000000 1.0
C      1  0.4441660000000  0.5387820000000  0.5847590000000 1.0
C      1  0.4024970000000  0.5399820000000  0.4762340000000 1.0
C      1  0.5449830000000  0.4162350000000  0.5120110000000 1.0
C      1  0.5022400000000  0.4082350000000  0.5491700000000 1.0
C      1  0.4512740000000  0.4159080000000  0.5236000000000 1.0
C      1  0.4709100000000  0.4166880000000  0.4591720000000 1.0
C      1  0.5308940000000  0.4162040000000  0.4509900000000 1.0
C      1  0.5474450000000  0.4321440000000  0.5590400000000 1.0
C      1  0.4523760000000  0.4312300000000  0.5703740000000 1.0
C      1  0.4278950000000  0.4319180000000  0.4788710000000 1.0
C      1  0.4961100000000  0.4322730000000  0.4188510000000 1.0
C      1  0.5743080000000  0.4343260000000  0.4719220000000 1.0
C      1  0.4632980000000  0.4942650000000  0.5549140000000 1.0
C      1  0.4399370000000  0.4997600000000  0.4885180000000 1.0
C      1  0.4938240000000  0.4947100000000  0.4371090000000 1.0
C      1  0.5672820000000  0.5021400000000  0.4773400000000 1.0
C      1  0.5390610000000  0.5042130000000  0.5478590000000 1.0
C      1  0.5881880000000  0.5090070000000  0.5206920000000 1.0
C      1  0.5040090000000  0.5127390000000  0.5837170000000 1.0
C      1  0.4174990000000  0.5083720000000  0.5346750000000 1.0
C      1  0.4458210000000  0.5077410000000  0.4379840000000 1.0
C      1  0.5450640000000  0.5100020000000  0.4254420000000 1.0
C      1  0.4920320000000  0.5550590000000  0.5790350000000 1.0
C      1  0.4177540000000  0.5574250000000  0.5173630000000 1.0
C      1  0.4609490000000  0.5528670000000  0.4327330000000 1.0
C      1  0.5558270000000  0.5537680000000  0.4402950000000 1.0
C      1  0.5752930000000  0.5564840000000  0.5321540000000 1.0
C      1  0.5257460000000  0.5252990000000  0.5970850000000 1.0
C      1  0.4112620000000  0.5267060000000  0.5555860000000 1.0
C      1  0.4216310000000  0.5217560000000  0.4403240000000 1.0
C      1  0.5408480000000  0.5261170000000  0.4023410000000 1.0
C      1  0.6061080000000  0.5267250000000  0.5075510000000 1.0
C      1  0.4266360000000  0.4676550000000  0.4392090000000 1.0
C      1  0.5310270000000  0.4688770000000  0.4165510000000 1.0
C      1  0.5934940000000  0.4676510000000  0.5051450000000 1.0
C      1  0.5177600000000  0.4709710000000  0.5781640000000 1.0
C      1  0.4200240000000  0.4682290000000  0.5536930000000 1.0
C      1  0.4727290000000  0.4630270000000  0.5079960000000 1.0
C      1  0.4860870000000  0.4670690000000  0.4796440000000 1.0
C      1  0.5189090000000  0.4670090000000  0.4818870000000 1.0
C      1  0.5221240000000  0.4653590000000  0.5122180000000 1.0
C      1  0.4951160000000  0.4748620000000  0.5226700000000 1.0
C      1  0.5492650000000  0.4493580000000  0.4272230000000 1.0
C      1  0.5818200000000  0.4465430000000  0.5211180000000 1.0
C      1  0.5002530000000  0.4502850000000  0.5723930000000 1.0
C      1  0.4153760000000  0.4472800000000  0.5343290000000 1.0
C      1  0.4494890000000  0.4514710000000  0.4378570000000 1.0
C      1  0.4918780000000  0.5504620000000  0.5403620000000 1.0
C      1  0.4498710000000  0.5493870000000  0.5066120000000 1.0
C      1  0.4812240000000  0.5462020000000  0.4652550000000 1.0
C      1  0.5376490000000  0.5431190000000  0.4652810000000 1.0
C      1  0.5422570000000  0.5500330000000  0.5195040000000 1.0
C      1  0.3972500000000  0.4776060000000  0.5000930000000 1.0
C      1  0.4781320000000  0.4827690000000  0.4145290000000 1.0
C      1  0.5760120000000  0.4841600000000  0.4525870000000 1.0
C      1  0.5752210000000  0.4805520000000  0.5564570000000 1.0
C      1  0.4651360000000  0.4832240000000  0.5824010000000 1.0
C      1  0.4525040000000  0.4979750000000  0.4117550000000 1.0
C      1  0.5717410000000  0.4991340000000  0.4268960000000 1.0
C      1  0.5948730000000  0.5001890000000  0.5467390000000 1.0
C      1  0.4841900000000  0.4996960000000  0.5998230000000 1.0
C      1  0.3947080000000  0.5009590000000  0.5184240000000 1.0
C      1  0.4903900000000  0.5225210000000  0.5283430000000 1.0
C      1  0.4579670000000  0.5210430000000  0.4982470000000 1.0
C      1  0.4827260000000  0.5195050000000  0.4817070000000 1.0
C      1  0.5395320000000  0.5145300000000  0.4763610000000 1.0
C      1  0.5332700000000  0.5202490000000  0.5187550000000 1.0
C      1  0.4654830000000  0.5632350000000  0.5300740000000 1.0
C      1  0.4684800000000  0.5675210000000  0.4872930000000 1.0
C      1  0.5085220000000  0.5616630000000  0.4693310000000 1.0
C      1  0.5415640000000  0.5632910000000  0.4905940000000 1.0
C      1  0.5131010000000  0.5670120000000  0.5235140000000 1.0
C      1  0.3950520000000  0.5426970000000  0.5034220000000 1.0
C      1  0.4680120000000  0.5390040000000  0.4062870000000 1.0
C      1  0.5833230000000  0.5398560000000  0.4393850000000 1.0
C      1  0.5845640000000  0.5419770000000  0.5577120000000 1.0
C      1  0.4700120000000  0.5414830000000  0.5971040000000 1.0
C      1  0.5094440000000  0.5983650000000  0.4473720000000 1.0
C      1  0.5537620000000  0.6006020000000  0.4885360000000 1.0
C      1  0.5289520000000  0.6018050000000  0.5448890000000 1.0
C      1  0.4572870000000  0.5941170000000  0.5339320000000 1.0
C      1  0.4513870000000  0.5997100000000  0.4744640000000 1.0
C      1  0.5240780000000  0.4909820000000  0.4350710000000 1.0
C      1  0.5733420000000  0.4896820000000  0.5052540000000 1.0
C      1  0.5132060000000  0.4955610000000  0.5625730000000 1.0
C      1  0.4376980000000  0.4874290000000  0.5390820000000 1.0
C      1  0.4503230000000  0.4893310000000  0.4606080000000 1.0
C      1  0.6045910000000  0.4834460000000  0.4616680000000 1.0
C      1  0.5619960000000  0.4865610000000  0.5813290000000 1.0
C      1  0.4373260000000  0.4850410000000  0.5930410000000 1.0
C      1  0.3969080000000  0.4845910000000  0.4717730000000 1.0
C      1  0.4959090000000  0.4846900000000  0.3904420000000 1.0
C      1  0.5678320000000  0.4537220000000  0.5458040000000 1.0
C      1  0.4722460000000  0.4539690000000  0.5777140000000 1.0
C      1  0.4198510000000  0.4575530000000  0.5059520000000 1.0
C      1  0.4730630000000  0.4536340000000  0.4204250000000 1.0
C      1  0.5624030000000  0.4565830000000  0.4531900000000 1.0
C      1  0.5398910000000  0.5525280000000  0.4140640000000 1.0
C      1  0.5954310000000  0.5536600000000  0.5096390000000 1.0
C      1  0.5204010000000  0.5535460000000  0.5896810000000 1.0
C      1  0.4166010000000  0.5541660000000  0.5480230000000 1.0
C      1  0.4316570000000  0.5498410000000  0.4409050000000 1.0
C      1  0.5468610000000  0.5943790000000  0.5188750000000 1.0
C      1  0.5016350000000  0.5933410000000  0.5492540000000 1.0
C      1  0.4332540000000  0.6029020000000  0.5229530000000 1.0
C      1  0.4720710000000  0.5978710000000  0.4552540000000 1.0
C      1  0.5354920000000  0.5955080000000  0.4608320000000 1.0
C      1  0.4880300000000  0.4402040000000  0.4649560000000 1.0
C      1  0.5172080000000  0.4380390000000  0.4669530000000 1.0
C      1  0.5218730000000  0.4346110000000  0.5136730000000 1.0
C      1  0.4976670000000  0.4186660000000  0.5199090000000 1.0
C      1  0.4734720000000  0.4351750000000  0.5193660000000 1.0
C      1  0.5844010000000  0.5568780000000  0.4834880000000 1.0
C      1  0.5426330000000  0.5607020000000  0.5718530000000 1.0
C      1  0.4396770000000  0.5593370000000  0.5648900000000 1.0
C      1  0.4230380000000  0.5582110000000  0.4672160000000 1.0
C      1  0.5115500000000  0.5561530000000  0.4165580000000 1.0
C      1  0.5114070000000  0.3929590000000  0.4490480000000 1.0
C      1  0.5424290000000  0.3958290000000  0.4896380000000 1.0
C      1  0.5244700000000  0.3887930000000  0.5471490000000 1.0
C      1  0.4613660000000  0.3927140000000  0.5384210000000 1.0
C      1  0.4661170000000  0.3984350000000  0.4826890000000 1.0
C      1  0.4338850000000  0.4273020000000  0.5440130000000 1.0
C      1  0.4448890000000  0.4285710000000  0.4535700000000 1.0
C      1  0.5338830000000  0.4254070000000  0.4236540000000 1.0
C      1  0.5672080000000  0.4321400000000  0.5017730000000 1.0
C      1  0.5164840000000  0.4287770000000  0.5644220000000 1.0
C      1  0.4917080000000  0.3957090000000  0.4989400000000 1.0
C      1  0.5144130000000  0.3872610000000  0.4809610000000 1.0
C      1  0.5050780000000  0.5195520000000  0.5035030000000 1.0
C      1  0.4993430000000  0.5731890000000  0.4967870000000 1.0
END
