TITL C-3578197-9521-463 1.28202171814732e-07 125000 -638.594789301636 0 0 105 (C1) n - 1
REM
REM in /home/bkarasulu/work/CARBON/AIRSS/Generating-Clusters/EDIP-Nigel-Params/with-SteepDescent/Higher-Symm/SD-CG/HFTN-CG
REM
REM
REM
REM
REM
REM ./C.cell (12c818d87b63d06a65506943cc24bca4)
REM
REM compiler GCC version 9.2.1 20190827 (Red Hat 9.2.1-1)
REM options -cpp -mtune=generic -march=x86-64 -g -O0 -fpre-include=/usr/include/finclude/math-vector-fortran.h
REM seed -1505322218 1189297153 -685477178 -1852641984 1774284615 1037257215 1149771014 -196166135 2023439886 -1919096267 -1055092339 -1926080569 -1771291938 -1325116378 1841940881 -568089548 188231237 1552141482 1425036389 1962660913 -559225514 1681265783 302907311 2062924467 -1177201876 -1039946257 1736615319 1230402425 1440913066 502329708 534206155 1902662621 -1196165349
REM
CELL 1.54180   50.00000   50.00000   50.00000   90.00000   90.00000   90.00000
LATT -1
SFAC C  
C      1  0.4570630000000  0.5754290000000  0.5124270000000 1.0
C      1  0.5045460000000  0.5903810000000  0.5171960000000 1.0
C      1  0.5491390000000  0.5701350000000  0.5184330000000 1.0
C      1  0.5764930000000  0.5323530000000  0.5164580000000 1.0
C      1  0.5831830000000  0.4823650000000  0.5203600000000 1.0
C      1  0.5642890000000  0.4389830000000  0.5245970000000 1.0
C      1  0.5219000000000  0.4160680000000  0.5161700000000 1.0
C      1  0.4703300000000  0.4156400000000  0.5202970000000 1.0
C      1  0.4328620000000  0.4446060000000  0.5185810000000 1.0
C      1  0.4179820000000  0.4922970000000  0.5134790000000 1.0
C      1  0.4200790000000  0.5402540000000  0.5156840000000 1.0
C      1  0.5503130000000  0.5205990000000  0.4494820000000 1.0
C      1  0.5450770000000  0.4916790000000  0.4416680000000 1.0
C      1  0.5178120000000  0.4843260000000  0.4358090000000 1.0
C      1  0.5114460000000  0.4562460000000  0.4383970000000 1.0
C      1  0.4854680000000  0.4511260000000  0.4518840000000 1.0
C      1  0.4613500000000  0.4663510000000  0.4422550000000 1.0
C      1  0.4513150000000  0.4944150000000  0.4401890000000 1.0
C      1  0.4524530000000  0.5235750000000  0.4505120000000 1.0
C      1  0.4760290000000  0.5400560000000  0.4402640000000 1.0
C      1  0.5057350000000  0.5502970000000  0.4527770000000 1.0
C      1  0.5312900000000  0.5414350000000  0.4384010000000 1.0
C      1  0.4255590000000  0.5357950000000  0.4431780000000 1.0
C      1  0.4682450000000  0.5692730000000  0.4388890000000 1.0
C      1  0.4962320000000  0.5793830000000  0.4449380000000 1.0
C      1  0.5495010000000  0.5627900000000  0.4291960000000 1.0
C      1  0.5750950000000  0.5525430000000  0.4229570000000 1.0
C      1  0.5659870000000  0.4742450000000  0.4299620000000 1.0
C      1  0.5587970000000  0.4437480000000  0.4313240000000 1.0
C      1  0.5333880000000  0.4385690000000  0.4448440000000 1.0
C      1  0.4511220000000  0.4191710000000  0.4411310000000 1.0
C      1  0.4400170000000  0.4453670000000  0.4408880000000 1.0
C      1  0.4091530000000  0.5160340000000  0.4323150000000 1.0
C      1  0.4516980000000  0.5224210000000  0.4815280000000 1.0
C      1  0.4738170000000  0.5451970000000  0.4936940000000 1.0
C      1  0.5068600000000  0.5511520000000  0.4839720000000 1.0
C      1  0.5442020000000  0.5574380000000  0.4911740000000 1.0
C      1  0.5637310000000  0.5341130000000  0.4891580000000 1.0
C      1  0.5705750000000  0.4763380000000  0.4947950000000 1.0
C      1  0.5586000000000  0.4489140000000  0.4963280000000 1.0
C      1  0.5217060000000  0.4463160000000  0.4917870000000 1.0
C      1  0.4879590000000  0.4503140000000  0.4846570000000 1.0
C      1  0.4576820000000  0.4655290000000  0.4963920000000 1.0
C      1  0.4376320000000  0.4907410000000  0.4892170000000 1.0
C      1  0.4220940000000  0.4917260000000  0.4387170000000 1.0
C      1  0.4136310000000  0.5485910000000  0.4657210000000 1.0
C      1  0.4497410000000  0.5767450000000  0.4593100000000 1.0
C      1  0.4973070000000  0.5984920000000  0.4662140000000 1.0
C      1  0.5493520000000  0.5857030000000  0.4454260000000 1.0
C      1  0.5775800000000  0.5297780000000  0.4392460000000 1.0
C      1  0.5908920000000  0.4690060000000  0.4477870000000 1.0
C      1  0.5829150000000  0.4388180000000  0.4500790000000 1.0
C      1  0.5287300000000  0.4128550000000  0.4557490000000 1.0
C      1  0.4764010000000  0.4217600000000  0.4529080000000 1.0
C      1  0.4226210000000  0.4500810000000  0.4652520000000 1.0
C      1  0.4800100000000  0.5794970000000  0.5314020000000 1.0
C      1  0.5241460000000  0.5739780000000  0.5325320000000 1.0
C      1  0.5614190000000  0.5498530000000  0.5360330000000 1.0
C      1  0.5729500000000  0.5072260000000  0.5322110000000 1.0
C      1  0.5718120000000  0.4630650000000  0.5400050000000 1.0
C      1  0.5401940000000  0.4279620000000  0.5373540000000 1.0
C      1  0.4957410000000  0.4284070000000  0.5224410000000 1.0
C      1  0.4536750000000  0.4327920000000  0.5366020000000 1.0
C      1  0.4296950000000  0.4717890000000  0.5298950000000 1.0
C      1  0.4209020000000  0.5152660000000  0.5324510000000 1.0
C      1  0.4448900000000  0.5521950000000  0.5260810000000 1.0
C      1  0.4780700000000  0.4202680000000  0.4828960000000 1.0
C      1  0.4399960000000  0.4413840000000  0.4883250000000 1.0
C      1  0.4185340000000  0.4800070000000  0.4665020000000 1.0
C      1  0.4239310000000  0.5330020000000  0.4872020000000 1.0
C      1  0.4651510000000  0.5731210000000  0.4829630000000 1.0
C      1  0.5082090000000  0.5825980000000  0.4876540000000 1.0
C      1  0.5492080000000  0.5773860000000  0.4711920000000 1.0
C      1  0.5825590000000  0.5335650000000  0.4674480000000 1.0
C      1  0.5867490000000  0.4809840000000  0.4727150000000 1.0
C      1  0.5731590000000  0.4336310000000  0.4763030000000 1.0
C      1  0.5298560000000  0.4177150000000  0.4837770000000 1.0
C      1  0.5144330000000  0.5467180000000  0.5372390000000 1.0
C      1  0.5375620000000  0.5315330000000  0.5502050000000 1.0
C      1  0.5443660000000  0.5039190000000  0.5388610000000 1.0
C      1  0.5461620000000  0.4757780000000  0.5507860000000 1.0
C      1  0.5253490000000  0.4514460000000  0.5513550000000 1.0
C      1  0.4976460000000  0.4521750000000  0.5384830000000 1.0
C      1  0.4697190000000  0.4570430000000  0.5491570000000 1.0
C      1  0.4561230000000  0.4815430000000  0.5366510000000 1.0
C      1  0.4495800000000  0.5101430000000  0.5464750000000 1.0
C      1  0.4653970000000  0.5332250000000  0.5342340000000 1.0
C      1  0.4863620000000  0.5520170000000  0.5463230000000 1.0
C      1  0.4515180000000  0.5107100000000  0.5766760000000 1.0
C      1  0.4661940000000  0.5328730000000  0.5856340000000 1.0
C      1  0.4855100000000  0.5510260000000  0.5765290000000 1.0
C      1  0.5114150000000  0.5481370000000  0.5871320000000 1.0
C      1  0.5323590000000  0.5299930000000  0.5810590000000 1.0
C      1  0.5221220000000  0.5027120000000  0.5885150000000 1.0
C      1  0.5386860000000  0.4785890000000  0.5878840000000 1.0
C      1  0.5231150000000  0.4539160000000  0.5817470000000 1.0
C      1  0.4960390000000  0.4554290000000  0.5896800000000 1.0
C      1  0.4704590000000  0.4607610000000  0.5793090000000 1.0
C      1  0.4588680000000  0.4854070000000  0.5867340000000 1.0
C      1  0.5043240000000  0.5011920000000  0.5200450000000 1.0
C      1  0.4990890000000  0.4993680000000  0.5725160000000 1.0
C      1  0.4930210000000  0.5111590000000  0.4696840000000 1.0
C      1  0.4997150000000  0.5101560000000  0.4953840000000 1.0
C      1  0.4982270000000  0.5018820000000  0.4450420000000 1.0
C      1  0.4971530000000  0.4960310000000  0.5454840000000 1.0
END
