TITL C-3578203-1966-588 5.30766150380997e-06 125000 -513.378979704156 0 0 84 (C1) n - 1
REM
REM in /home/bkarasulu/work/CARBON/AIRSS/Generating-Clusters/EDIP-Nigel-Params/with-SteepDescent/Higher-Symm/SD-CG/HFTN-CG
REM
REM
REM
REM
REM
REM ./C.cell (12c818d87b63d06a65506943cc24bca4)
REM
REM compiler GCC version 9.2.1 20190827 (Red Hat 9.2.1-1)
REM options -cpp -mtune=generic -march=x86-64 -g -O0 -fpre-include=/usr/include/finclude/math-vector-fortran.h
REM seed -1838108281 -904960448 946280019 -707218222 1116921595 -741422963 -1313788973 1144641981 799221119 143086358 1893932764 -88397878 -1173747214 -1063900375 -203618022 -281527098 1296891462 -403184124 -615724477 792509470 1914071848 2026882286 -521284508 915493037 -374172458 960710993 1850591196 -1665697307 1733652089 -502034780 -1211178610 -1607754951 -1908564706
REM
CELL 1.54180   50.00000   50.00000   50.00000   90.00000   90.00000   90.00000
LATT -1
SFAC C  
C      1  0.4820930000000  0.4349940000000  0.5195450000000 1.0
C      1  0.4803970000000  0.4951570000000  0.5672980000000 1.0
C      1  0.4814950000000  0.5625430000000  0.5259720000000 1.0
C      1  0.4804540000000  0.5414120000000  0.4511760000000 1.0
C      1  0.4807840000000  0.4644880000000  0.4482910000000 1.0
C      1  0.5060190000000  0.4208940000000  0.5300790000000 1.0
C      1  0.5036620000000  0.5015830000000  0.5848640000000 1.0
C      1  0.5049620000000  0.5812070000000  0.5253640000000 1.0
C      1  0.5032900000000  0.5463130000000  0.4331250000000 1.0
C      1  0.5030520000000  0.4487460000000  0.4377100000000 1.0
C      1  0.4209230000000  0.5399290000000  0.5123380000000 1.0
C      1  0.4206130000000  0.5279940000000  0.4694620000000 1.0
C      1  0.4266510000000  0.4748960000000  0.4677300000000 1.0
C      1  0.4276910000000  0.4559850000000  0.5077140000000 1.0
C      1  0.4294110000000  0.4945420000000  0.5293820000000 1.0
C      1  0.5097610000000  0.5899210000000  0.4982630000000 1.0
C      1  0.5075190000000  0.5236810000000  0.4159260000000 1.0
C      1  0.5103050000000  0.4271450000000  0.4545100000000 1.0
C      1  0.5125430000000  0.4297510000000  0.5565090000000 1.0
C      1  0.5060070000000  0.5301920000000  0.5882380000000 1.0
C      1  0.4791210000000  0.5457890000000  0.5508350000000 1.0
C      1  0.4769620000000  0.5632590000000  0.4712900000000 1.0
C      1  0.4752030000000  0.4899200000000  0.4338130000000 1.0
C      1  0.4767550000000  0.4308060000000  0.4906160000000 1.0
C      1  0.4776720000000  0.4652750000000  0.5622400000000 1.0
C      1  0.5286610000000  0.4905820000000  0.5768590000000 1.0
C      1  0.5294470000000  0.5731690000000  0.5374430000000 1.0
C      1  0.5273590000000  0.5541360000000  0.4457930000000 1.0
C      1  0.5261400000000  0.4620960000000  0.4292620000000 1.0
C      1  0.5287000000000  0.4184350000000  0.5133570000000 1.0
C      1  0.5489850000000  0.4357830000000  0.5044740000000 1.0
C      1  0.5499890000000  0.4848270000000  0.5593510000000 1.0
C      1  0.5522440000000  0.5559630000000  0.5366430000000 1.0
C      1  0.5470020000000  0.5448050000000  0.4638620000000 1.0
C      1  0.5473240000000  0.4755320000000  0.4421590000000 1.0
C      1  0.4351840000000  0.4468940000000  0.4654590000000 1.0
C      1  0.4368160000000  0.4518310000000  0.5349850000000 1.0
C      1  0.4400790000000  0.5167700000000  0.5448420000000 1.0
C      1  0.4347630000000  0.5598760000000  0.4966810000000 1.0
C      1  0.4338930000000  0.5139840000000  0.4478730000000 1.0
C      1  0.5127670000000  0.4625500000000  0.5355220000000 1.0
C      1  0.5172280000000  0.5234860000000  0.5512940000000 1.0
C      1  0.5113700000000  0.5511030000000  0.4953770000000 1.0
C      1  0.5101820000000  0.5084100000000  0.4516070000000 1.0
C      1  0.5098390000000  0.4567870000000  0.4796590000000 1.0
C      1  0.4648300000000  0.5576880000000  0.4988590000000 1.0
C      1  0.4638680000000  0.5144980000000  0.4483230000000 1.0
C      1  0.4644990000000  0.4526460000000  0.4721200000000 1.0
C      1  0.4660420000000  0.4538600000000  0.5366720000000 1.0
C      1  0.4676780000000  0.5181450000000  0.5522610000000 1.0
C      1  0.5829920000000  0.4741830000000  0.5128090000000 1.0
C      1  0.5813860000000  0.5027400000000  0.5258370000000 1.0
C      1  0.5819360000000  0.5247610000000  0.5054500000000 1.0
C      1  0.5802530000000  0.5100450000000  0.4779960000000 1.0
C      1  0.5814770000000  0.4793940000000  0.4814180000000 1.0
C      1  0.5641590000000  0.4499330000000  0.5255720000000 1.0
C      1  0.5648880000000  0.5079240000000  0.5501000000000 1.0
C      1  0.5619730000000  0.5487570000000  0.5090660000000 1.0
C      1  0.5594510000000  0.5191640000000  0.4579500000000 1.0
C      1  0.5608020000000  0.4620640000000  0.4652420000000 1.0
C      1  0.4992130000000  0.5508560000000  0.5702440000000 1.0
C      1  0.4999960000000  0.5803380000000  0.4733800000000 1.0
C      1  0.4971580000000  0.4974550000000  0.4171780000000 1.0
C      1  0.5002360000000  0.4196020000000  0.4793920000000 1.0
C      1  0.5016270000000  0.4516230000000  0.5704880000000 1.0
C      1  0.5387950000000  0.5384980000000  0.4923080000000 1.0
C      1  0.5383180000000  0.4991880000000  0.4561140000000 1.0
C      1  0.5401990000000  0.4598930000000  0.4879360000000 1.0
C      1  0.5424250000000  0.4706810000000  0.5343320000000 1.0
C      1  0.5463270000000  0.5310190000000  0.5510270000000 1.0
C      1  0.5069390000000  0.5111310000000  0.5212980000000 1.0
C      1  0.4903780000000  0.5280790000000  0.5003020000000 1.0
C      1  0.4887690000000  0.5066130000000  0.4771270000000 1.0
C      1  0.4860990000000  0.4785660000000  0.4914520000000 1.0
C      1  0.4952220000000  0.4831610000000  0.5206810000000 1.0
C      1  0.4233740000000  0.4886260000000  0.4436870000000 1.0
C      1  0.4255610000000  0.4339460000000  0.4891220000000 1.0
C      1  0.4236500000000  0.4729660000000  0.5483290000000 1.0
C      1  0.4278380000000  0.5410020000000  0.5392970000000 1.0
C      1  0.4256500000000  0.5559530000000  0.4702600000000 1.0
C      1  0.4430850000000  0.4819280000000  0.4952710000000 1.0
C      1  0.5306520000000  0.5101510000000  0.5029040000000 1.0
C      1  0.4217040000000  0.5141520000000  0.4963330000000 1.0
C      1  0.5461650000000  0.4850630000000  0.5063160000000 1.0
END
