TITL C-3578204-4308-190 -7.45122996194689e-06 125000 -1111.48503991888 0 0 177 (C1) n - 1
REM
REM in /home/bkarasulu/work/CARBON/AIRSS/Generating-Clusters/EDIP-Nigel-Params/with-SteepDescent/Higher-Symm/SD-CG/HFTN-CG
REM
REM
REM
REM
REM
REM ./C.cell (12c818d87b63d06a65506943cc24bca4)
REM
REM compiler GCC version 9.2.1 20190827 (Red Hat 9.2.1-1)
REM options -cpp -mtune=generic -march=x86-64 -g -O0 -fpre-include=/usr/include/finclude/math-vector-fortran.h
REM seed 508961156 993291703 -1866349802 103653518 -1878015536 -1991685901 743797018 -483459535 -813921513 1303897623 487912030 1015451951 238316848 -2083053090 1686286516 -306597806 -851509566 -369686868 -2102345196 738145210 -841927949 475372312 158767984 -1980170003 1244785884 -1343328741 2091224190 940130244 363237673 458501330 2075720566 1018141671 -1073163935
REM
CELL 1.54180   50.00000   50.00000   50.00000   90.00000   90.00000   90.00000
LATT -1
SFAC C  
C      1  0.5560370000000  0.5586210000000  0.5825690000000 1.0
C      1  0.5608910000000  0.4406860000000  0.4221010000000 1.0
C      1  0.4489330000000  0.4377640000000  0.5799000000000 1.0
C      1  0.4460610000000  0.5545930000000  0.4171680000000 1.0
C      1  0.6114450000000  0.5129680000000  0.4898750000000 1.0
C      1  0.5086830000000  0.3876110000000  0.5113410000000 1.0
C      1  0.3837510000000  0.4818830000000  0.4899520000000 1.0
C      1  0.4836350000000  0.6072250000000  0.5089470000000 1.0
C      1  0.5374000000000  0.5233810000000  0.3984530000000 1.0
C      1  0.5194420000000  0.4777200000000  0.5812240000000 1.0
C      1  0.4798630000000  0.4821590000000  0.4221020000000 1.0
C      1  0.4770930000000  0.5324850000000  0.6010420000000 1.0
C      1  0.3974170000000  0.4885740000000  0.4650480000000 1.0
C      1  0.4877250000000  0.5997660000000  0.5361900000000 1.0
C      1  0.6074660000000  0.5160090000000  0.4599230000000 1.0
C      1  0.5088570000000  0.3991520000000  0.5394820000000 1.0
C      1  0.3962330000000  0.5348930000000  0.5420460000000 1.0
C      1  0.5332620000000  0.6003470000000  0.4579480000000 1.0
C      1  0.5977370000000  0.4677300000000  0.5292300000000 1.0
C      1  0.4635790000000  0.3964520000000  0.4614540000000 1.0
C      1  0.4951420000000  0.5273250000000  0.5184480000000 1.0
C      1  0.5292850000000  0.4987590000000  0.4835300000000 1.0
C      1  0.5044220000000  0.4705760000000  0.5196210000000 1.0
C      1  0.4712700000000  0.4957050000000  0.4845730000000 1.0
C      1  0.4547970000000  0.4216320000000  0.5547860000000 1.0
C      1  0.4270980000000  0.5494390000000  0.4393370000000 1.0
C      1  0.5512810000000  0.5788310000000  0.5614100000000 1.0
C      1  0.5780740000000  0.4492370000000  0.4446980000000 1.0
C      1  0.6034700000000  0.5426570000000  0.5000090000000 1.0
C      1  0.5364940000000  0.3963130000000  0.5005710000000 1.0
C      1  0.3869760000000  0.4526740000000  0.4959290000000 1.0
C      1  0.4578750000000  0.5967970000000  0.4998090000000 1.0
C      1  0.4599870000000  0.5673100000000  0.5681710000000 1.0
C      1  0.5721310000000  0.5391360000000  0.4318550000000 1.0
C      1  0.5406870000000  0.4347410000000  0.5646580000000 1.0
C      1  0.4352740000000  0.4622200000000  0.4382170000000 1.0
C      1  0.5713220000000  0.4298060000000  0.5177220000000 1.0
C      1  0.4269880000000  0.4259730000000  0.4816120000000 1.0
C      1  0.4277450000000  0.5620980000000  0.5196590000000 1.0
C      1  0.5599640000000  0.5677880000000  0.4816860000000 1.0
C      1  0.5845480000000  0.5519380000000  0.4786610000000 1.0
C      1  0.5505860000000  0.4113740000000  0.5218150000000 1.0
C      1  0.4049690000000  0.4432580000000  0.4739940000000 1.0
C      1  0.4451230000000  0.5850570000000  0.5241750000000 1.0
C      1  0.4460140000000  0.5287520000000  0.4025330000000 1.0
C      1  0.5300540000000  0.5503880000000  0.5946770000000 1.0
C      1  0.5524770000000  0.4667230000000  0.4062040000000 1.0
C      1  0.4725910000000  0.4392560000000  0.5977040000000 1.0
C      1  0.4602260000000  0.5234080000000  0.4663690000000 1.0
C      1  0.5225460000000  0.5456790000000  0.5345510000000 1.0
C      1  0.5405270000000  0.4742280000000  0.4657830000000 1.0
C      1  0.4841810000000  0.4618690000000  0.5409040000000 1.0
C      1  0.4213130000000  0.4808640000000  0.5819220000000 1.0
C      1  0.4912900000000  0.5809120000000  0.4175760000000 1.0
C      1  0.5839940000000  0.5166110000000  0.5809800000000 1.0
C      1  0.5144690000000  0.4214390000000  0.4127030000000 1.0
C      1  0.5442870000000  0.3968790000000  0.4708660000000 1.0
C      1  0.3956480000000  0.4491220000000  0.5250020000000 1.0
C      1  0.4572820000000  0.6026980000000  0.4698750000000 1.0
C      1  0.6079640000000  0.5578940000000  0.5282330000000 1.0
C      1  0.5521850000000  0.5144970000000  0.5249270000000 1.0
C      1  0.5054240000000  0.4487360000000  0.4994250000000 1.0
C      1  0.4471210000000  0.4915570000000  0.5014490000000 1.0
C      1  0.4892860000000  0.5475760000000  0.4977600000000 1.0
C      1  0.4656800000000  0.5819590000000  0.5438050000000 1.0
C      1  0.5844780000000  0.5330750000000  0.4572060000000 1.0
C      1  0.5333670000000  0.4149170000000  0.5441980000000 1.0
C      1  0.4118120000000  0.4649330000000  0.4557240000000 1.0
C      1  0.4942000000000  0.4331490000000  0.5796310000000 1.0
C      1  0.4358700000000  0.5089570000000  0.4215460000000 1.0
C      1  0.5088620000000  0.5658780000000  0.5804800000000 1.0
C      1  0.5660930000000  0.4892760000000  0.4210380000000 1.0
C      1  0.5082640000000  0.4003570000000  0.4317630000000 1.0
C      1  0.4058410000000  0.4879330000000  0.5577160000000 1.0
C      1  0.4994660000000  0.6004970000000  0.4385800000000 1.0
C      1  0.5986930000000  0.5121900000000  0.5543520000000 1.0
C      1  0.3981650000000  0.4967720000000  0.5113970000000 1.0
C      1  0.5021140000000  0.5938250000000  0.4890930000000 1.0
C      1  0.5850540000000  0.4982770000000  0.4997150000000 1.0
C      1  0.4939340000000  0.4050990000000  0.4919560000000 1.0
C      1  0.5082220000000  0.5272050000000  0.4452690000000 1.0
C      1  0.5367300000000  0.4864900000000  0.5565110000000 1.0
C      1  0.4883730000000  0.4635870000000  0.4466030000000 1.0
C      1  0.4655040000000  0.5077460000000  0.5564810000000 1.0
C      1  0.4834000000000  0.5335490000000  0.4049630000000 1.0
C      1  0.5256280000000  0.5211660000000  0.5939750000000 1.0
C      1  0.5227690000000  0.4738920000000  0.3990920000000 1.0
C      1  0.4679130000000  0.4776220000000  0.5959500000000 1.0
C      1  0.4400890000000  0.5320730000000  0.5234000000000 1.0
C      1  0.5311560000000  0.5537520000000  0.4769030000000 1.0
C      1  0.5563590000000  0.4653530000000  0.5142790000000 1.0
C      1  0.4620050000000  0.4422870000000  0.4847510000000 1.0
C      1  0.5725830000000  0.4356910000000  0.4702490000000 1.0
C      1  0.4360760000000  0.4252690000000  0.5315270000000 1.0
C      1  0.4264890000000  0.5669160000000  0.4624280000000 1.0
C      1  0.5659720000000  0.5769730000000  0.5356560000000 1.0
C      1  0.4083090000000  0.4254520000000  0.5337500000000 1.0
C      1  0.4354920000000  0.5925970000000  0.4563270000000 1.0
C      1  0.5939620000000  0.5818220000000  0.5327480000000 1.0
C      1  0.5695050000000  0.4078590000000  0.4674870000000 1.0
C      1  0.5881990000000  0.5387490000000  0.5414610000000 1.0
C      1  0.5238270000000  0.4174030000000  0.4622320000000 1.0
C      1  0.4099940000000  0.4750280000000  0.5308660000000 1.0
C      1  0.4852060000000  0.5961140000000  0.4636890000000 1.0
C      1  0.4689260000000  0.5253550000000  0.5331420000000 1.0
C      1  0.5285360000000  0.5241970000000  0.4678640000000 1.0
C      1  0.5314310000000  0.4702480000000  0.5318260000000 1.0
C      1  0.4720670000000  0.4686420000000  0.4712960000000 1.0
C      1  0.4135520000000  0.5589830000000  0.5461020000000 1.0
C      1  0.5594040000000  0.5839400000000  0.4553670000000 1.0
C      1  0.5843880000000  0.4430160000000  0.5392140000000 1.0
C      1  0.4412470000000  0.4158970000000  0.4574890000000 1.0
C      1  0.4984920000000  0.5126700000000  0.5999670000000 1.0
C      1  0.5168140000000  0.5028390000000  0.4000890000000 1.0
C      1  0.4908780000000  0.4911290000000  0.5817800000000 1.0
C      1  0.4958700000000  0.5100520000000  0.4198490000000 1.0
C      1  0.4874240000000  0.4122550000000  0.4491370000000 1.0
C      1  0.4168860000000  0.5145980000000  0.5498170000000 1.0
C      1  0.5183040000000  0.5693360000000  0.4530610000000 1.0
C      1  0.5838140000000  0.4894880000000  0.5432500000000 1.0
C      1  0.5699140000000  0.4923450000000  0.5903370000000 1.0
C      1  0.4891480000000  0.4356630000000  0.4068600000000 1.0
C      1  0.4306080000000  0.5068260000000  0.5944460000000 1.0
C      1  0.5146160000000  0.5686440000000  0.4046830000000 1.0
C      1  0.5669810000000  0.4487910000000  0.5630540000000 1.0
C      1  0.4480190000000  0.4361430000000  0.4370630000000 1.0
C      1  0.4344200000000  0.5523010000000  0.5682510000000 1.0
C      1  0.5568540000000  0.5644240000000  0.4315480000000 1.0
C      1  0.5282010000000  0.5556170000000  0.4277160000000 1.0
C      1  0.5652680000000  0.4786250000000  0.5641370000000 1.0
C      1  0.4774810000000  0.4367060000000  0.4346790000000 1.0
C      1  0.4383750000000  0.5215850000000  0.5693390000000 1.0
C      1  0.5627180000000  0.5341850000000  0.5673840000000 1.0
C      1  0.5310280000000  0.4416990000000  0.4282290000000 1.0
C      1  0.4473710000000  0.4675870000000  0.5746620000000 1.0
C      1  0.4752880000000  0.5557690000000  0.4258540000000 1.0
C      1  0.4820190000000  0.5541570000000  0.5819250000000 1.0
C      1  0.5585330000000  0.5173730000000  0.4173920000000 1.0
C      1  0.5202760000000  0.4467330000000  0.5827430000000 1.0
C      1  0.4487570000000  0.4827670000000  0.4217570000000 1.0
C      1  0.5693200000000  0.5359110000000  0.5172360000000 1.0
C      1  0.5286080000000  0.4332350000000  0.4901940000000 1.0
C      1  0.4403450000000  0.4727220000000  0.5230020000000 1.0
C      1  0.4672890000000  0.5623500000000  0.4844720000000 1.0
C      1  0.5436370000000  0.4991460000000  0.6013920000000 1.0
C      1  0.4936480000000  0.4644060000000  0.4005790000000 1.0
C      1  0.4559690000000  0.5031040000000  0.6079900000000 1.0
C      1  0.5074260000000  0.5449390000000  0.3901460000000 1.0
C      1  0.5552480000000  0.4952590000000  0.5039160000000 1.0
C      1  0.4842780000000  0.4309180000000  0.4999710000000 1.0
C      1  0.4281020000000  0.5129510000000  0.5026730000000 1.0
C      1  0.5113790000000  0.5646750000000  0.4964550000000 1.0
C      1  0.5161270000000  0.5973670000000  0.5388980000000 1.0
C      1  0.6045080000000  0.4875600000000  0.4541700000000 1.0
C      1  0.4794810000000  0.3941250000000  0.5435230000000 1.0
C      1  0.4071090000000  0.5160750000000  0.4644630000000 1.0
C      1  0.5190840000000  0.4596280000000  0.4497420000000 1.0
C      1  0.4593800000000  0.4774830000000  0.5475660000000 1.0
C      1  0.4827030000000  0.5434020000000  0.4541510000000 1.0
C      1  0.5384700000000  0.5205030000000  0.5513700000000 1.0
C      1  0.4322680000000  0.5220960000000  0.4485070000000 1.0
C      1  0.5229660000000  0.5725390000000  0.5541250000000 1.0
C      1  0.5748580000000  0.4789040000000  0.4475780000000 1.0
C      1  0.4844030000000  0.4324770000000  0.5509960000000 1.0
C      1  0.6169480000000  0.4761380000000  0.4785830000000 1.0
C      1  0.4708910000000  0.3790510000000  0.5192850000000 1.0
C      1  0.3992780000000  0.5339800000000  0.4868720000000 1.0
C      1  0.5324200000000  0.6089430000000  0.5178750000000 1.0
C      1  0.5279260000000  0.6096320000000  0.4887600000000 1.0
C      1  0.5975830000000  0.4720350000000  0.4997780000000 1.0
C      1  0.4689980000000  0.3899740000000  0.4915680000000 1.0
C      1  0.3873280000000  0.5264100000000  0.5135920000000 1.0
C      1  0.4439400000000  0.4448910000000  0.5110370000000 1.0
C      1  0.4396670000000  0.5505660000000  0.4848090000000 1.0
C      1  0.5499190000000  0.5591970000000  0.5167870000000 1.0
C      1  0.5508950000000  0.4522260000000  0.4851040000000 1.0
C      1  0.4994090000000  0.4986350000000  0.5023680000000 1.0
END
