TITL C-3578202-4305-213 -4.45533201670248e-07 125000 -376.106284250554 0 0 63 (C1) n - 1
REM
REM in /home/bkarasulu/work/CARBON/AIRSS/Generating-Clusters/EDIP-Nigel-Params/with-SteepDescent/Higher-Symm/SD-CG/HFTN-CG
REM
REM
REM
REM
REM
REM ./C.cell (12c818d87b63d06a65506943cc24bca4)
REM
REM compiler GCC version 9.2.1 20190827 (Red Hat 9.2.1-1)
REM options -cpp -mtune=generic -march=x86-64 -g -O0 -fpre-include=/usr/include/finclude/math-vector-fortran.h
REM seed -1631589320 69676126 1407657703 -1569618063 1263072665 56759145 642077822 -424723765 -148975234 1997817146 1235343305 588904228 1544726995 -1145935445 721388138 1068614502 1142668578 -1232401000 -325012546 657795446 122626414 1546991360 -82894756 411346153 -1103536891 177139708 2005751112 1779475014 241685275 437242566 -1328874969 -75607388 453408073
REM
CELL 1.54180   50.00000   50.00000   50.00000   90.00000   90.00000   90.00000
LATT -1
SFAC C  
C      1  0.4911320000000  0.5584130000000  0.4491790000000 1.0
C      1  0.5100510000000  0.5626840000000  0.5443160000000 1.0
C      1  0.5151470000000  0.4438380000000  0.4417560000000 1.0
C      1  0.4841520000000  0.4454290000000  0.5560550000000 1.0
C      1  0.4536100000000  0.5579240000000  0.4908730000000 1.0
C      1  0.5528930000000  0.5588800000000  0.5078090000000 1.0
C      1  0.4486220000000  0.4426810000000  0.5117460000000 1.0
C      1  0.5530950000000  0.4465680000000  0.4883770000000 1.0
C      1  0.4718170000000  0.4846860000000  0.5045890000000 1.0
C      1  0.5292310000000  0.4897830000000  0.4937400000000 1.0
C      1  0.5243880000000  0.5215440000000  0.4962330000000 1.0
C      1  0.4756820000000  0.5144490000000  0.4953760000000 1.0
C      1  0.5016900000000  0.4819040000000  0.4643720000000 1.0
C      1  0.4975540000000  0.4864570000000  0.5340920000000 1.0
C      1  0.4998470000000  0.5182790000000  0.5368780000000 1.0
C      1  0.5025010000000  0.5125160000000  0.4682220000000 1.0
C      1  0.4737620000000  0.4707090000000  0.5470390000000 1.0
C      1  0.5257880000000  0.4688840000000  0.4515280000000 1.0
C      1  0.5238480000000  0.5370290000000  0.5437930000000 1.0
C      1  0.4805650000000  0.5324290000000  0.4555780000000 1.0
C      1  0.5456480000000  0.4708880000000  0.4749280000000 1.0
C      1  0.4533040000000  0.4685390000000  0.5236190000000 1.0
C      1  0.5425800000000  0.5342200000000  0.5186310000000 1.0
C      1  0.4580520000000  0.5325970000000  0.4773630000000 1.0
C      1  0.5109630000000  0.4486380000000  0.5568910000000 1.0
C      1  0.4883050000000  0.4487760000000  0.4396290000000 1.0
C      1  0.4833360000000  0.5627870000000  0.5352690000000 1.0
C      1  0.5180460000000  0.5563060000000  0.4551690000000 1.0
C      1  0.5427160000000  0.4478230000000  0.5140470000000 1.0
C      1  0.4588050000000  0.4459650000000  0.4860570000000 1.0
C      1  0.5458120000000  0.5567690000000  0.4807860000000 1.0
C      1  0.4620190000000  0.5517950000000  0.5172190000000 1.0
C      1  0.5687510000000  0.5082340000000  0.4719840000000 1.0
C      1  0.4328990000000  0.5072730000000  0.5282100000000 1.0
C      1  0.4385200000000  0.4927320000000  0.4766840000000 1.0
C      1  0.5602440000000  0.4941190000000  0.5247120000000 1.0
C      1  0.4736130000000  0.5065820000000  0.5730290000000 1.0
C      1  0.5263580000000  0.5083460000000  0.4314570000000 1.0
C      1  0.4743950000000  0.4952360000000  0.4324410000000 1.0
C      1  0.5241910000000  0.4935840000000  0.5684430000000 1.0
C      1  0.5619790000000  0.5143520000000  0.5450010000000 1.0
C      1  0.4338460000000  0.5120190000000  0.4559430000000 1.0
C      1  0.4327740000000  0.4880210000000  0.5496790000000 1.0
C      1  0.5683090000000  0.4888350000000  0.4501650000000 1.0
C      1  0.5439340000000  0.5143590000000  0.5672590000000 1.0
C      1  0.4534300000000  0.5149160000000  0.4351950000000 1.0
C      1  0.5484510000000  0.4900620000000  0.4290860000000 1.0
C      1  0.4509300000000  0.4890210000000  0.5717950000000 1.0
C      1  0.5501310000000  0.4679070000000  0.5337370000000 1.0
C      1  0.4524840000000  0.4680660000000  0.4684770000000 1.0
C      1  0.4536400000000  0.5276060000000  0.5313280000000 1.0
C      1  0.5541510000000  0.5330670000000  0.4655990000000 1.0
C      1  0.5308050000000  0.4682810000000  0.5559670000000 1.0
C      1  0.4678480000000  0.4683080000000  0.4429560000000 1.0
C      1  0.5336130000000  0.5333720000000  0.4451700000000 1.0
C      1  0.4754100000000  0.5283260000000  0.5521790000000 1.0
C      1  0.4990650000000  0.4971440000000  0.5805270000000 1.0
C      1  0.5001320000000  0.5021610000000  0.4228300000000 1.0
C      1  0.5708440000000  0.4989360000000  0.4988710000000 1.0
C      1  0.4278740000000  0.4976370000000  0.5022570000000 1.0
C      1  0.4980380000000  0.5271520000000  0.5091700000000 1.0
C      1  0.4915420000000  0.4662410000000  0.4892240000000 1.0
C      1  0.5126360000000  0.4710740000000  0.5109180000000 1.0
END
