TITL C-3578209-2550-173 2.81159201415785e-06 125000 -677.540180823852 0 0 111 (C1) n - 1
REM
REM in /home/bkarasulu/work/CARBON/AIRSS/Generating-Clusters/EDIP-Nigel-Params/with-SteepDescent/Higher-Symm/SD-CG/HFTN-CG
REM
REM
REM
REM
REM
REM ./C.cell (12c818d87b63d06a65506943cc24bca4)
REM
REM compiler GCC version 9.2.1 20190827 (Red Hat 9.2.1-1)
REM options -cpp -mtune=generic -march=x86-64 -g -O0 -fpre-include=/usr/include/finclude/math-vector-fortran.h
REM seed 350740892 1831737815 2022838668 -283703776 995403569 -1999376816 1513591936 -626978017 -195830054 -1066957536 886709331 -2117220937 -2058980007 401687436 -1452032432 637293495 -140983582 -1807935178 -1427061728 221324859 1145102837 -2077231273 -544814486 -1952181593 210671535 1883886823 -787847805 1951738537 -481574707 -715727773 -791497864 114568066 55450123
REM
CELL 1.54180   50.00000   50.00000   50.00000   90.00000   90.00000   90.00000
LATT -1
SFAC C  
C      1  0.5017030000000  0.5879670000000  0.4465620000000 1.0
C      1  0.5024340000000  0.4107110000000  0.5545650000000 1.0
C      1  0.5020690000000  0.5889900000000  0.5565850000000 1.0
C      1  0.5012410000000  0.4085610000000  0.4442230000000 1.0
C      1  0.4608050000000  0.5247260000000  0.5162230000000 1.0
C      1  0.4612300000000  0.4753310000000  0.4836580000000 1.0
C      1  0.4601220000000  0.5249210000000  0.4874090000000 1.0
C      1  0.4599720000000  0.4749410000000  0.5124850000000 1.0
C      1  0.4943420000000  0.5919690000000  0.5280360000000 1.0
C      1  0.4935580000000  0.4087160000000  0.4732070000000 1.0
C      1  0.4935910000000  0.5878770000000  0.4758060000000 1.0
C      1  0.4947010000000  0.4111760000000  0.5251800000000 1.0
C      1  0.4854250000000  0.4814570000000  0.5263290000000 1.0
C      1  0.4854270000000  0.5192250000000  0.4732920000000 1.0
C      1  0.4864420000000  0.4850870000000  0.4691810000000 1.0
C      1  0.4859870000000  0.5147260000000  0.5309150000000 1.0
C      1  0.5277140000000  0.5459750000000  0.5583810000000 1.0
C      1  0.5246640000000  0.4530590000000  0.4426930000000 1.0
C      1  0.5207870000000  0.5423530000000  0.4468770000000 1.0
C      1  0.5202730000000  0.4573180000000  0.5530080000000 1.0
C      1  0.5451770000000  0.4585900000000  0.4233820000000 1.0
C      1  0.5502550000000  0.5414600000000  0.5756310000000 1.0
C      1  0.5333920000000  0.4695260000000  0.5760850000000 1.0
C      1  0.5354200000000  0.5313740000000  0.4239380000000 1.0
C      1  0.5847140000000  0.5139460000000  0.5145030000000 1.0
C      1  0.5827790000000  0.4816460000000  0.4843780000000 1.0
C      1  0.5842280000000  0.5121060000000  0.4833030000000 1.0
C      1  0.5826640000000  0.4833120000000  0.5170420000000 1.0
C      1  0.4892540000000  0.4384970000000  0.4070960000000 1.0
C      1  0.4898360000000  0.5571740000000  0.5922880000000 1.0
C      1  0.4907260000000  0.4401290000000  0.5910140000000 1.0
C      1  0.4916080000000  0.5569670000000  0.4110220000000 1.0
C      1  0.4702880000000  0.5773810000000  0.5178350000000 1.0
C      1  0.4716720000000  0.4252800000000  0.4845990000000 1.0
C      1  0.4681980000000  0.5790050000000  0.4873900000000 1.0
C      1  0.4702700000000  0.4240920000000  0.5152490000000 1.0
C      1  0.4360080000000  0.4651670000000  0.5282250000000 1.0
C      1  0.4362590000000  0.5328970000000  0.4711280000000 1.0
C      1  0.4369320000000  0.4666590000000  0.4689380000000 1.0
C      1  0.4354800000000  0.5325470000000  0.5298760000000 1.0
C      1  0.5402990000000  0.4233350000000  0.4718670000000 1.0
C      1  0.5408550000000  0.5760100000000  0.5282630000000 1.0
C      1  0.5400750000000  0.4252470000000  0.5274510000000 1.0
C      1  0.5396550000000  0.5747760000000  0.4727890000000 1.0
C      1  0.4806800000000  0.4235490000000  0.5705180000000 1.0
C      1  0.4808460000000  0.5757230000000  0.4295020000000 1.0
C      1  0.4800040000000  0.4227780000000  0.4285980000000 1.0
C      1  0.4808670000000  0.5741520000000  0.5711140000000 1.0
C      1  0.5188410000000  0.5867850000000  0.5131000000000 1.0
C      1  0.5185790000000  0.4128670000000  0.4874830000000 1.0
C      1  0.5145840000000  0.5727230000000  0.4885660000000 1.0
C      1  0.5149050000000  0.4273200000000  0.5118860000000 1.0
C      1  0.4637920000000  0.5656090000000  0.4521400000000 1.0
C      1  0.4699390000000  0.4400930000000  0.5475910000000 1.0
C      1  0.4690730000000  0.5606050000000  0.5470380000000 1.0
C      1  0.4718780000000  0.4408260000000  0.4513060000000 1.0
C      1  0.5275300000000  0.4278270000000  0.5543060000000 1.0
C      1  0.5272850000000  0.5719250000000  0.4461250000000 1.0
C      1  0.5280680000000  0.4239000000000  0.4450330000000 1.0
C      1  0.5294700000000  0.5749880000000  0.5553580000000 1.0
C      1  0.5804590000000  0.5346760000000  0.5352550000000 1.0
C      1  0.5790450000000  0.4634350000000  0.4613630000000 1.0
C      1  0.5760230000000  0.5306580000000  0.4612680000000 1.0
C      1  0.5756550000000  0.4673870000000  0.5414090000000 1.0
C      1  0.4973000000000  0.5354900000000  0.5579460000000 1.0
C      1  0.4935190000000  0.4633490000000  0.4444830000000 1.0
C      1  0.4885500000000  0.5364270000000  0.4481920000000 1.0
C      1  0.4888270000000  0.4640640000000  0.5508920000000 1.0
C      1  0.5375330000000  0.4771600000000  0.4776830000000 1.0
C      1  0.5372820000000  0.5227340000000  0.5219760000000 1.0
C      1  0.5357480000000  0.4731760000000  0.5240230000000 1.0
C      1  0.5351760000000  0.5267360000000  0.4759910000000 1.0
C      1  0.4715170000000  0.4837920000000  0.4126770000000 1.0
C      1  0.4704590000000  0.5132590000000  0.5850910000000 1.0
C      1  0.4715600000000  0.4844100000000  0.5854430000000 1.0
C      1  0.4747160000000  0.5125090000000  0.4145630000000 1.0
C      1  0.5526290000000  0.5499960000000  0.5156550000000 1.0
C      1  0.5524050000000  0.4494540000000  0.4841000000000 1.0
C      1  0.5536480000000  0.5508180000000  0.4842490000000 1.0
C      1  0.5541780000000  0.4491170000000  0.5157860000000 1.0
C      1  0.4194930000000  0.5098250000000  0.5357150000000 1.0
C      1  0.4184210000000  0.4871420000000  0.4649450000000 1.0
C      1  0.4144860000000  0.5140890000000  0.4693420000000 1.0
C      1  0.4141540000000  0.4836350000000  0.5307540000000 1.0
C      1  0.5588140000000  0.5205850000000  0.4390000000000 1.0
C      1  0.5578540000000  0.4790430000000  0.5620960000000 1.0
C      1  0.5668720000000  0.5253160000000  0.5595210000000 1.0
C      1  0.5637470000000  0.4735470000000  0.4384940000000 1.0
C      1  0.4207290000000  0.5504350000000  0.5130820000000 1.0
C      1  0.4205980000000  0.4505690000000  0.4848580000000 1.0
C      1  0.4176210000000  0.5491210000000  0.4859060000000 1.0
C      1  0.4176940000000  0.4496370000000  0.5123380000000 1.0
C      1  0.5089160000000  0.5259760000000  0.5162610000000 1.0
C      1  0.5094220000000  0.4747870000000  0.4841180000000 1.0
C      1  0.5078230000000  0.5342170000000  0.4887560000000 1.0
C      1  0.5081900000000  0.4658750000000  0.5111560000000 1.0
C      1  0.4966610000000  0.4680120000000  0.5890780000000 1.0
C      1  0.4990480000000  0.5293280000000  0.4103340000000 1.0
C      1  0.4928280000000  0.4661940000000  0.4062930000000 1.0
C      1  0.4913900000000  0.5292620000000  0.5951620000000 1.0
C      1  0.4495320000000  0.4711270000000  0.5746990000000 1.0
C      1  0.4533230000000  0.5266270000000  0.4254330000000 1.0
C      1  0.4488110000000  0.4714570000000  0.4230110000000 1.0
C      1  0.4486280000000  0.5272540000000  0.5750470000000 1.0
C      1  0.4441600000000  0.4529900000000  0.5542230000000 1.0
C      1  0.4448320000000  0.5443560000000  0.4452230000000 1.0
C      1  0.4457290000000  0.4536390000000  0.4441690000000 1.0
C      1  0.4445500000000  0.5455450000000  0.5544020000000 1.0
C      1  0.5476450000000  0.4957240000000  0.4469930000000 1.0
C      1  0.5489840000000  0.5040170000000  0.5525650000000 1.0
C      1  0.5458830000000  0.4995290000000  0.5001610000000 1.0
END
