TITL C-3578204-4308-635 -5.72792340477522e-07 125000 -481.011092232622 0 0 79 (C1) n - 1
REM
REM in /home/bkarasulu/work/CARBON/AIRSS/Generating-Clusters/EDIP-Nigel-Params/with-SteepDescent/Higher-Symm/SD-CG/HFTN-CG
REM
REM
REM
REM
REM
REM ./C.cell (12c818d87b63d06a65506943cc24bca4)
REM
REM compiler GCC version 9.2.1 20190827 (Red Hat 9.2.1-1)
REM options -cpp -mtune=generic -march=x86-64 -g -O0 -fpre-include=/usr/include/finclude/math-vector-fortran.h
REM seed 1733092705 -530376941 -1460999884 -514699094 1477816230 -1692233084 1511245708 -1479920405 1278068913 626294806 -265039353 -337027534 -2051608747 -1175224306 1514471877 -485236982 -1849186035 1637011489 -247293738 -1238990004 1341313144 -2106459184 -2009273263 -344886724 1735855739 -488951486 -870190344 1780307548 1547670941 -879481595 1490608640 -1453938823 -1612523480
REM
CELL 1.54180   50.00000   50.00000   50.00000   90.00000   90.00000   90.00000
LATT -1
SFAC C  
C      1  0.5609680000000  0.4737110000000  0.4780400000000 1.0
C      1  0.5425240000000  0.5482550000000  0.4777900000000 1.0
C      1  0.4644610000000  0.5540120000000  0.4748680000000 1.0
C      1  0.4343020000000  0.4839170000000  0.4775200000000 1.0
C      1  0.4936940000000  0.4319630000000  0.4762930000000 1.0
C      1  0.5613930000000  0.4772110000000  0.5280350000000 1.0
C      1  0.5431170000000  0.5495250000000  0.5273000000000 1.0
C      1  0.4668190000000  0.5560820000000  0.5253400000000 1.0
C      1  0.4355140000000  0.4843730000000  0.5275160000000 1.0
C      1  0.4940970000000  0.4333420000000  0.5249040000000 1.0
C      1  0.5621860000000  0.5478890000000  0.5494340000000 1.0
C      1  0.4741750000000  0.5718400000000  0.5487740000000 1.0
C      1  0.4226250000000  0.4988910000000  0.5493440000000 1.0
C      1  0.4772120000000  0.4245510000000  0.5470930000000 1.0
C      1  0.5638590000000  0.4550530000000  0.5465830000000 1.0
C      1  0.5602960000000  0.5449480000000  0.4549050000000 1.0
C      1  0.4744860000000  0.5730440000000  0.4555530000000 1.0
C      1  0.4207600000000  0.4966740000000  0.4549340000000 1.0
C      1  0.4760960000000  0.4261630000000  0.4537640000000 1.0
C      1  0.5641890000000  0.4509900000000  0.4605110000000 1.0
C      1  0.5404200000000  0.4273860000000  0.5129240000000 1.0
C      1  0.5857360000000  0.5170660000000  0.5228350000000 1.0
C      1  0.5090290000000  0.5827730000000  0.5215840000000 1.0
C      1  0.4230240000000  0.5365220000000  0.5213760000000 1.0
C      1  0.4399670000000  0.4370280000000  0.5213460000000 1.0
C      1  0.5379820000000  0.4133260000000  0.4765840000000 1.0
C      1  0.5845840000000  0.5153040000000  0.4826680000000 1.0
C      1  0.5135700000000  0.5865320000000  0.4783150000000 1.0
C      1  0.4214260000000  0.5350690000000  0.4815650000000 1.0
C      1  0.4381480000000  0.4359330000000  0.4817310000000 1.0
C      1  0.5870190000000  0.4859480000000  0.4880740000000 1.0
C      1  0.5397370000000  0.5772060000000  0.4868410000000 1.0
C      1  0.4374440000000  0.5597790000000  0.4865100000000 1.0
C      1  0.4202250000000  0.4591400000000  0.4883430000000 1.0
C      1  0.5107710000000  0.4085800000000  0.4855840000000 1.0
C      1  0.5874280000000  0.4877710000000  0.5171710000000 1.0
C      1  0.5381900000000  0.5774890000000  0.5162280000000 1.0
C      1  0.4387490000000  0.5611640000000  0.5154340000000 1.0
C      1  0.4207820000000  0.4597390000000  0.5175140000000 1.0
C      1  0.5136810000000  0.4130290000000  0.5139560000000 1.0
C      1  0.4545210000000  0.4436280000000  0.4593980000000 1.0
C      1  0.5396040000000  0.4378100000000  0.4621720000000 1.0
C      1  0.5689900000000  0.5184700000000  0.4584240000000 1.0
C      1  0.5022610000000  0.5695890000000  0.4589090000000 1.0
C      1  0.4304680000000  0.5229850000000  0.4569020000000 1.0
C      1  0.4557900000000  0.4429310000000  0.5448360000000 1.0
C      1  0.5409400000000  0.4398050000000  0.5400190000000 1.0
C      1  0.5702560000000  0.5209130000000  0.5472970000000 1.0
C      1  0.5023470000000  0.5705430000000  0.5473070000000 1.0
C      1  0.4333810000000  0.5246810000000  0.5456670000000 1.0
C      1  0.5144590000000  0.4518760000000  0.4663280000000 1.0
C      1  0.5494510000000  0.4974120000000  0.4624090000000 1.0
C      1  0.5134780000000  0.5427140000000  0.4662180000000 1.0
C      1  0.4590420000000  0.5286310000000  0.4589890000000 1.0
C      1  0.4594180000000  0.4714550000000  0.4656070000000 1.0
C      1  0.5143160000000  0.4525430000000  0.5385860000000 1.0
C      1  0.5496360000000  0.5007380000000  0.5426860000000 1.0
C      1  0.5152800000000  0.5435390000000  0.5409640000000 1.0
C      1  0.4627740000000  0.5272040000000  0.5386600000000 1.0
C      1  0.4606890000000  0.4714720000000  0.5400510000000 1.0
C      1  0.4794500000000  0.5145500000000  0.5627540000000 1.0
C      1  0.4797260000000  0.4847250000000  0.5578490000000 1.0
C      1  0.5073130000000  0.4769120000000  0.5536930000000 1.0
C      1  0.5259250000000  0.4985470000000  0.5591030000000 1.0
C      1  0.5103930000000  0.5233750000000  0.5644070000000 1.0
C      1  0.4784040000000  0.5149350000000  0.4404340000000 1.0
C      1  0.4793940000000  0.4851420000000  0.4487950000000 1.0
C      1  0.5069930000000  0.4756750000000  0.4512020000000 1.0
C      1  0.5251750000000  0.4975200000000  0.4468950000000 1.0
C      1  0.5098960000000  0.5231100000000  0.4421140000000 1.0
C      1  0.4901080000000  0.5665700000000  0.5011970000000 1.0
C      1  0.5449430000000  0.4649960000000  0.5039350000000 1.0
C      1  0.4722110000000  0.4398290000000  0.5000770000000 1.0
C      1  0.5559220000000  0.5317980000000  0.5028100000000 1.0
C      1  0.4359160000000  0.5053960000000  0.5020850000000 1.0
C      1  0.5033210000000  0.4992590000000  0.5020480000000 1.0
C      1  0.5195020000000  0.4771810000000  0.5022450000000 1.0
C      1  0.4974700000000  0.5115840000000  0.5280900000000 1.0
C      1  0.4947110000000  0.5100790000000  0.4761230000000 1.0
END
