TITL C-3578200-9634-332 -7.6299277057142e-07 125000 -187.309306656011 0 0 32 (C3i) n - 1
REM
REM in /home/bkarasulu/work/CARBON/AIRSS/Generating-Clusters/EDIP-Nigel-Params/with-SteepDescent/Higher-Symm/SD-CG/HFTN-CG
REM
REM
REM
REM
REM
REM ./C.cell (12c818d87b63d06a65506943cc24bca4)
REM
REM compiler GCC version 9.2.1 20190827 (Red Hat 9.2.1-1)
REM options -cpp -mtune=generic -march=x86-64 -g -O0 -fpre-include=/usr/include/finclude/math-vector-fortran.h
REM seed 1454128336 1930734608 1435170194 -2049075266 -344492707 725156047 1952085623 1580604226 502963725 89084803 -1109466594 -159679458 -717923845 671041428 -1995780384 -1347457637 -1851302389 -625824183 -626019627 -986583465 -1733505753 -1736748058 1167160267 -1171683184 -1862257905 1279057738 133180238 -998331988 -83247871 -123076248 -419303220 458602954 1272078319
REM
CELL 1.54180   50.00000   50.00000   50.00000   90.00000   90.00000   90.00000
LATT -1
SFAC C  
C      1  0.4732610000000  0.5209620000000  0.4799530000000 1.0
C      1  0.5267550000000  0.5276030000000  0.5074690000000 1.0
C      1  0.4732610000000  0.5071190000000  0.5270040000000 1.0
C      1  0.5267390000000  0.4799340000000  0.5190060000000 1.0
C      1  0.4732450000000  0.4732930000000  0.4914900000000 1.0
C      1  0.5267390000000  0.4937770000000  0.4719550000000 1.0
C      1  0.5440170000000  0.4945330000000  0.5393510000000 1.0
C      1  0.4559720000000  0.4629810000000  0.5143140000000 1.0
C      1  0.5440010000000  0.4688470000000  0.4744280000000 1.0
C      1  0.4559830000000  0.5063630000000  0.4596080000000 1.0
C      1  0.5440280000000  0.5379150000000  0.4846450000000 1.0
C      1  0.4559990000000  0.5320480000000  0.5245300000000 1.0
C      1  0.4536450000000  0.5373560000000  0.4954620000000 1.0
C      1  0.5463790000000  0.5223600000000  0.5294120000000 1.0
C      1  0.4536300000000  0.4855030000000  0.5334440000000 1.0
C      1  0.5463550000000  0.4635400000000  0.5034970000000 1.0
C      1  0.4536210000000  0.4785360000000  0.4695470000000 1.0
C      1  0.5463700000000  0.5153930000000  0.4655150000000 1.0
C      1  0.5718340000000  0.4858050000000  0.5357080000000 1.0
C      1  0.4281500000000  0.4617850000000  0.5049470000000 1.0
C      1  0.5718240000000  0.4763490000000  0.4686950000000 1.0
C      1  0.4281660000000  0.5150910000000  0.4632510000000 1.0
C      1  0.5718500000000  0.5391110000000  0.4940120000000 1.0
C      1  0.4281760000000  0.5245470000000  0.5302630000000 1.0
C      1  0.4274360000000  0.5230850000000  0.4916270000000 1.0
C      1  0.5725800000000  0.5185330000000  0.5151230000000 1.0
C      1  0.4274290000000  0.4959760000000  0.5229980000000 1.0
C      1  0.5725640000000  0.4778110000000  0.5073320000000 1.0
C      1  0.4274200000000  0.4823620000000  0.4838360000000 1.0
C      1  0.5725710000000  0.5049200000000  0.4759610000000 1.0
C      1  0.4844350000000  0.5004540000000  0.4994810000000 1.0
C      1  0.5155650000000  0.5004420000000  0.4994780000000 1.0
END
