TITL C-3577084-3642-12 -1.58902715781084e-07 125000 -169.499932166901 0 0 29 (C1) n - 1
REM
REM in /home/bkarasulu/work/CARBON/AIRSS/Generating-Clusters/EDIP-Nigel-Params/with-SteepDescent/Higher-Symm/SD-CG/HFTN-CG
REM
REM
REM
REM
REM
REM ./C.cell (12c818d87b63d06a65506943cc24bca4)
REM
REM compiler GCC version 9.2.1 20190827 (Red Hat 9.2.1-1)
REM options -cpp -mtune=generic -march=x86-64 -g -O0 -fpre-include=/usr/include/finclude/math-vector-fortran.h
REM seed 1486654037 1119080337 1423969191 -979654922 296845381 -1678622490 -151049894 1074959866 -1596040673 -1688284224 -1839852733 -460983097 337313835 645826627 -290456193 -800551452 -631494668 -929865132 1457273820 2038982750 1292611664 884336050 942034396 -1788993536 1415902723 -1762755804 -1514906404 -1860750933 -992747112 115801094 1735188762 -1817099266 441590505
REM
CELL 1.54180   50.00000   50.00000   50.00000   90.00000   90.00000   90.00000
LATT -1
SFAC C  
C      1  0.4613510000000  0.4916800000000  0.4669740000000 1.0
C      1  0.5066850000000  0.4928760000000  0.4581690000000 1.0
C      1  0.5344300000000  0.5184260000000  0.4815890000000 1.0
C      1  0.4864330000000  0.4661910000000  0.5287680000000 1.0
C      1  0.5174780000000  0.5517550000000  0.5203870000000 1.0
C      1  0.5335050000000  0.5278480000000  0.5288110000000 1.0
C      1  0.4928350000000  0.5476950000000  0.4764680000000 1.0
C      1  0.4925270000000  0.5152050000000  0.5522040000000 1.0
C      1  0.5335820000000  0.4990370000000  0.4617080000000 1.0
C      1  0.4908410000000  0.4528420000000  0.4767770000000 1.0
C      1  0.4567770000000  0.5155650000000  0.5216740000000 1.0
C      1  0.4664540000000  0.5397640000000  0.4730350000000 1.0
C      1  0.5288500000000  0.4824780000000  0.5455600000000 1.0
C      1  0.5308880000000  0.4534400000000  0.5082860000000 1.0
C      1  0.4839580000000  0.5120040000000  0.5256120000000 1.0
C      1  0.5240140000000  0.4395930000000  0.5324340000000 1.0
C      1  0.5149290000000  0.4457660000000  0.4868310000000 1.0
C      1  0.5076700000000  0.5267770000000  0.4927780000000 1.0
C      1  0.5279910000000  0.4835300000000  0.5146440000000 1.0
C      1  0.4378340000000  0.5150450000000  0.5028360000000 1.0
C      1  0.4666070000000  0.4943660000000  0.4392060000000 1.0
C      1  0.4502890000000  0.5171360000000  0.4777620000000 1.0
C      1  0.4882530000000  0.4816480000000  0.4791910000000 1.0
C      1  0.5204960000000  0.5111830000000  0.5509440000000 1.0
C      1  0.5030730000000  0.5644450000000  0.4985560000000 1.0
C      1  0.4931540000000  0.4979040000000  0.4342120000000 1.0
C      1  0.5447280000000  0.5086700000000  0.5072790000000 1.0
C      1  0.4961310000000  0.4879330000000  0.5112280000000 1.0
C      1  0.5082380000000  0.4591990000000  0.5460770000000 1.0
END
