TITL C-3577078-809-229 -4.7518916087078e-07 125000 -319.5143517422 0 0 53 (C1) n - 1
REM
REM in /home/bkarasulu/work/CARBON/AIRSS/Generating-Clusters/EDIP-Nigel-Params/with-SteepDescent/Higher-Symm/SD-CG/HFTN-CG
REM
REM
REM
REM
REM
REM ./C.cell (12c818d87b63d06a65506943cc24bca4)
REM
REM compiler GCC version 9.2.1 20190827 (Red Hat 9.2.1-1)
REM options -cpp -mtune=generic -march=x86-64 -g -O0 -fpre-include=/usr/include/finclude/math-vector-fortran.h
REM seed -2062206006 -770863119 -1840261695 462189774 1285900324 -348223787 520756600 1673858897 -211299076 1682898029 1003398946 -1767332926 -1421741352 -790278073 -1119651229 961557576 1632946246 -2033657001 68863179 -1344073586 -2069233344 1947142660 9071407 1307403684 1081898391 -322199990 -1928301642 237432079 1408844064 -146225401 -2032405140 1623320259 473939482
REM
CELL 1.54180   50.00000   50.00000   50.00000   90.00000   90.00000   90.00000
LATT -1
SFAC C  
C      1  0.5688220000000  0.4763700000000  0.5108540000000 1.0
C      1  0.4743090000000  0.4762580000000  0.4371560000000 1.0
C      1  0.4578410000000  0.4758720000000  0.5562970000000 1.0
C      1  0.5474600000000  0.4717280000000  0.4530270000000 1.0
C      1  0.4350980000000  0.4707870000000  0.4851730000000 1.0
C      1  0.5192440000000  0.4727060000000  0.5669840000000 1.0
C      1  0.4549170000000  0.5304430000000  0.5276370000000 1.0
C      1  0.5459990000000  0.5313580000000  0.5275900000000 1.0
C      1  0.5004640000000  0.5308990000000  0.4485380000000 1.0
C      1  0.5201090000000  0.4608530000000  0.4472230000000 1.0
C      1  0.4444460000000  0.4596940000000  0.5114870000000 1.0
C      1  0.5375560000000  0.4615030000000  0.5461270000000 1.0
C      1  0.5395370000000  0.5464520000000  0.4761460000000 1.0
C      1  0.4583050000000  0.5462860000000  0.4798990000000 1.0
C      1  0.5025590000000  0.5472800000000  0.5477890000000 1.0
C      1  0.5268770000000  0.5531310000000  0.5330800000000 1.0
C      1  0.5147800000000  0.5524960000000  0.4623520000000 1.0
C      1  0.4592560000000  0.5522980000000  0.5082220000000 1.0
C      1  0.5453630000000  0.5005280000000  0.4466430000000 1.0
C      1  0.4305940000000  0.4997070000000  0.4899450000000 1.0
C      1  0.5256660000000  0.5015190000000  0.5679810000000 1.0
C      1  0.4927060000000  0.4708810000000  0.5287640000000 1.0
C      1  0.5275380000000  0.4695270000000  0.4950990000000 1.0
C      1  0.4813450000000  0.4705720000000  0.4809780000000 1.0
C      1  0.5561970000000  0.4647380000000  0.4883670000000 1.0
C      1  0.4612290000000  0.4651860000000  0.4596270000000 1.0
C      1  0.4841170000000  0.4658290000000  0.5568170000000 1.0
C      1  0.5012920000000  0.5742660000000  0.4738770000000 1.0
C      1  0.4764270000000  0.5738620000000  0.5137760000000 1.0
C      1  0.5234140000000  0.5746510000000  0.5153340000000 1.0
C      1  0.5019520000000  0.5184890000000  0.5719650000000 1.0
C      1  0.5608710000000  0.5175210000000  0.4649230000000 1.0
C      1  0.4386990000000  0.5166170000000  0.4672810000000 1.0
C      1  0.4966230000000  0.5011850000000  0.5270200000000 1.0
C      1  0.5248000000000  0.5002660000000  0.4924590000000 1.0
C      1  0.4806870000000  0.5008530000000  0.4852180000000 1.0
C      1  0.4850310000000  0.5218920000000  0.5458720000000 1.0
C      1  0.5468360000000  0.5212340000000  0.4924980000000 1.0
C      1  0.4694170000000  0.5212620000000  0.4658660000000 1.0
C      1  0.5441020000000  0.5071010000000  0.5444850000000 1.0
C      1  0.5159050000000  0.5064830000000  0.4421520000000 1.0
C      1  0.4415510000000  0.5057810000000  0.5176170000000 1.0
C      1  0.4743170000000  0.4567440000000  0.5074030000000 1.0
C      1  0.5191500000000  0.4568930000000  0.5228120000000 1.0
C      1  0.5085850000000  0.4567080000000  0.4746750000000 1.0
C      1  0.4420890000000  0.4803190000000  0.5329850000000 1.0
C      1  0.5571980000000  0.4816840000000  0.5364190000000 1.0
C      1  0.5023190000000  0.4811960000000  0.4347070000000 1.0
C      1  0.4857790000000  0.4286700000000  0.5048530000000 1.0
C      1  0.5116180000000  0.4284080000000  0.5190650000000 1.0
C      1  0.5039410000000  0.4282280000000  0.4816040000000 1.0
C      1  0.5008200000000  0.5121500000000  0.5013730000000 1.0
C      1  0.5002510000000  0.5812100000000  0.5009920000000 1.0
END
