TITL C-3577083-591-322 -2.28286117815172e-06 125000 -282.049418818013 0 0 47 (C1) n - 1
REM
REM in /home/bkarasulu/work/CARBON/AIRSS/Generating-Clusters/EDIP-Nigel-Params/with-SteepDescent/Higher-Symm/SD-CG/HFTN-CG
REM
REM
REM
REM
REM
REM ./C.cell (12c818d87b63d06a65506943cc24bca4)
REM
REM compiler GCC version 9.2.1 20190827 (Red Hat 9.2.1-1)
REM options -cpp -mtune=generic -march=x86-64 -g -O0 -fpre-include=/usr/include/finclude/math-vector-fortran.h
REM seed -685105129 -1485661282 769878829 1042748976 -874830208 -2014603997 670504483 1576582865 918205246 618967476 -682088537 -159222980 1575934163 2046987918 25317851 849895695 -1544893723 1638790001 583016864 -954186712 -73984829 -1311911740 807548901 2023620275 -76627243 -146009529 546241421 -654577947 7443487 710789639 -1493999462 -284026452 1300774098
REM
CELL 1.54180   50.00000   50.00000   50.00000   90.00000   90.00000   90.00000
LATT -1
SFAC C  
C      1  0.4243190000000  0.4761840000000  0.5068310000000 1.0
C      1  0.5567220000000  0.4506610000000  0.5066320000000 1.0
C      1  0.5142860000000  0.5732640000000  0.5068570000000 1.0
C      1  0.5272330000000  0.5003660000000  0.4591240000000 1.0
C      1  0.4862090000000  0.5245300000000  0.4587870000000 1.0
C      1  0.4857670000000  0.4769900000000  0.4591080000000 1.0
C      1  0.5259630000000  0.4518760000000  0.4666830000000 1.0
C      1  0.5285250000000  0.5479880000000  0.4663000000000 1.0
C      1  0.4441950000000  0.5022280000000  0.4645730000000 1.0
C      1  0.4872330000000  0.5661380000000  0.5037850000000 1.0
C      1  0.4483020000000  0.4614600000000  0.5042400000000 1.0
C      1  0.5638680000000  0.4777740000000  0.5040360000000 1.0
C      1  0.5072900000000  0.4523020000000  0.5170760000000 1.0
C      1  0.5374110000000  0.5296450000000  0.5179560000000 1.0
C      1  0.4536140000000  0.5182920000000  0.5171650000000 1.0
C      1  0.5426850000000  0.4948380000000  0.5448300000000 1.0
C      1  0.4826920000000  0.5386420000000  0.5437560000000 1.0
C      1  0.4754930000000  0.4676220000000  0.5438450000000 1.0
C      1  0.4939120000000  0.4470000000000  0.5410190000000 1.0
C      1  0.5504430000000  0.5212550000000  0.5412340000000 1.0
C      1  0.4557790000000  0.5321100000000  0.5414160000000 1.0
C      1  0.4773970000000  0.4347330000000  0.4743810000000 1.0
C      1  0.5683630000000  0.5156530000000  0.4731340000000 1.0
C      1  0.4522540000000  0.5527100000000  0.4720270000000 1.0
C      1  0.4784490000000  0.5647800000000  0.4756080000000 1.0
C      1  0.4538760000000  0.4517470000000  0.4766500000000 1.0
C      1  0.5659010000000  0.4868550000000  0.4760760000000 1.0
C      1  0.5323390000000  0.4413080000000  0.5135670000000 1.0
C      1  0.5344080000000  0.5567470000000  0.5140100000000 1.0
C      1  0.4319610000000  0.5012240000000  0.5138410000000 1.0
C      1  0.5363120000000  0.4848230000000  0.5173170000000 1.0
C      1  0.4947160000000  0.5382690000000  0.5164470000000 1.0
C      1  0.4705940000000  0.4787770000000  0.5164580000000 1.0
C      1  0.4801950000000  0.5134410000000  0.5010530000000 1.0
C      1  0.4988810000000  0.4776500000000  0.5011740000000 1.0
C      1  0.5201730000000  0.5091510000000  0.5016620000000 1.0
C      1  0.4588540000000  0.5263300000000  0.4645920000000 1.0
C      1  0.4976040000000  0.4522540000000  0.4652040000000 1.0
C      1  0.5421380000000  0.5231390000000  0.4659500000000 1.0
C      1  0.4962630000000  0.5271290000000  0.5649630000000 1.0
C      1  0.4793180000000  0.4843740000000  0.5655320000000 1.0
C      1  0.5249880000000  0.4907060000000  0.5656970000000 1.0
C      1  0.5003580000000  0.5490960000000  0.4612260000000 1.0
C      1  0.4572140000000  0.4771530000000  0.4602560000000 1.0
C      1  0.5411840000000  0.4757600000000  0.4620950000000 1.0
C      1  0.4997730000000  0.5006040000000  0.4549920000000 1.0
C      1  0.5002570000000  0.5008960000000  0.5727070000000 1.0
END
