TITL C-3578207-9274-817 -2.33114334357655e-06 125000 -480.258539174609 0 0 79 (C1) n - 1
REM
REM in /home/bkarasulu/work/CARBON/AIRSS/Generating-Clusters/EDIP-Nigel-Params/with-SteepDescent/Higher-Symm/SD-CG/HFTN-CG
REM
REM
REM
REM
REM
REM ./C.cell (12c818d87b63d06a65506943cc24bca4)
REM
REM compiler GCC version 9.2.1 20190827 (Red Hat 9.2.1-1)
REM options -cpp -mtune=generic -march=x86-64 -g -O0 -fpre-include=/usr/include/finclude/math-vector-fortran.h
REM seed 1692868303 1524842122 1912020738 -299302677 -267092526 724167378 -1911413712 1100096244 247745844 -8363925 -1343425777 -1493062151 -651825441 -972408609 1092788648 -2141381238 1665372518 -809707499 -1816149721 -1912221035 1285382672 366966666 -1965542388 -229630 39323389 -544260366 -172855369 1514398211 1361668348 -972177349 -590255667 632258554 1297999156
REM
CELL 1.54180   50.00000   50.00000   50.00000   90.00000   90.00000   90.00000
LATT -1
SFAC C  
C      1  0.5688250000000  0.4674020000000  0.4929100000000 1.0
C      1  0.5588360000000  0.5015320000000  0.5531720000000 1.0
C      1  0.5252890000000  0.5741090000000  0.5009450000000 1.0
C      1  0.4751830000000  0.4097340000000  0.5269590000000 1.0
C      1  0.4482340000000  0.4889010000000  0.4382230000000 1.0
C      1  0.4625490000000  0.5164020000000  0.4362770000000 1.0
C      1  0.4350930000000  0.5157180000000  0.5037000000000 1.0
C      1  0.4932680000000  0.5048210000000  0.4377470000000 1.0
C      1  0.4821040000000  0.5625810000000  0.4771590000000 1.0
C      1  0.4671420000000  0.5275200000000  0.5736230000000 1.0
C      1  0.5731410000000  0.5193910000000  0.5088100000000 1.0
C      1  0.4823300000000  0.5787020000000  0.5233740000000 1.0
C      1  0.5368760000000  0.5421850000000  0.5376230000000 1.0
C      1  0.5008750000000  0.4195140000000  0.5175670000000 1.0
C      1  0.4829830000000  0.5194760000000  0.4843480000000 1.0
C      1  0.4844770000000  0.5458730000000  0.4283310000000 1.0
C      1  0.4549460000000  0.5531590000000  0.4797160000000 1.0
C      1  0.5491880000000  0.4439800000000  0.5000570000000 1.0
C      1  0.5696350000000  0.4785740000000  0.5380090000000 1.0
C      1  0.4748730000000  0.5133170000000  0.5342120000000 1.0
C      1  0.5620610000000  0.5267680000000  0.5358360000000 1.0
C      1  0.5545510000000  0.5294070000000  0.4345420000000 1.0
C      1  0.4643660000000  0.5554980000000  0.5282890000000 1.0
C      1  0.4300430000000  0.4865710000000  0.4598750000000 1.0
C      1  0.5313960000000  0.5500570000000  0.4828600000000 1.0
C      1  0.4779470000000  0.5483130000000  0.5548620000000 1.0
C      1  0.5368200000000  0.5068430000000  0.4449310000000 1.0
C      1  0.4849960000000  0.4551340000000  0.5767880000000 1.0
C      1  0.4792480000000  0.4701100000000  0.5265190000000 1.0
C      1  0.4738370000000  0.4609860000000  0.4807260000000 1.0
C      1  0.5056670000000  0.4235820000000  0.5456780000000 1.0
C      1  0.4644660000000  0.5065610000000  0.5054870000000 1.0
C      1  0.5317180000000  0.4918540000000  0.5575620000000 1.0
C      1  0.4955650000000  0.5792030000000  0.4971730000000 1.0
C      1  0.5523830000000  0.4536870000000  0.5386740000000 1.0
C      1  0.5688280000000  0.4896930000000  0.5117560000000 1.0
C      1  0.4915640000000  0.4794700000000  0.4212920000000 1.0
C      1  0.5074920000000  0.4376420000000  0.4446220000000 1.0
C      1  0.5288850000000  0.5694010000000  0.5301900000000 1.0
C      1  0.5190300000000  0.5349300000000  0.5585450000000 1.0
C      1  0.5299840000000  0.5021070000000  0.4937740000000 1.0
C      1  0.5149540000000  0.5103410000000  0.5719540000000 1.0
C      1  0.5334590000000  0.4655220000000  0.4664770000000 1.0
C      1  0.5059130000000  0.5127910000000  0.5291650000000 1.0
C      1  0.4511990000000  0.5283140000000  0.4628870000000 1.0
C      1  0.5145280000000  0.4613500000000  0.4264790000000 1.0
C      1  0.4626410000000  0.4754430000000  0.5036050000000 1.0
C      1  0.5367740000000  0.4774420000000  0.4380130000000 1.0
C      1  0.4867220000000  0.5049600000000  0.5760150000000 1.0
C      1  0.4644860000000  0.4764930000000  0.5514190000000 1.0
C      1  0.4442140000000  0.5198840000000  0.5572830000000 1.0
C      1  0.4339840000000  0.4433690000000  0.5250160000000 1.0
C      1  0.4941110000000  0.4979170000000  0.4680140000000 1.0
C      1  0.5723120000000  0.5411480000000  0.4538230000000 1.0
C      1  0.5304570000000  0.4630300000000  0.5570320000000 1.0
C      1  0.4245130000000  0.4917450000000  0.5227300000000 1.0
C      1  0.5131600000000  0.4802100000000  0.4848260000000 1.0
C      1  0.4343540000000  0.4667670000000  0.5098590000000 1.0
C      1  0.5113420000000  0.5254030000000  0.4986540000000 1.0
C      1  0.5280020000000  0.4364230000000  0.4681700000000 1.0
C      1  0.4640540000000  0.4366680000000  0.4722790000000 1.0
C      1  0.5048240000000  0.4499860000000  0.5565220000000 1.0
C      1  0.4785850000000  0.4801820000000  0.5875590000000 1.0
C      1  0.4939490000000  0.5617540000000  0.4510450000000 1.0
C      1  0.5225600000000  0.5592380000000  0.4541560000000 1.0
C      1  0.5685310000000  0.4819510000000  0.4683870000000 1.0
C      1  0.5032790000000  0.5756820000000  0.5434330000000 1.0
C      1  0.5077080000000  0.4789140000000  0.5229730000000 1.0
C      1  0.4388260000000  0.4930800000000  0.5489400000000 1.0
C      1  0.5321750000000  0.5475670000000  0.4283890000000 1.0
C      1  0.4299930000000  0.5110540000000  0.4738000000000 1.0
C      1  0.5222220000000  0.4503840000000  0.5156860000000 1.0
C      1  0.5085350000000  0.5337180000000  0.4180680000000 1.0
C      1  0.4768570000000  0.4422980000000  0.4468650000000 1.0
C      1  0.5605740000000  0.5353170000000  0.4799470000000 1.0
C      1  0.4449820000000  0.5467300000000  0.5070190000000 1.0
C      1  0.4667670000000  0.4664890000000  0.4299970000000 1.0
C      1  0.4512530000000  0.4232060000000  0.5283280000000 1.0
C      1  0.5505100000000  0.5065200000000  0.4724410000000 1.0
END
