TITL C-3577081-279-577 7.33852152599737e-07 125000 -496.512867504816 0 0 81 (C1) n - 1
REM
REM in /home/bkarasulu/work/CARBON/AIRSS/Generating-Clusters/EDIP-Nigel-Params/with-SteepDescent/Higher-Symm/SD-CG/HFTN-CG
REM
REM
REM
REM
REM
REM ./C.cell (12c818d87b63d06a65506943cc24bca4)
REM
REM compiler GCC version 9.2.1 20190827 (Red Hat 9.2.1-1)
REM options -cpp -mtune=generic -march=x86-64 -g -O0 -fpre-include=/usr/include/finclude/math-vector-fortran.h
REM seed -418391224 -748303456 244226067 221528677 -1002851417 -937852086 -1608653533 -428437437 -1614112506 -1823845072 16470202 622388263 1663068818 -1288987656 1361357656 -1468951400 -657165755 -1696964443 -794657809 -331908606 643192132 45890716 195077397 -1813005673 631713159 -1447629383 -1706485782 -1296889703 1871194147 2092556432 1381389724 -1658004632 1393194738
REM
CELL 1.54180   50.00000   50.00000   50.00000   90.00000   90.00000   90.00000
LATT -1
SFAC C  
C      1  0.4649310000000  0.5007490000000  0.5768820000000 1.0
C      1  0.4668270000000  0.5058390000000  0.4254570000000 1.0
C      1  0.4893460000000  0.4534450000000  0.4450400000000 1.0
C      1  0.4886990000000  0.5460250000000  0.5529310000000 1.0
C      1  0.4374570000000  0.4750700000000  0.4626890000000 1.0
C      1  0.4354780000000  0.5233730000000  0.5295700000000 1.0
C      1  0.5352150000000  0.4473680000000  0.4715540000000 1.0
C      1  0.5352450000000  0.5539260000000  0.5265330000000 1.0
C      1  0.5490530000000  0.4643760000000  0.4519250000000 1.0
C      1  0.5500150000000  0.5378290000000  0.5471250000000 1.0
C      1  0.5450280000000  0.4930470000000  0.4601760000000 1.0
C      1  0.5399200000000  0.5088820000000  0.5393910000000 1.0
C      1  0.5169030000000  0.5058870000000  0.4184260000000 1.0
C      1  0.5167520000000  0.4949100000000  0.5819780000000 1.0
C      1  0.4617430000000  0.5598720000000  0.5075480000000 1.0
C      1  0.4632850000000  0.4382320000000  0.4900610000000 1.0
C      1  0.5760790000000  0.5100190000000  0.5143140000000 1.0
C      1  0.5856380000000  0.4904210000000  0.4757610000000 1.0
C      1  0.4894270000000  0.5709370000000  0.5096120000000 1.0
C      1  0.4918870000000  0.4289420000000  0.4884390000000 1.0
C      1  0.4930630000000  0.4300000000000  0.5391600000000 1.0
C      1  0.4916100000000  0.5693090000000  0.4577660000000 1.0
C      1  0.5381410000000  0.5124560000000  0.4377920000000 1.0
C      1  0.5376710000000  0.4876240000000  0.5624220000000 1.0
C      1  0.5322410000000  0.5809970000000  0.4883000000000 1.0
C      1  0.5349870000000  0.4211100000000  0.5105200000000 1.0
C      1  0.5755190000000  0.5245170000000  0.5393520000000 1.0
C      1  0.5770980000000  0.4706270000000  0.4572730000000 1.0
C      1  0.5413860000000  0.4691920000000  0.5226320000000 1.0
C      1  0.5400790000000  0.5333760000000  0.4766950000000 1.0
C      1  0.5063900000000  0.5618600000000  0.5324000000000 1.0
C      1  0.5079820000000  0.4359870000000  0.4641580000000 1.0
C      1  0.5509930000000  0.5663740000000  0.5038250000000 1.0
C      1  0.5520420000000  0.4367980000000  0.4942170000000 1.0
C      1  0.5147760000000  0.4795540000000  0.4093530000000 1.0
C      1  0.5162140000000  0.5219770000000  0.5881810000000 1.0
C      1  0.4315530000000  0.5341450000000  0.4795360000000 1.0
C      1  0.4313310000000  0.4648240000000  0.5148790000000 1.0
C      1  0.4652690000000  0.5163750000000  0.4753790000000 1.0
C      1  0.4622000000000  0.4813150000000  0.5298490000000 1.0
C      1  0.4836520000000  0.5192580000000  0.5413610000000 1.0
C      1  0.4870540000000  0.4784940000000  0.4605790000000 1.0
C      1  0.4485840000000  0.5465970000000  0.5797100000000 1.0
C      1  0.4465710000000  0.4631350000000  0.4265960000000 1.0
C      1  0.4568120000000  0.5061520000000  0.5467860000000 1.0
C      1  0.4629370000000  0.4947230000000  0.4542070000000 1.0
C      1  0.4292850000000  0.4845340000000  0.4927090000000 1.0
C      1  0.4296110000000  0.5139670000000  0.5008150000000 1.0
C      1  0.5669090000000  0.4575350000000  0.5122490000000 1.0
C      1  0.5651690000000  0.5472830000000  0.4838240000000 1.0
C      1  0.4667090000000  0.4784090000000  0.4117500000000 1.0
C      1  0.4685940000000  0.5286320000000  0.5894030000000 1.0
C      1  0.5333330000000  0.4603580000000  0.5512420000000 1.0
C      1  0.5312270000000  0.5383630000000  0.4490980000000 1.0
C      1  0.5015040000000  0.5414440000000  0.4476420000000 1.0
C      1  0.5039350000000  0.4540910000000  0.5545410000000 1.0
C      1  0.4489190000000  0.5570470000000  0.4818680000000 1.0
C      1  0.4494760000000  0.4416810000000  0.5150980000000 1.0
C      1  0.4858260000000  0.4762810000000  0.4890030000000 1.0
C      1  0.4897890000000  0.5153460000000  0.5145730000000 1.0
C      1  0.5084070000000  0.5334860000000  0.4987690000000 1.0
C      1  0.5060020000000  0.4663490000000  0.5072740000000 1.0
C      1  0.4925220000000  0.5227240000000  0.4231240000000 1.0
C      1  0.4907420000000  0.4827760000000  0.5737840000000 1.0
C      1  0.5325520000000  0.5110540000000  0.5073530000000 1.0
C      1  0.5289020000000  0.4846760000000  0.4943850000000 1.0
C      1  0.5046750000000  0.5754370000000  0.4847090000000 1.0
C      1  0.5068970000000  0.4235510000000  0.5132810000000 1.0
C      1  0.4606670000000  0.5571790000000  0.5562680000000 1.0
C      1  0.4607580000000  0.4431870000000  0.4421560000000 1.0
C      1  0.4464140000000  0.4449450000000  0.4670060000000 1.0
C      1  0.4454450000000  0.5521150000000  0.5311130000000 1.0
C      1  0.4652140000000  0.4328750000000  0.5364540000000 1.0
C      1  0.4635600000000  0.5678230000000  0.4605400000000 1.0
C      1  0.4961020000000  0.5402740000000  0.5825180000000 1.0
C      1  0.4930900000000  0.4633920000000  0.4157650000000 1.0
C      1  0.5835720000000  0.5257400000000  0.4916600000000 1.0
C      1  0.5830240000000  0.4829760000000  0.5037640000000 1.0
C      1  0.4934240000000  0.5273990000000  0.4721730000000 1.0
C      1  0.4932680000000  0.4763210000000  0.5352280000000 1.0
C      1  0.4707890000000  0.4979260000000  0.5009600000000 1.0
END
