TITL C-3577090-796-692 2.50613845220528e-07 125000 -32.9277065857033 0 0 7 (D(inf)h) n - 1
REM
REM in /home/bkarasulu/work/CARBON/AIRSS/Generating-Clusters/EDIP-Nigel-Params/with-SteepDescent/Higher-Symm/SD-CG/HFTN-CG
REM
REM
REM
REM
REM
REM ./C.cell (12c818d87b63d06a65506943cc24bca4)
REM
REM compiler GCC version 9.2.1 20190827 (Red Hat 9.2.1-1)
REM options -cpp -mtune=generic -march=x86-64 -g -O0 -fpre-include=/usr/include/finclude/math-vector-fortran.h
REM seed 160091275 1623408710 1115529263 -536670689 -582042204 -458837325 782270524 -871371340 -1057457137 -1498671254 -1439385320 -848616123 -866549716 -72149206 -315478305 -1981637114 -2028295067 -1438950493 153554788 -2035005210 1077607727 -350518545 612287408 743378609 -1561701366 -1271749417 -1606587544 -922220833 -687763591 -1460777949 -33319895 -682114724 172600807
REM
CELL 1.54180   50.00000   50.00000   50.00000   90.00000   90.00000   90.00000
LATT -1
SFAC C  
C      1  0.4727480000000  0.5048910000000  0.4854300000000 1.0
C      1  0.5214670000000  0.4953590000000  0.5033260000000 1.0
C      1  0.4483880000000  0.5096570000000  0.4764820000000 1.0
C      1  0.5458270000000  0.4905940000000  0.5122730000000 1.0
C      1  0.4247800000000  0.5142750000000  0.4678100000000 1.0
C      1  0.5694350000000  0.4859750000000  0.5209450000000 1.0
C      1  0.4971080000000  0.5001250000000  0.4943780000000 1.0
END
