TITL C-3578202-4305-185 -3.24681726098801e-07 125000 -505.97547203895 0 0 82 (C1) n - 1
REM
REM in /home/bkarasulu/work/CARBON/AIRSS/Generating-Clusters/EDIP-Nigel-Params/with-SteepDescent/Higher-Symm/SD-CG/HFTN-CG
REM
REM
REM
REM
REM
REM ./C.cell (12c818d87b63d06a65506943cc24bca4)
REM
REM compiler GCC version 9.2.1 20190827 (Red Hat 9.2.1-1)
REM options -cpp -mtune=generic -march=x86-64 -g -O0 -fpre-include=/usr/include/finclude/math-vector-fortran.h
REM seed 870876321 -70564987 -2089934931 441137676 -1932891176 -570696117 -1203077091 1013517049 1532490381 -749497157 1793907626 -1971433824 583954200 -1745026516 -1018738484 -1439286379 1917503653 -1382886247 -449037490 889410422 -970274107 1216140544 -1366304413 -362522378 193397203 -519676611 523742120 219640746 360608843 -1286609008 15564558 334455550 405253783
REM
CELL 1.54180   50.00000   50.00000   50.00000   90.00000   90.00000   90.00000
LATT -1
SFAC C  
C      1  0.4521490000000  0.5382260000000  0.5525660000000 1.0
C      1  0.4534860000000  0.5606460000000  0.4791530000000 1.0
C      1  0.4498150000000  0.5002570000000  0.4322060000000 1.0
C      1  0.4551470000000  0.4399710000000  0.4785780000000 1.0
C      1  0.4528890000000  0.4608380000000  0.5523860000000 1.0
C      1  0.5452750000000  0.5362400000000  0.4467600000000 1.0
C      1  0.5408730000000  0.5550030000000  0.5192650000000 1.0
C      1  0.5540510000000  0.5020750000000  0.5667500000000 1.0
C      1  0.5419380000000  0.4452010000000  0.5183760000000 1.0
C      1  0.5476380000000  0.4624150000000  0.4478060000000 1.0
C      1  0.5583380000000  0.4517810000000  0.4953050000000 1.0
C      1  0.5580520000000  0.4854520000000  0.5427430000000 1.0
C      1  0.5588190000000  0.5362400000000  0.5317600000000 1.0
C      1  0.5551250000000  0.5390810000000  0.4743010000000 1.0
C      1  0.5535070000000  0.4894480000000  0.4550260000000 1.0
C      1  0.4464220000000  0.4524660000000  0.5032780000000 1.0
C      1  0.4424840000000  0.4808110000000  0.4529290000000 1.0
C      1  0.4431760000000  0.5359270000000  0.4678320000000 1.0
C      1  0.4418560000000  0.5427560000000  0.5251590000000 1.0
C      1  0.4440880000000  0.4882340000000  0.5466800000000 1.0
C      1  0.4787920000000  0.5180980000000  0.5239310000000 1.0
C      1  0.4846290000000  0.5292540000000  0.4812550000000 1.0
C      1  0.4813230000000  0.4990090000000  0.4628890000000 1.0
C      1  0.4807960000000  0.4746800000000  0.4870290000000 1.0
C      1  0.4837500000000  0.4806170000000  0.5283860000000 1.0
C      1  0.5175810000000  0.5157240000000  0.4742490000000 1.0
C      1  0.5109990000000  0.5224030000000  0.5227960000000 1.0
C      1  0.5132500000000  0.5095180000000  0.5518080000000 1.0
C      1  0.5116410000000  0.4756030000000  0.5076650000000 1.0
C      1  0.5096760000000  0.4846160000000  0.4547100000000 1.0
C      1  0.5189320000000  0.5033380000000  0.4224880000000 1.0
C      1  0.5119570000000  0.4518760000000  0.4818870000000 1.0
C      1  0.5137190000000  0.4694950000000  0.5504880000000 1.0
C      1  0.5253890000000  0.5410340000000  0.5688130000000 1.0
C      1  0.5137590000000  0.5542090000000  0.4768970000000 1.0
C      1  0.4840660000000  0.4993570000000  0.5629770000000 1.0
C      1  0.4709660000000  0.4202660000000  0.5281050000000 1.0
C      1  0.4844690000000  0.4583930000000  0.4422200000000 1.0
C      1  0.4801670000000  0.5377090000000  0.4408790000000 1.0
C      1  0.4849270000000  0.5510760000000  0.5190990000000 1.0
C      1  0.5331530000000  0.4929180000000  0.5841250000000 1.0
C      1  0.5308910000000  0.5752470000000  0.5354680000000 1.0
C      1  0.5320890000000  0.5568370000000  0.4327200000000 1.0
C      1  0.5293070000000  0.4593030000000  0.4267670000000 1.0
C      1  0.5260620000000  0.4221350000000  0.5185450000000 1.0
C      1  0.4673840000000  0.4910640000000  0.4121330000000 1.0
C      1  0.4692580000000  0.5770930000000  0.4626120000000 1.0
C      1  0.4678170000000  0.5577740000000  0.5655050000000 1.0
C      1  0.4680020000000  0.4575720000000  0.5759630000000 1.0
C      1  0.4659410000000  0.4142490000000  0.4796670000000 1.0
C      1  0.4561270000000  0.5104250000000  0.5612330000000 1.0
C      1  0.4570870000000  0.5624530000000  0.5084140000000 1.0
C      1  0.4541590000000  0.5274850000000  0.4424630000000 1.0
C      1  0.4580210000000  0.4560020000000  0.4541250000000 1.0
C      1  0.4575270000000  0.4447630000000  0.5286920000000 1.0
C      1  0.5422310000000  0.5093230000000  0.4379160000000 1.0
C      1  0.5402220000000  0.5581140000000  0.4905320000000 1.0
C      1  0.5513960000000  0.5304010000000  0.5599140000000 1.0
C      1  0.5398830000000  0.4635580000000  0.5398060000000 1.0
C      1  0.5413950000000  0.4466420000000  0.4713850000000 1.0
C      1  0.4820490000000  0.4139690000000  0.5025710000000 1.0
C      1  0.4859750000000  0.4776800000000  0.5839300000000 1.0
C      1  0.4875760000000  0.5642370000000  0.5467130000000 1.0
C      1  0.4861530000000  0.5652110000000  0.4436520000000 1.0
C      1  0.4857620000000  0.4701450000000  0.4159940000000 1.0
C      1  0.5081950000000  0.4255130000000  0.4974910000000 1.0
C      1  0.5138540000000  0.4772110000000  0.4116610000000 1.0
C      1  0.5139640000000  0.5676770000000  0.4509060000000 1.0
C      1  0.5152220000000  0.5657760000000  0.5566200000000 1.0
C      1  0.5145210000000  0.4719610000000  0.5797720000000 1.0
C      1  0.4286690000000  0.4941860000000  0.5231500000000 1.0
C      1  0.4269550000000  0.5210870000000  0.5121220000000 1.0
C      1  0.4266880000000  0.5182600000000  0.4830500000000 1.0
C      1  0.4285660000000  0.4900720000000  0.4767010000000 1.0
C      1  0.4300360000000  0.4755990000000  0.5013810000000 1.0
C      1  0.5751790000000  0.4945780000000  0.4739940000000 1.0
C      1  0.5754170000000  0.5214530000000  0.4859330000000 1.0
C      1  0.5780830000000  0.5198180000000  0.5156990000000 1.0
C      1  0.5790470000000  0.4909070000000  0.5228240000000 1.0
C      1  0.5764780000000  0.4757460000000  0.4967280000000 1.0
C      1  0.4648040000000  0.5026790000000  0.4990980000000 1.0
C      1  0.5211140000000  0.5037590000000  0.5016570000000 1.0
END
