TITL C-3578194-7807-325 -4.97821773903462e-06 125000 -529.721175730232 0 0 86 (C1) n - 1
REM
REM in /home/bkarasulu/work/CARBON/AIRSS/Generating-Clusters/EDIP-Nigel-Params/with-SteepDescent/Higher-Symm/SD-CG/HFTN-CG
REM
REM
REM
REM
REM
REM ./C.cell (12c818d87b63d06a65506943cc24bca4)
REM
REM compiler GCC version 9.2.1 20190827 (Red Hat 9.2.1-1)
REM options -cpp -mtune=generic -march=x86-64 -g -O0 -fpre-include=/usr/include/finclude/math-vector-fortran.h
REM seed -840718053 -1227849763 1928851179 365943174 -1887827703 -1545243396 383320420 -1530572214 -1591174831 -1230428473 1912196876 -1924647266 318718900 -116143600 1926066863 825725532 51589463 -947232195 757293385 -619185584 266287924 2083273912 -1455578848 512793912 -1424683976 -1502239471 -1021484880 -917142744 -1788993989 491069593 -1816815116 614644432 -1750094835
REM
CELL 1.54180   50.00000   50.00000   50.00000   90.00000   90.00000   90.00000
LATT -1
SFAC C  
C      1  0.4526030000000  0.5236910000000  0.4997960000000 1.0
C      1  0.5455870000000  0.5283360000000  0.5043950000000 1.0
C      1  0.5034880000000  0.4444870000000  0.5026400000000 1.0
C      1  0.5590260000000  0.5106050000000  0.4514060000000 1.0
C      1  0.4805630000000  0.4487770000000  0.4591230000000 1.0
C      1  0.4641270000000  0.5437970000000  0.4554270000000 1.0
C      1  0.5259540000000  0.5051260000000  0.5883330000000 1.0
C      1  0.4918850000000  0.4746000000000  0.5886780000000 1.0
C      1  0.4827950000000  0.5194390000000  0.5880460000000 1.0
C      1  0.5359320000000  0.5606300000000  0.4671700000000 1.0
C      1  0.5356990000000  0.4370460000000  0.4667870000000 1.0
C      1  0.4249540000000  0.5015450000000  0.4659990000000 1.0
C      1  0.4462410000000  0.4850170000000  0.4557260000000 1.0
C      1  0.5139670000000  0.5597680000000  0.4492900000000 1.0
C      1  0.5416100000000  0.4613250000000  0.4537470000000 1.0
C      1  0.5686140000000  0.4694580000000  0.5067190000000 1.0
C      1  0.4403120000000  0.4542400000000  0.5068740000000 1.0
C      1  0.4937910000000  0.5744020000000  0.5051710000000 1.0
C      1  0.5290810000000  0.4922150000000  0.4179750000000 1.0
C      1  0.4767820000000  0.4778410000000  0.4190950000000 1.0
C      1  0.4920930000000  0.5287340000000  0.4168490000000 1.0
C      1  0.5173330000000  0.5394180000000  0.4276150000000 1.0
C      1  0.5228960000000  0.4684380000000  0.4325530000000 1.0
C      1  0.4580860000000  0.4962370000000  0.4298680000000 1.0
C      1  0.5388730000000  0.5076700000000  0.5639860000000 1.0
C      1  0.4867380000000  0.4608660000000  0.5651760000000 1.0
C      1  0.4747980000000  0.5300540000000  0.5637570000000 1.0
C      1  0.5741570000000  0.5293360000000  0.4706630000000 1.0
C      1  0.4884270000000  0.4204790000000  0.4687190000000 1.0
C      1  0.4369680000000  0.5506690000000  0.4685130000000 1.0
C      1  0.4511790000000  0.5622460000000  0.5197530000000 1.0
C      1  0.5818860000000  0.5122350000000  0.5221920000000 1.0
C      1  0.4712080000000  0.4222350000000  0.5214060000000 1.0
C      1  0.4280490000000  0.5246820000000  0.4817570000000 1.0
C      1  0.5554820000000  0.5487600000000  0.4838320000000 1.0
C      1  0.5150820000000  0.4254820000000  0.4820850000000 1.0
C      1  0.4568190000000  0.4968750000000  0.5140450000000 1.0
C      1  0.5183960000000  0.5367540000000  0.5145240000000 1.0
C      1  0.5240430000000  0.4620540000000  0.5153450000000 1.0
C      1  0.4530220000000  0.4428390000000  0.5311110000000 1.0
C      1  0.4784000000000  0.5658210000000  0.5282630000000 1.0
C      1  0.5715310000000  0.4864950000000  0.5308380000000 1.0
C      1  0.4380690000000  0.5393470000000  0.5317160000000 1.0
C      1  0.5681700000000  0.5348850000000  0.5345160000000 1.0
C      1  0.4975500000000  0.4234710000000  0.5340120000000 1.0
C      1  0.5057130000000  0.5154470000000  0.5360840000000 1.0
C      1  0.5138760000000  0.4820530000000  0.5385460000000 1.0
C      1  0.4785970000000  0.4945870000000  0.5381110000000 1.0
C      1  0.4502530000000  0.4528350000000  0.4583400000000 1.0
C      1  0.4843760000000  0.5667950000000  0.4562090000000 1.0
C      1  0.5647700000000  0.4809610000000  0.4579660000000 1.0
C      1  0.5502850000000  0.4830640000000  0.5520450000000 1.0
C      1  0.4602690000000  0.4632780000000  0.5522980000000 1.0
C      1  0.4921890000000  0.5496390000000  0.5493090000000 1.0
C      1  0.4486010000000  0.5229850000000  0.5533680000000 1.0
C      1  0.5489290000000  0.5340170000000  0.5565570000000 1.0
C      1  0.5062550000000  0.4418910000000  0.5550730000000 1.0
C      1  0.4861490000000  0.4629920000000  0.4863460000000 1.0
C      1  0.4749500000000  0.5286410000000  0.4795350000000 1.0
C      1  0.5400560000000  0.5049650000000  0.4854090000000 1.0
C      1  0.5420270000000  0.4413370000000  0.5285740000000 1.0
C      1  0.4296210000000  0.4924110000000  0.5270600000000 1.0
C      1  0.5291020000000  0.5619460000000  0.5281070000000 1.0
C      1  0.4654750000000  0.4173040000000  0.4901520000000 1.0
C      1  0.4485570000000  0.5707970000000  0.4898750000000 1.0
C      1  0.5876340000000  0.5102820000000  0.4911450000000 1.0
C      1  0.4660990000000  0.5256840000000  0.4298190000000 1.0
C      1  0.5388230000000  0.5170490000000  0.4285320000000 1.0
C      1  0.4941310000000  0.4614420000000  0.4342650000000 1.0
C      1  0.4597940000000  0.4737710000000  0.4962950000000 1.0
C      1  0.5028070000000  0.5405480000000  0.4870590000000 1.0
C      1  0.5414370000000  0.4756530000000  0.4955860000000 1.0
C      1  0.5292730000000  0.5559440000000  0.5562910000000 1.0
C      1  0.5350850000000  0.4482890000000  0.5560850000000 1.0
C      1  0.4390120000000  0.4950210000000  0.5546430000000 1.0
C      1  0.5682310000000  0.4418270000000  0.5170060000000 1.0
C      1  0.4168130000000  0.4692060000000  0.5163130000000 1.0
C      1  0.5185130000000  0.5856840000000  0.5157450000000 1.0
C      1  0.5192520000000  0.5200770000000  0.4671190000000 1.0
C      1  0.5010180000000  0.4882010000000  0.4830260000000 1.0
C      1  0.4788130000000  0.5025950000000  0.4680160000000 1.0
C      1  0.4762700000000  0.5813790000000  0.4813790000000 1.0
C      1  0.5834240000000  0.4810730000000  0.4824080000000 1.0
C      1  0.4416740000000  0.4356910000000  0.4824850000000 1.0
C      1  0.5002850000000  0.5034800000000  0.4452430000000 1.0
C      1  0.5001620000000  0.4997390000000  0.5961800000000 1.0
END
