TITL C-3578199-7832-798 -1.1754032115822e-06 125000 -658.981753512901 0 0 106 (C1) n - 1
REM
REM in /home/bkarasulu/work/CARBON/AIRSS/Generating-Clusters/EDIP-Nigel-Params/with-SteepDescent/Higher-Symm/SD-CG/HFTN-CG
REM
REM
REM
REM
REM
REM ./C.cell (12c818d87b63d06a65506943cc24bca4)
REM
REM compiler GCC version 9.2.1 20190827 (Red Hat 9.2.1-1)
REM options -cpp -mtune=generic -march=x86-64 -g -O0 -fpre-include=/usr/include/finclude/math-vector-fortran.h
REM seed -715115621 -1226882368 324455136 -717130844 1993634519 -847456237 582778261 -1809380022 2010127948 -1497625597 1420086594 945091414 -1597712400 -782989182 1642998153 -530650298 187334733 -801615273 -1595104242 -2137785817 1277001990 -1283852220 -737926798 545660426 -911709633 1937055257 1633926590 2065160076 -708814502 -1719902065 1301536191 -884823890 -1508177450
REM
CELL 1.54180   50.00000   50.00000   50.00000   90.00000   90.00000   90.00000
LATT -1
SFAC C  
C      1  0.5191490000000  0.4892710000000  0.4677980000000 1.0
C      1  0.4760950000000  0.4853960000000  0.5286440000000 1.0
C      1  0.5229520000000  0.5095280000000  0.5256180000000 1.0
C      1  0.4753130000000  0.5019450000000  0.4736900000000 1.0
C      1  0.5380690000000  0.4809520000000  0.4903980000000 1.0
C      1  0.4584710000000  0.4723580000000  0.5088640000000 1.0
C      1  0.5405890000000  0.5255240000000  0.5078820000000 1.0
C      1  0.4602250000000  0.5170250000000  0.4949050000000 1.0
C      1  0.5282410000000  0.4181720000000  0.5011510000000 1.0
C      1  0.4730880000000  0.4171980000000  0.4979640000000 1.0
C      1  0.5261660000000  0.5818880000000  0.4897760000000 1.0
C      1  0.4784400000000  0.5800300000000  0.5083350000000 1.0
C      1  0.5416110000000  0.4423060000000  0.5377320000000 1.0
C      1  0.4571550000000  0.4392100000000  0.4609990000000 1.0
C      1  0.5508100000000  0.5580830000000  0.4579590000000 1.0
C      1  0.4546820000000  0.5607970000000  0.5432270000000 1.0
C      1  0.4244490000000  0.5263030000000  0.4489130000000 1.0
C      1  0.5746170000000  0.5278970000000  0.5528590000000 1.0
C      1  0.4224070000000  0.4729080000000  0.5538190000000 1.0
C      1  0.5753150000000  0.4743510000000  0.4453600000000 1.0
C      1  0.4850880000000  0.5549730000000  0.5777640000000 1.0
C      1  0.5203160000000  0.5504060000000  0.4243640000000 1.0
C      1  0.4889410000000  0.4517780000000  0.4278400000000 1.0
C      1  0.5093210000000  0.4535250000000  0.5696610000000 1.0
C      1  0.4705910000000  0.5121260000000  0.5920590000000 1.0
C      1  0.5301740000000  0.5094560000000  0.4040800000000 1.0
C      1  0.4727850000000  0.4921670000000  0.4069740000000 1.0
C      1  0.5267360000000  0.4919640000000  0.5918730000000 1.0
C      1  0.4502410000000  0.4799990000000  0.4274810000000 1.0
C      1  0.5491220000000  0.4793210000000  0.5739250000000 1.0
C      1  0.4474810000000  0.5231600000000  0.5767640000000 1.0
C      1  0.5560800000000  0.5185240000000  0.4236920000000 1.0
C      1  0.4560220000000  0.5320570000000  0.4376600000000 1.0
C      1  0.5453580000000  0.5360570000000  0.5634450000000 1.0
C      1  0.4500100000000  0.4641010000000  0.5665890000000 1.0
C      1  0.5482000000000  0.4648670000000  0.4336020000000 1.0
C      1  0.5757110000000  0.4906570000000  0.5195450000000 1.0
C      1  0.4195580000000  0.4867170000000  0.4798230000000 1.0
C      1  0.5841470000000  0.5151810000000  0.4710760000000 1.0
C      1  0.4213920000000  0.5120180000000  0.5231950000000 1.0
C      1  0.5021990000000  0.5642750000000  0.4977050000000 1.0
C      1  0.5085460000000  0.5507920000000  0.5254480000000 1.0
C      1  0.4910060000000  0.4398150000000  0.5102390000000 1.0
C      1  0.5099260000000  0.4384890000000  0.4865040000000 1.0
C      1  0.5224170000000  0.5212660000000  0.5903790000000 1.0
C      1  0.4786560000000  0.5211180000000  0.4119550000000 1.0
C      1  0.5245510000000  0.4801190000000  0.4065110000000 1.0
C      1  0.4744870000000  0.4827190000000  0.5908910000000 1.0
C      1  0.5765490000000  0.5042040000000  0.4447530000000 1.0
C      1  0.4259490000000  0.5037280000000  0.5516570000000 1.0
C      1  0.5724050000000  0.4976910000000  0.5487520000000 1.0
C      1  0.4233370000000  0.4955510000000  0.4511940000000 1.0
C      1  0.5078200000000  0.5260200000000  0.4144740000000 1.0
C      1  0.4942780000000  0.5287210000000  0.5868290000000 1.0
C      1  0.5026220000000  0.4756720000000  0.5864500000000 1.0
C      1  0.4960720000000  0.4740420000000  0.4110910000000 1.0
C      1  0.5079370000000  0.5642190000000  0.4475090000000 1.0
C      1  0.4994820000000  0.5716200000000  0.5566230000000 1.0
C      1  0.4914340000000  0.4363200000000  0.5531770000000 1.0
C      1  0.5072090000000  0.4341970000000  0.4438350000000 1.0
C      1  0.4225760000000  0.5395600000000  0.4753020000000 1.0
C      1  0.5800650000000  0.5415910000000  0.5269990000000 1.0
C      1  0.4191820000000  0.4584230000000  0.5277430000000 1.0
C      1  0.5789100000000  0.4626640000000  0.4722400000000 1.0
C      1  0.4613940000000  0.4419790000000  0.5501420000000 1.0
C      1  0.5362170000000  0.4440120000000  0.4511030000000 1.0
C      1  0.4676280000000  0.5493540000000  0.4592850000000 1.0
C      1  0.5345550000000  0.5581370000000  0.5446750000000 1.0
C      1  0.4165530000000  0.4592580000000  0.4897750000000 1.0
C      1  0.5814670000000  0.4638160000000  0.5104430000000 1.0
C      1  0.4173650000000  0.5391800000000  0.5131660000000 1.0
C      1  0.5844310000000  0.5381020000000  0.4892680000000 1.0
C      1  0.5489490000000  0.5464140000000  0.4313380000000 1.0
C      1  0.4560870000000  0.5506780000000  0.5704190000000 1.0
C      1  0.5376130000000  0.4540670000000  0.5637140000000 1.0
C      1  0.4609890000000  0.4529760000000  0.4355130000000 1.0
C      1  0.5525530000000  0.5506890000000  0.5196390000000 1.0
C      1  0.4507970000000  0.5452870000000  0.4827890000000 1.0
C      1  0.5514620000000  0.4523160000000  0.4777000000000 1.0
C      1  0.4464410000000  0.4470930000000  0.5232140000000 1.0
C      1  0.4799210000000  0.5118540000000  0.5170300000000 1.0
C      1  0.5020900000000  0.5149950000000  0.4711150000000 1.0
C      1  0.4754460000000  0.4734390000000  0.4820920000000 1.0
C      1  0.5219410000000  0.4813890000000  0.5161390000000 1.0
C      1  0.4955750000000  0.5464200000000  0.4689670000000 1.0
C      1  0.4913110000000  0.5295800000000  0.5344320000000 1.0
C      1  0.4994570000000  0.4659170000000  0.5290060000000 1.0
C      1  0.5005840000000  0.4641270000000  0.4681010000000 1.0
C      1  0.5549960000000  0.4287230000000  0.4963770000000 1.0
C      1  0.4451020000000  0.4241630000000  0.5036230000000 1.0
C      1  0.5537450000000  0.5735950000000  0.4999660000000 1.0
C      1  0.4511900000000  0.5701300000000  0.4998520000000 1.0
C      1  0.5204950000000  0.4235200000000  0.5298560000000 1.0
C      1  0.4796490000000  0.4213690000000  0.4683820000000 1.0
C      1  0.5302160000000  0.5780260000000  0.4609190000000 1.0
C      1  0.4767630000000  0.5789330000000  0.5380350000000 1.0
C      1  0.4336010000000  0.4372480000000  0.4795130000000 1.0
C      1  0.5658380000000  0.4410990000000  0.5207570000000 1.0
C      1  0.4338540000000  0.5618680000000  0.5225040000000 1.0
C      1  0.5708550000000  0.5616480000000  0.4786260000000 1.0
C      1  0.4612020000000  0.5030740000000  0.4478110000000 1.0
C      1  0.5354430000000  0.5085060000000  0.5523460000000 1.0
C      1  0.4623140000000  0.4904620000000  0.5548870000000 1.0
C      1  0.5349990000000  0.4913710000000  0.4421840000000 1.0
C      1  0.4369550000000  0.4974090000000  0.5021350000000 1.0
C      1  0.5592240000000  0.5038300000000  0.4976000000000 1.0
END
