TITL C-3578205-846-622 1.65918772230071e-06 125000 -250.432811582403 0 0 42 (C1) n - 1
REM
REM in /home/bkarasulu/work/CARBON/AIRSS/Generating-Clusters/EDIP-Nigel-Params/with-SteepDescent/Higher-Symm/SD-CG/HFTN-CG
REM
REM
REM
REM
REM
REM ./C.cell (12c818d87b63d06a65506943cc24bca4)
REM
REM compiler GCC version 9.2.1 20190827 (Red Hat 9.2.1-1)
REM options -cpp -mtune=generic -march=x86-64 -g -O0 -fpre-include=/usr/include/finclude/math-vector-fortran.h
REM seed -224445093 -598563981 -740149552 37020016 -570283989 -321593188 -808107249 -1586408260 1382752788 -643143592 711314867 884358232 1820133413 -1177491797 1163687065 1502217161 869791312 95546016 -94218157 1522200981 -1078477538 1747411138 652936413 -7500586 1984335475 755353505 -1870264664 2116405395 -927472475 719341323 -692458296 1525798557 1622173844
REM
CELL 1.54180   50.00000   50.00000   50.00000   90.00000   90.00000   90.00000
LATT -1
SFAC C  
C      1  0.4738410000000  0.4919740000000  0.5451640000000 1.0
C      1  0.4722950000000  0.5379000000000  0.5267150000000 1.0
C      1  0.4771960000000  0.5217070000000  0.5495090000000 1.0
C      1  0.5032020000000  0.4382790000000  0.5377550000000 1.0
C      1  0.4997510000000  0.5701590000000  0.4933320000000 1.0
C      1  0.4552520000000  0.4434140000000  0.4833790000000 1.0
C      1  0.4600150000000  0.4790710000000  0.5206750000000 1.0
C      1  0.5268850000000  0.5101110000000  0.4469670000000 1.0
C      1  0.5629920000000  0.5106640000000  0.5106620000000 1.0
C      1  0.5260210000000  0.4598170000000  0.5009550000000 1.0
C      1  0.4479460000000  0.4633010000000  0.4645280000000 1.0
C      1  0.4886250000000  0.4463020000000  0.5597070000000 1.0
C      1  0.5120230000000  0.5335140000000  0.4813650000000 1.0
C      1  0.5062550000000  0.4923100000000  0.4366380000000 1.0
C      1  0.5013700000000  0.5285550000000  0.5615170000000 1.0
C      1  0.5263710000000  0.5253970000000  0.5488890000000 1.0
C      1  0.4740380000000  0.4572830000000  0.5007920000000 1.0
C      1  0.5059350000000  0.4684950000000  0.4547580000000 1.0
C      1  0.5565950000000  0.4900210000000  0.5284700000000 1.0
C      1  0.4682030000000  0.5344030000000  0.4768260000000 1.0
C      1  0.5327330000000  0.5382660000000  0.4491500000000 1.0
C      1  0.4984720000000  0.4925210000000  0.5125160000000 1.0
C      1  0.4828240000000  0.4813580000000  0.4830720000000 1.0
C      1  0.5483990000000  0.5425180000000  0.4729030000000 1.0
C      1  0.4691710000000  0.5002040000000  0.4368700000000 1.0
C      1  0.5486490000000  0.4654270000000  0.5169820000000 1.0
C      1  0.5530470000000  0.5171390000000  0.4854460000000 1.0
C      1  0.4606960000000  0.5264560000000  0.5035530000000 1.0
C      1  0.4559630000000  0.5152790000000  0.4578290000000 1.0
C      1  0.5016520000000  0.4458330000000  0.5105210000000 1.0
C      1  0.5126770000000  0.4780440000000  0.5386260000000 1.0
C      1  0.5040770000000  0.5229610000000  0.5109040000000 1.0
C      1  0.5372530000000  0.4986550000000  0.4706960000000 1.0
C      1  0.5254580000000  0.4732680000000  0.4757530000000 1.0
C      1  0.5170770000000  0.5627030000000  0.5139120000000 1.0
C      1  0.4483260000000  0.5000280000000  0.5040130000000 1.0
C      1  0.4839390000000  0.5583350000000  0.4728520000000 1.0
C      1  0.4921880000000  0.4739690000000  0.5612790000000 1.0
C      1  0.5329010000000  0.5431470000000  0.5268070000000 1.0
C      1  0.5350710000000  0.4967540000000  0.5472430000000 1.0
C      1  0.4458430000000  0.4927200000000  0.4754260000000 1.0
C      1  0.4687710000000  0.4717400000000  0.4450440000000 1.0
END
