TITL C-3578202-4305-648 -3.40759691739945e-06 125000 -717.777270577978 0 0 113 (C1) n - 1
REM
REM in /home/bkarasulu/work/CARBON/AIRSS/Generating-Clusters/EDIP-Nigel-Params/with-SteepDescent/Higher-Symm/SD-CG/HFTN-CG
REM
REM
REM
REM
REM
REM ./C.cell (12c818d87b63d06a65506943cc24bca4)
REM
REM compiler GCC version 9.2.1 20190827 (Red Hat 9.2.1-1)
REM options -cpp -mtune=generic -march=x86-64 -g -O0 -fpre-include=/usr/include/finclude/math-vector-fortran.h
REM seed -1226529356 1751594843 -1813607377 1472204181 4559341 -766746993 -284374537 222246264 1082395324 -524043287 772722461 1635073661 1642410736 339065642 1010092788 1732614179 -41379351 -650943352 -919081356 1654152455 1452092146 4180553 1878141177 1256937354 1121143134 -807480622 -2124708229 -2025264128 -1123345127 1455170749 -1121504676 1489474033 719602339
REM
CELL 1.54180   50.00000   50.00000   50.00000   90.00000   90.00000   90.00000
LATT -1
SFAC C  
C      1  0.5601710000000  0.5597880000000  0.5287900000000 1.0
C      1  0.4300550000000  0.5604430000000  0.4736870000000 1.0
C      1  0.4991090000000  0.5334050000000  0.5391020000000 1.0
C      1  0.5113350000000  0.5370310000000  0.4667660000000 1.0
C      1  0.4545690000000  0.5284600000000  0.4437080000000 1.0
C      1  0.5456260000000  0.5270290000000  0.5642430000000 1.0
C      1  0.5260070000000  0.4849750000000  0.5748600000000 1.0
C      1  0.4722790000000  0.4844060000000  0.4298850000000 1.0
C      1  0.5524540000000  0.4329570000000  0.4790590000000 1.0
C      1  0.4475840000000  0.4307680000000  0.5244220000000 1.0
C      1  0.4609360000000  0.5075460000000  0.5281600000000 1.0
C      1  0.5516680000000  0.5104990000000  0.4679640000000 1.0
C      1  0.5842000000000  0.4714680000000  0.4709270000000 1.0
C      1  0.4148660000000  0.4691470000000  0.5330640000000 1.0
C      1  0.4704050000000  0.4295890000000  0.4308670000000 1.0
C      1  0.5272590000000  0.4319810000000  0.5691050000000 1.0
C      1  0.4723760000000  0.5757140000000  0.4654830000000 1.0
C      1  0.5189710000000  0.5699960000000  0.5541520000000 1.0
C      1  0.4339380000000  0.5064160000000  0.4477090000000 1.0
C      1  0.5639920000000  0.5061850000000  0.5551920000000 1.0
C      1  0.5194030000000  0.4699610000000  0.5993080000000 1.0
C      1  0.4784020000000  0.4730250000000  0.4033740000000 1.0
C      1  0.5539410000000  0.4592050000000  0.5397210000000 1.0
C      1  0.4405260000000  0.4555710000000  0.4589970000000 1.0
C      1  0.4974600000000  0.4359130000000  0.4262060000000 1.0
C      1  0.5004670000000  0.4349920000000  0.5767900000000 1.0
C      1  0.4400320000000  0.5576610000000  0.5202330000000 1.0
C      1  0.5566740000000  0.5587480000000  0.4800250000000 1.0
C      1  0.4924420000000  0.4180160000000  0.5290140000000 1.0
C      1  0.5048630000000  0.4168710000000  0.4715830000000 1.0
C      1  0.5321600000000  0.4987580000000  0.5128670000000 1.0
C      1  0.4643830000000  0.4994810000000  0.4848130000000 1.0
C      1  0.5633190000000  0.4587720000000  0.4903680000000 1.0
C      1  0.4295710000000  0.4515620000000  0.5140290000000 1.0
C      1  0.5807650000000  0.5115730000000  0.5317200000000 1.0
C      1  0.4141740000000  0.5098450000000  0.4697750000000 1.0
C      1  0.5360800000000  0.4753490000000  0.4927130000000 1.0
C      1  0.4618310000000  0.4713760000000  0.4936580000000 1.0
C      1  0.5146410000000  0.5955440000000  0.4711870000000 1.0
C      1  0.4934960000000  0.5882080000000  0.5129310000000 1.0
C      1  0.5342460000000  0.4878790000000  0.4661370000000 1.0
C      1  0.4680770000000  0.4699670000000  0.5248190000000 1.0
C      1  0.4624120000000  0.5367040000000  0.5148950000000 1.0
C      1  0.5390220000000  0.5340880000000  0.4794840000000 1.0
C      1  0.5524400000000  0.5700420000000  0.4514670000000 1.0
C      1  0.4529910000000  0.5719720000000  0.5432040000000 1.0
C      1  0.5882530000000  0.4885860000000  0.5151670000000 1.0
C      1  0.4097880000000  0.4867040000000  0.4879250000000 1.0
C      1  0.4039300000000  0.4920550000000  0.5174220000000 1.0
C      1  0.5958550000000  0.4940980000000  0.4864640000000 1.0
C      1  0.5140490000000  0.4335820000000  0.4498800000000 1.0
C      1  0.4821990000000  0.4258240000000  0.5557490000000 1.0
C      1  0.5738950000000  0.4799410000000  0.4440500000000 1.0
C      1  0.4312490000000  0.4800950000000  0.5555710000000 1.0
C      1  0.5533650000000  0.4790380000000  0.5614870000000 1.0
C      1  0.4442890000000  0.4789320000000  0.4404410000000 1.0
C      1  0.5942200000000  0.5211850000000  0.4724910000000 1.0
C      1  0.4126330000000  0.5168680000000  0.5324050000000 1.0
C      1  0.4974570000000  0.4569660000000  0.5284100000000 1.0
C      1  0.4858310000000  0.4575410000000  0.4792560000000 1.0
C      1  0.4525910000000  0.5571430000000  0.4553710000000 1.0
C      1  0.5450550000000  0.5550330000000  0.5539920000000 1.0
C      1  0.4380220000000  0.5759790000000  0.4967160000000 1.0
C      1  0.5463640000000  0.5751490000000  0.5070180000000 1.0
C      1  0.4573070000000  0.4309490000000  0.4557820000000 1.0
C      1  0.5391280000000  0.4339690000000  0.5437520000000 1.0
C      1  0.4925550000000  0.5027620000000  0.4863990000000 1.0
C      1  0.5033230000000  0.4975760000000  0.5128180000000 1.0
C      1  0.5259720000000  0.5074740000000  0.4187720000000 1.0
C      1  0.4743930000000  0.5088780000000  0.5829930000000 1.0
C      1  0.4951010000000  0.5494170000000  0.5633830000000 1.0
C      1  0.5139870000000  0.5517130000000  0.4385720000000 1.0
C      1  0.4240710000000  0.5333990000000  0.4855170000000 1.0
C      1  0.5738500000000  0.5366800000000  0.5163830000000 1.0
C      1  0.5442430000000  0.5504280000000  0.4291280000000 1.0
C      1  0.4642190000000  0.5533940000000  0.5639700000000 1.0
C      1  0.5067910000000  0.4994620000000  0.4599570000000 1.0
C      1  0.4905790000000  0.5062160000000  0.5373170000000 1.0
C      1  0.5181480000000  0.5732070000000  0.5223760000000 1.0
C      1  0.4905010000000  0.5895340000000  0.4831900000000 1.0
C      1  0.5219160000000  0.4218180000000  0.5223480000000 1.0
C      1  0.4776400000000  0.4277940000000  0.4788280000000 1.0
C      1  0.5255710000000  0.5142260000000  0.5810850000000 1.0
C      1  0.4769170000000  0.5143940000000  0.4305980000000 1.0
C      1  0.5029080000000  0.4596110000000  0.4095450000000 1.0
C      1  0.4940540000000  0.4592680000000  0.5922310000000 1.0
C      1  0.4563710000000  0.5279600000000  0.4876020000000 1.0
C      1  0.5367830000000  0.5285400000000  0.5085620000000 1.0
C      1  0.4721190000000  0.5889190000000  0.5312840000000 1.0
C      1  0.5281040000000  0.5860940000000  0.4496080000000 1.0
C      1  0.4547880000000  0.4355300000000  0.5533820000000 1.0
C      1  0.5422420000000  0.4400590000000  0.4519860000000 1.0
C      1  0.5013280000000  0.4811250000000  0.5541210000000 1.0
C      1  0.4940210000000  0.4730130000000  0.4496210000000 1.0
C      1  0.5843140000000  0.5442170000000  0.4884350000000 1.0
C      1  0.4148210000000  0.5397930000000  0.5149300000000 1.0
C      1  0.4704300000000  0.4200640000000  0.5082090000000 1.0
C      1  0.5271890000000  0.4222500000000  0.4919910000000 1.0
C      1  0.5454720000000  0.4688050000000  0.4441390000000 1.0
C      1  0.4565890000000  0.4654850000000  0.5547870000000 1.0
C      1  0.5034190000000  0.5254810000000  0.4250800000000 1.0
C      1  0.4990520000000  0.5268680000000  0.5832450000000 1.0
C      1  0.4902320000000  0.5462260000000  0.4898250000000 1.0
C      1  0.5107640000000  0.5449460000000  0.5150590000000 1.0
C      1  0.4785360000000  0.4783360000000  0.5739870000000 1.0
C      1  0.5235960000000  0.4777880000000  0.4239050000000 1.0
C      1  0.5522380000000  0.5216950000000  0.4249970000000 1.0
C      1  0.4519420000000  0.5254820000000  0.5707750000000 1.0
C      1  0.4379150000000  0.5088640000000  0.5485230000000 1.0
C      1  0.5717120000000  0.5101580000000  0.4463320000000 1.0
C      1  0.5742400000000  0.4618110000000  0.5185500000000 1.0
C      1  0.4250330000000  0.4608080000000  0.4851840000000 1.0
C      1  0.5106740000000  0.4565480000000  0.4986470000000 1.0
END
