TITL C-3577091-527-587 -1.71581717659626e-06 125000 -700.248256724564 0 0 111 (C1) n - 1
REM
REM in /home/bkarasulu/work/CARBON/AIRSS/Generating-Clusters/EDIP-Nigel-Params/with-SteepDescent/Higher-Symm/SD-CG/HFTN-CG
REM
REM
REM
REM
REM
REM ./C.cell (12c818d87b63d06a65506943cc24bca4)
REM
REM compiler GCC version 9.2.1 20190827 (Red Hat 9.2.1-1)
REM options -cpp -mtune=generic -march=x86-64 -g -O0 -fpre-include=/usr/include/finclude/math-vector-fortran.h
REM seed 128404939 -631060567 -2060625380 1854088788 -1769025193 -582324931 -1731066259 531160741 1662201637 884356090 -1722559608 -2115269913 -1615442094 572088435 1521090455 1312237639 -1917786978 2117550467 -787718301 -813301126 1310001455 502772055 969252207 1817969371 -1492554353 -743218357 -1123161362 -1585322000 -1801934846 405903708 1233162710 1907321578 1917197907
REM
CELL 1.54180   50.00000   50.00000   50.00000   90.00000   90.00000   90.00000
LATT -1
SFAC C  
C      1  0.5442740000000  0.4457870000000  0.5568060000000 1.0
C      1  0.4336800000000  0.5531740000000  0.5148690000000 1.0
C      1  0.4132170000000  0.4780950000000  0.4756450000000 1.0
C      1  0.4965030000000  0.4761860000000  0.5002070000000 1.0
C      1  0.5207190000000  0.5257290000000  0.5351900000000 1.0
C      1  0.4667090000000  0.4794870000000  0.4224630000000 1.0
C      1  0.5449950000000  0.4606150000000  0.5069290000000 1.0
C      1  0.5507160000000  0.5292550000000  0.5760580000000 1.0
C      1  0.5151720000000  0.5845510000000  0.5518470000000 1.0
C      1  0.4698170000000  0.5798280000000  0.4895920000000 1.0
C      1  0.4785570000000  0.5899760000000  0.5162250000000 1.0
C      1  0.5216690000000  0.5320560000000  0.5042920000000 1.0
C      1  0.5418460000000  0.4908860000000  0.5166690000000 1.0
C      1  0.4205610000000  0.4981920000000  0.5225100000000 1.0
C      1  0.5895710000000  0.5096760000000  0.4643820000000 1.0
C      1  0.5178340000000  0.5631300000000  0.4314210000000 1.0
C      1  0.4269760000000  0.5238160000000  0.5067890000000 1.0
C      1  0.4386130000000  0.4944170000000  0.5450140000000 1.0
C      1  0.5444010000000  0.4786550000000  0.4619520000000 1.0
C      1  0.4444030000000  0.4667160000000  0.5539340000000 1.0
C      1  0.4524020000000  0.5187950000000  0.4343330000000 1.0
C      1  0.4848080000000  0.5535470000000  0.5748680000000 1.0
C      1  0.4925800000000  0.4276410000000  0.5379720000000 1.0
C      1  0.5700970000000  0.4605490000000  0.5539480000000 1.0
C      1  0.4286040000000  0.5345030000000  0.4456500000000 1.0
C      1  0.4846150000000  0.5883860000000  0.4632610000000 1.0
C      1  0.5943570000000  0.4813650000000  0.4589310000000 1.0
C      1  0.5823430000000  0.4516930000000  0.5283130000000 1.0
C      1  0.5405030000000  0.4920940000000  0.4175670000000 1.0
C      1  0.4666090000000  0.5425150000000  0.5530320000000 1.0
C      1  0.5109910000000  0.5050230000000  0.4874300000000 1.0
C      1  0.4716630000000  0.5550690000000  0.4530580000000 1.0
C      1  0.4544310000000  0.5147470000000  0.5615230000000 1.0
C      1  0.4315190000000  0.4242950000000  0.4941700000000 1.0
C      1  0.4950520000000  0.5236780000000  0.4219250000000 1.0
C      1  0.5713450000000  0.5575360000000  0.5166890000000 1.0
C      1  0.4942010000000  0.4482080000000  0.5595330000000 1.0
C      1  0.4563820000000  0.4520410000000  0.4606170000000 1.0
C      1  0.5598250000000  0.5381670000000  0.4988940000000 1.0
C      1  0.4934620000000  0.5510390000000  0.5015870000000 1.0
C      1  0.4916160000000  0.4949960000000  0.4141040000000 1.0
C      1  0.5399010000000  0.5023920000000  0.4785170000000 1.0
C      1  0.4735260000000  0.4703550000000  0.5588270000000 1.0
C      1  0.5179240000000  0.4071520000000  0.4961290000000 1.0
C      1  0.4724950000000  0.5107130000000  0.5213370000000 1.0
C      1  0.5274720000000  0.5787560000000  0.5065930000000 1.0
C      1  0.5440300000000  0.4308730000000  0.4658030000000 1.0
C      1  0.4487980000000  0.4245110000000  0.4703310000000 1.0
C      1  0.5180420000000  0.4955270000000  0.5372760000000 1.0
C      1  0.4701730000000  0.5007260000000  0.4540730000000 1.0
C      1  0.5516920000000  0.4997270000000  0.5792400000000 1.0
C      1  0.5107940000000  0.5756020000000  0.4564160000000 1.0
C      1  0.5269930000000  0.5678660000000  0.4794190000000 1.0
C      1  0.4993810000000  0.4176280000000  0.4760620000000 1.0
C      1  0.5301870000000  0.5415310000000  0.5909770000000 1.0
C      1  0.4747310000000  0.4542570000000  0.4361770000000 1.0
C      1  0.4609810000000  0.4017810000000  0.5066310000000 1.0
C      1  0.5690750000000  0.5168900000000  0.4440110000000 1.0
C      1  0.5165910000000  0.4536160000000  0.5049700000000 1.0
C      1  0.4939260000000  0.5163950000000  0.4656130000000 1.0
C      1  0.4702400000000  0.4686390000000  0.4854270000000 1.0
C      1  0.4712940000000  0.4094190000000  0.4806430000000 1.0
C      1  0.5411680000000  0.5716500000000  0.5517680000000 1.0
C      1  0.4961540000000  0.5789080000000  0.5715350000000 1.0
C      1  0.4562700000000  0.5161200000000  0.4962620000000 1.0
C      1  0.5163690000000  0.4271090000000  0.5193380000000 1.0
C      1  0.4855760000000  0.5354360000000  0.5294710000000 1.0
C      1  0.4548330000000  0.4927620000000  0.4780360000000 1.0
C      1  0.4415100000000  0.5670910000000  0.4897660000000 1.0
C      1  0.5040460000000  0.4544240000000  0.4384430000000 1.0
C      1  0.5494780000000  0.5727330000000  0.5246470000000 1.0
C      1  0.5795820000000  0.5161680000000  0.4917210000000 1.0
C      1  0.4105320000000  0.5102540000000  0.4416720000000 1.0
C      1  0.4295070000000  0.4664630000000  0.4531170000000 1.0
C      1  0.4302510000000  0.5540400000000  0.4669080000000 1.0
C      1  0.5492920000000  0.5344840000000  0.5460660000000 1.0
C      1  0.5437480000000  0.4087090000000  0.4838190000000 1.0
C      1  0.5706430000000  0.4897980000000  0.5587550000000 1.0
C      1  0.4353000000000  0.4429870000000  0.5397200000000 1.0
C      1  0.5865310000000  0.4617680000000  0.4791000000000 1.0
C      1  0.5615500000000  0.4870980000000  0.4387160000000 1.0
C      1  0.5156020000000  0.4328780000000  0.4557930000000 1.0
C      1  0.5060230000000  0.5861200000000  0.5244170000000 1.0
C      1  0.4749860000000  0.4965550000000  0.5732140000000 1.0
C      1  0.4715840000000  0.5398450000000  0.4271850000000 1.0
C      1  0.5384410000000  0.5200580000000  0.4118170000000 1.0
C      1  0.5142790000000  0.4781950000000  0.4221920000000 1.0
C      1  0.5180530000000  0.5392220000000  0.4158460000000 1.0
C      1  0.5882490000000  0.5005400000000  0.5142040000000 1.0
C      1  0.5650040000000  0.5048230000000  0.5332360000000 1.0
C      1  0.4675810000000  0.4135240000000  0.5321800000000 1.0
C      1  0.5493890000000  0.5506010000000  0.4744970000000 1.0
C      1  0.4767640000000  0.5374020000000  0.4784870000000 1.0
C      1  0.4474890000000  0.5622840000000  0.5398570000000 1.0
C      1  0.4589260000000  0.5877440000000  0.5361080000000 1.0
C      1  0.4456730000000  0.4183290000000  0.5488890000000 1.0
C      1  0.5448640000000  0.5263840000000  0.4587620000000 1.0
C      1  0.5424240000000  0.4263060000000  0.5347290000000 1.0
C      1  0.5239690000000  0.4880190000000  0.5753460000000 1.0
C      1  0.4896420000000  0.4869010000000  0.5274970000000 1.0
C      1  0.4294590000000  0.4870640000000  0.4312500000000 1.0
C      1  0.5556930000000  0.4569190000000  0.4778510000000 1.0
C      1  0.5039290000000  0.5340480000000  0.5850700000000 1.0
C      1  0.4281340000000  0.4471190000000  0.5120770000000 1.0
C      1  0.5010390000000  0.5069590000000  0.5765600000000 1.0
C      1  0.5204250000000  0.4605320000000  0.5636820000000 1.0
C      1  0.4004940000000  0.5036070000000  0.4684340000000 1.0
C      1  0.5657450000000  0.4304950000000  0.5182190000000 1.0
C      1  0.4184500000000  0.4737820000000  0.5045150000000 1.0
C      1  0.4062270000000  0.5241380000000  0.4867190000000 1.0
C      1  0.5932390000000  0.4711390000000  0.5078370000000 1.0
END
