TITL C-3577079-311-206 -2.21032727783571e-07 125000 -244.716629333522 0 0 40 (C1) n - 1
REM
REM in /home/bkarasulu/work/CARBON/AIRSS/Generating-Clusters/EDIP-Nigel-Params/with-SteepDescent/Higher-Symm/SD-CG/HFTN-CG
REM
REM
REM
REM
REM
REM ./C.cell (12c818d87b63d06a65506943cc24bca4)
REM
REM compiler GCC version 9.2.1 20190827 (Red Hat 9.2.1-1)
REM options -cpp -mtune=generic -march=x86-64 -g -O0 -fpre-include=/usr/include/finclude/math-vector-fortran.h
REM seed 34989627 -1564192833 -1021827689 -1135322536 1982270669 -706354313 -473420499 -286512888 1391514437 -343927943 -378346672 1317045392 -515654394 1300106644 1638026606 1600176042 -920855028 874654770 -1923462822 1147164585 1567850936 1352385879 -1908403829 182052995 -1865350988 2018896485 -1001563702 2092499740 -533182871 -218150691 -1377459172 569116364 1902985257
REM
CELL 1.54180   50.00000   50.00000   50.00000   90.00000   90.00000   90.00000
LATT -1
SFAC C  
C      1  0.5159130000000  0.5354090000000  0.5519140000000 1.0
C      1  0.5310480000000  0.4785320000000  0.5490460000000 1.0
C      1  0.4846600000000  0.4660920000000  0.5500790000000 1.0
C      1  0.4687980000000  0.5228990000000  0.5521700000000 1.0
C      1  0.5218170000000  0.4699180000000  0.4469840000000 1.0
C      1  0.5346200000000  0.5168020000000  0.4466830000000 1.0
C      1  0.4776280000000  0.5321270000000  0.4494380000000 1.0
C      1  0.4650100000000  0.4856540000000  0.4485370000000 1.0
C      1  0.4899280000000  0.4494900000000  0.5065340000000 1.0
C      1  0.4575750000000  0.5121410000000  0.5087980000000 1.0
C      1  0.5097590000000  0.5474180000000  0.5083110000000 1.0
C      1  0.5512530000000  0.4890280000000  0.5084810000000 1.0
C      1  0.4882660000000  0.5521300000000  0.4901600000000 1.0
C      1  0.4531330000000  0.4904880000000  0.4911350000000 1.0
C      1  0.5113470000000  0.4579920000000  0.4901020000000 1.0
C      1  0.5462280000000  0.5105060000000  0.4903840000000 1.0
C      1  0.4707900000000  0.5461660000000  0.5341200000000 1.0
C      1  0.5384990000000  0.5265580000000  0.5349190000000 1.0
C      1  0.5303930000000  0.4533010000000  0.5326700000000 1.0
C      1  0.4601320000000  0.4731400000000  0.5364110000000 1.0
C      1  0.4720680000000  0.4616860000000  0.4631110000000 1.0
C      1  0.5452130000000  0.4716410000000  0.4647600000000 1.0
C      1  0.5257580000000  0.5394100000000  0.4636560000000 1.0
C      1  0.4523990000000  0.5314080000000  0.4658870000000 1.0
C      1  0.5517470000000  0.5002450000000  0.4641460000000 1.0
C      1  0.5011680000000  0.4565000000000  0.4636530000000 1.0
C      1  0.4455670000000  0.5012180000000  0.4647000000000 1.0
C      1  0.4978890000000  0.5491040000000  0.4628310000000 1.0
C      1  0.5482180000000  0.4987060000000  0.5357940000000 1.0
C      1  0.4994350000000  0.5527310000000  0.5346160000000 1.0
C      1  0.4550890000000  0.5023480000000  0.5354970000000 1.0
C      1  0.5002320000000  0.4461610000000  0.5340930000000 1.0
C      1  0.4601700000000  0.5407320000000  0.4977000000000 1.0
C      1  0.5398140000000  0.4608080000000  0.5012640000000 1.0
C      1  0.5384470000000  0.5392850000000  0.4992980000000 1.0
C      1  0.4614950000000  0.4613390000000  0.5001390000000 1.0
C      1  0.5131530000000  0.4974630000000  0.4383050000000 1.0
C      1  0.4965290000000  0.5139630000000  0.5602720000000 1.0
C      1  0.5036770000000  0.4877140000000  0.5500990000000 1.0
C      1  0.4867930000000  0.5047240000000  0.4481480000000 1.0
END
