TITL C-3578202-4305-465 -2.04037885028381e-06 125000 -357.953977178724 0 0 59 (C1) n - 1
REM
REM in /home/bkarasulu/work/CARBON/AIRSS/Generating-Clusters/EDIP-Nigel-Params/with-SteepDescent/Higher-Symm/SD-CG/HFTN-CG
REM
REM
REM
REM
REM
REM ./C.cell (12c818d87b63d06a65506943cc24bca4)
REM
REM compiler GCC version 9.2.1 20190827 (Red Hat 9.2.1-1)
REM options -cpp -mtune=generic -march=x86-64 -g -O0 -fpre-include=/usr/include/finclude/math-vector-fortran.h
REM seed -505152794 -1229796758 -1911675322 2022751807 166841910 -256118543 396765502 -1694918029 -1347314377 120612404 1541532491 235168267 -1204908925 1895866073 5696197 1491280429 -243043569 429377220 1271670953 -757415497 508792043 -2010993151 -1415886778 -2134945608 -1499270026 -1731841119 246167968 1832103780 976247905 -1207215647 1113178852 159387949 1751877982
REM
CELL 1.54180   50.00000   50.00000   50.00000   90.00000   90.00000   90.00000
LATT -1
SFAC C  
C      1  0.4932280000000  0.4554160000000  0.4631740000000 1.0
C      1  0.4699600000000  0.5624390000000  0.5407730000000 1.0
C      1  0.4891000000000  0.4666630000000  0.5116330000000 1.0
C      1  0.4703230000000  0.5235880000000  0.4268620000000 1.0
C      1  0.4684760000000  0.4949290000000  0.4201870000000 1.0
C      1  0.4952580000000  0.4206580000000  0.4970990000000 1.0
C      1  0.5367260000000  0.4435490000000  0.4834310000000 1.0
C      1  0.5080260000000  0.5531400000000  0.4734370000000 1.0
C      1  0.5529600000000  0.5043070000000  0.5257730000000 1.0
C      1  0.4479270000000  0.5593630000000  0.5220440000000 1.0
C      1  0.5478540000000  0.4716940000000  0.4419480000000 1.0
C      1  0.4935780000000  0.4796880000000  0.4833180000000 1.0
C      1  0.5387010000000  0.4943300000000  0.5682000000000 1.0
C      1  0.5318190000000  0.5449560000000  0.5479170000000 1.0
C      1  0.4635560000000  0.5580370000000  0.4972040000000 1.0
C      1  0.4947020000000  0.4836540000000  0.4168460000000 1.0
C      1  0.5672110000000  0.4622090000000  0.5141140000000 1.0
C      1  0.5180120000000  0.4655350000000  0.5238570000000 1.0
C      1  0.5141030000000  0.4584930000000  0.5517920000000 1.0
C      1  0.4566480000000  0.5368370000000  0.4788760000000 1.0
C      1  0.4767960000000  0.4398150000000  0.5065440000000 1.0
C      1  0.4282410000000  0.5004320000000  0.4615000000000 1.0
C      1  0.5114800000000  0.4835630000000  0.5639090000000 1.0
C      1  0.4562880000000  0.4461380000000  0.4859740000000 1.0
C      1  0.4808410000000  0.5206170000000  0.5695270000000 1.0
C      1  0.4742550000000  0.5028960000000  0.4744670000000 1.0
C      1  0.5108150000000  0.5020800000000  0.4311040000000 1.0
C      1  0.5394680000000  0.5060350000000  0.4732290000000 1.0
C      1  0.5509910000000  0.5237110000000  0.5486290000000 1.0
C      1  0.5099050000000  0.5480240000000  0.4463700000000 1.0
C      1  0.4297500000000  0.5131420000000  0.5108650000000 1.0
C      1  0.5152150000000  0.5027090000000  0.4911330000000 1.0
C      1  0.5094060000000  0.4342560000000  0.4764440000000 1.0
C      1  0.4466430000000  0.4885110000000  0.5141920000000 1.0
C      1  0.4308220000000  0.5226560000000  0.4818570000000 1.0
C      1  0.5365950000000  0.4973550000000  0.4439610000000 1.0
C      1  0.5517710000000  0.4643160000000  0.4690830000000 1.0
C      1  0.4345500000000  0.5352080000000  0.5276620000000 1.0
C      1  0.5582550000000  0.4742460000000  0.5633310000000 1.0
C      1  0.4406330000000  0.4703830000000  0.4916780000000 1.0
C      1  0.5694040000000  0.4790730000000  0.4884280000000 1.0
C      1  0.5528430000000  0.5319020000000  0.4820000000000 1.0
C      1  0.5191110000000  0.5503000000000  0.5222830000000 1.0
C      1  0.4670390000000  0.4445880000000  0.4595990000000 1.0
C      1  0.4725130000000  0.4850840000000  0.5295920000000 1.0
C      1  0.4191550000000  0.4769270000000  0.4743450000000 1.0
C      1  0.4984620000000  0.5277600000000  0.4314780000000 1.0
C      1  0.4922160000000  0.5612830000000  0.5212870000000 1.0
C      1  0.4664040000000  0.5412210000000  0.5584690000000 1.0
C      1  0.5310240000000  0.5501230000000  0.4935980000000 1.0
C      1  0.5407170000000  0.4474380000000  0.5122750000000 1.0
C      1  0.4966660000000  0.5302580000000  0.4904030000000 1.0
C      1  0.5675260000000  0.4810820000000  0.5373490000000 1.0
C      1  0.4565840000000  0.4967020000000  0.4506200000000 1.0
C      1  0.4883630000000  0.4983050000000  0.5524540000000 1.0
C      1  0.5169310000000  0.5465040000000  0.5715570000000 1.0
C      1  0.5681740000000  0.5101830000000  0.4992250000000 1.0
C      1  0.5006850000000  0.5307400000000  0.5866510000000 1.0
C      1  0.5252930000000  0.4949540000000  0.5184400000000 1.0
END
