TITL C-3578195-8548-691 -8.73752451605269e-07 125000 -191.899711868143 0 0 32 (C1) n - 1
REM
REM in /home/bkarasulu/work/CARBON/AIRSS/Generating-Clusters/EDIP-Nigel-Params/with-SteepDescent/Higher-Symm/SD-CG/HFTN-CG
REM
REM
REM
REM
REM
REM ./C.cell (12c818d87b63d06a65506943cc24bca4)
REM
REM compiler GCC version 9.2.1 20190827 (Red Hat 9.2.1-1)
REM options -cpp -mtune=generic -march=x86-64 -g -O0 -fpre-include=/usr/include/finclude/math-vector-fortran.h
REM seed -409011461 1391667637 -332764439 -1881316499 -217966098 -1457932153 243412959 -337466491 -1145712869 -76889524 257850670 27541523 -561423503 868065046 -1900520341 -68461464 504873308 1005984613 609814832 -1339690809 -1411492173 -245055822 1737455355 -143274744 -472712672 329652348 -196349619 -268251972 -1145611770 -1301518185 -853344580 -841108006 -306124713
REM
CELL 1.54180   50.00000   50.00000   50.00000   90.00000   90.00000   90.00000
LATT -1
SFAC C  
C      1  0.5382120000000  0.4689180000000  0.5218010000000 1.0
C      1  0.4770730000000  0.5181390000000  0.4467210000000 1.0
C      1  0.4592510000000  0.5047450000000  0.5282780000000 1.0
C      1  0.4817770000000  0.4584900000000  0.5309220000000 1.0
C      1  0.4519740000000  0.4956310000000  0.4823630000000 1.0
C      1  0.4950360000000  0.4750450000000  0.5497810000000 1.0
C      1  0.4624710000000  0.5440030000000  0.4717390000000 1.0
C      1  0.4541760000000  0.4567930000000  0.5359480000000 1.0
C      1  0.4986730000000  0.5030880000000  0.5482330000000 1.0
C      1  0.5243420000000  0.5386190000000  0.5186820000000 1.0
C      1  0.4799090000000  0.5438710000000  0.4946100000000 1.0
C      1  0.4910350000000  0.4636990000000  0.4566520000000 1.0
C      1  0.4741890000000  0.4979200000000  0.5026300000000 1.0
C      1  0.4747570000000  0.5176230000000  0.5478690000000 1.0
C      1  0.5553290000000  0.4916250000000  0.4716760000000 1.0
C      1  0.4884000000000  0.4697060000000  0.5035750000000 1.0
C      1  0.5107680000000  0.4839710000000  0.4554420000000 1.0
C      1  0.4492570000000  0.4686630000000  0.4740630000000 1.0
C      1  0.5060740000000  0.5539390000000  0.5019760000000 1.0
C      1  0.5184520000000  0.5114010000000  0.5287090000000 1.0
C      1  0.4749440000000  0.4579090000000  0.4787340000000 1.0
C      1  0.4518320000000  0.5179140000000  0.4617870000000 1.0
C      1  0.5316020000000  0.4772120000000  0.4745720000000 1.0
C      1  0.5596750000000  0.5392530000000  0.4831680000000 1.0
C      1  0.5194680000000  0.4713300000000  0.5005560000000 1.0
C      1  0.5426950000000  0.4957130000000  0.5294210000000 1.0
C      1  0.5637620000000  0.5115790000000  0.5173200000000 1.0
C      1  0.5706300000000  0.5130070000000  0.4798600000000 1.0
C      1  0.5530670000000  0.5383770000000  0.5109900000000 1.0
C      1  0.4448950000000  0.4822970000000  0.5371030000000 1.0
C      1  0.4956790000000  0.5178340000000  0.4925420000000 1.0
C      1  0.5005960000000  0.5116860000000  0.4622760000000 1.0
END
