TITL C-3578208-4450-328 -9.44001440389938e-07 125000 -824.988346389814 0 0 134 (Ci) n - 1
REM
REM in /home/bkarasulu/work/CARBON/AIRSS/Generating-Clusters/EDIP-Nigel-Params/with-SteepDescent/Higher-Symm/SD-CG/HFTN-CG
REM
REM
REM
REM
REM
REM ./C.cell (12c818d87b63d06a65506943cc24bca4)
REM
REM compiler GCC version 9.2.1 20190827 (Red Hat 9.2.1-1)
REM options -cpp -mtune=generic -march=x86-64 -g -O0 -fpre-include=/usr/include/finclude/math-vector-fortran.h
REM seed -2054290398 754194278 -1149942159 -58987917 931049965 -53859214 -1631027238 -1394459897 1543238472 -215718759 1977032167 -195401734 749477817 -648812265 -788500291 1135703925 -2079705654 -239152931 1825750786 -1641172818 -380354536 -1754973038 1960184370 -453538479 -1727710311 2079797336 1339493687 1206432204 2131804553 1860378815 1261005942 -90093848 -1945574663
REM
CELL 1.54180   50.00000   50.00000   50.00000   90.00000   90.00000   90.00000
LATT -1
SFAC C  
C      1  0.5705860000000  0.5578140000000  0.5157690000000 1.0
C      1  0.4294140000000  0.4421860000000  0.4842310000000 1.0
C      1  0.4657140000000  0.5233680000000  0.4119640000000 1.0
C      1  0.5342860000000  0.4766320000000  0.5880360000000 1.0
C      1  0.4692170000000  0.5361830000000  0.4623220000000 1.0
C      1  0.5307830000000  0.4638170000000  0.5376780000000 1.0
C      1  0.5053260000000  0.4665140000000  0.5210320000000 1.0
C      1  0.4946740000000  0.5334860000000  0.4789680000000 1.0
C      1  0.5603990000000  0.5376770000000  0.5840490000000 1.0
C      1  0.4396010000000  0.4623230000000  0.4159510000000 1.0
C      1  0.4751690000000  0.4959400000000  0.3994440000000 1.0
C      1  0.5248310000000  0.5040600000000  0.6005560000000 1.0
C      1  0.5223440000000  0.4696770000000  0.4125910000000 1.0
C      1  0.4776560000000  0.5303230000000  0.5874090000000 1.0
C      1  0.4256170000000  0.4568500000000  0.5556960000000 1.0
C      1  0.5743830000000  0.5431500000000  0.4443040000000 1.0
C      1  0.5552180000000  0.4260830000000  0.4802920000000 1.0
C      1  0.4447820000000  0.5739170000000  0.5197080000000 1.0
C      1  0.4857960000000  0.4494880000000  0.4718850000000 1.0
C      1  0.5142040000000  0.5505120000000  0.5281150000000 1.0
C      1  0.5698220000000  0.4977030000000  0.4938150000000 1.0
C      1  0.4301780000000  0.5022970000000  0.5061850000000 1.0
C      1  0.4749560000000  0.5313530000000  0.5382380000000 1.0
C      1  0.5250440000000  0.4686470000000  0.4617620000000 1.0
C      1  0.5516870000000  0.4539050000000  0.5194930000000 1.0
C      1  0.4483130000000  0.5460950000000  0.4805070000000 1.0
C      1  0.5727250000000  0.4392480000000  0.4419580000000 1.0
C      1  0.4272750000000  0.5607520000000  0.5580420000000 1.0
C      1  0.5097550000000  0.4438540000000  0.4189620000000 1.0
C      1  0.4902450000000  0.5561460000000  0.5810380000000 1.0
C      1  0.5232720000000  0.5926500000000  0.5535300000000 1.0
C      1  0.4767280000000  0.4073500000000  0.4464700000000 1.0
C      1  0.4671900000000  0.4331850000000  0.5454030000000 1.0
C      1  0.5328100000000  0.5668150000000  0.4545970000000 1.0
C      1  0.4902560000000  0.5849370000000  0.4695690000000 1.0
C      1  0.5097440000000  0.4150630000000  0.5304310000000 1.0
C      1  0.5653560000000  0.4944390000000  0.5577680000000 1.0
C      1  0.4346440000000  0.5055610000000  0.4422320000000 1.0
C      1  0.5705480000000  0.5123700000000  0.5807680000000 1.0
C      1  0.4294520000000  0.4876300000000  0.4192320000000 1.0
C      1  0.5587450000000  0.4515880000000  0.5778060000000 1.0
C      1  0.4412550000000  0.5484120000000  0.4221940000000 1.0
C      1  0.4579990000000  0.4727500000000  0.3981920000000 1.0
C      1  0.5420010000000  0.5272500000000  0.6018080000000 1.0
C      1  0.5317690000000  0.5756430000000  0.4916130000000 1.0
C      1  0.4682310000000  0.4243570000000  0.5083870000000 1.0
C      1  0.4601220000000  0.5694990000000  0.4346010000000 1.0
C      1  0.5398780000000  0.4305010000000  0.5653990000000 1.0
C      1  0.5807020000000  0.5609640000000  0.4657440000000 1.0
C      1  0.4192980000000  0.4390360000000  0.5342560000000 1.0
C      1  0.6102490000000  0.5209240000000  0.5070060000000 1.0
C      1  0.3897510000000  0.4790760000000  0.4929940000000 1.0
C      1  0.5034630000000  0.5630840000000  0.4546220000000 1.0
C      1  0.4965370000000  0.4369160000000  0.5453780000000 1.0
C      1  0.4190530000000  0.5587040000000  0.5206980000000 1.0
C      1  0.5809470000000  0.4412960000000  0.4793020000000 1.0
C      1  0.5313910000000  0.5292470000000  0.5152800000000 1.0
C      1  0.4686090000000  0.4707530000000  0.4847200000000 1.0
C      1  0.4546170000000  0.4912640000000  0.5229610000000 1.0
C      1  0.5453830000000  0.5087360000000  0.4770390000000 1.0
C      1  0.4652770000000  0.4287650000000  0.4610190000000 1.0
C      1  0.5347230000000  0.5712350000000  0.5389810000000 1.0
C      1  0.4953940000000  0.4119850000000  0.5054900000000 1.0
C      1  0.5046060000000  0.5880150000000  0.4945100000000 1.0
C      1  0.5220630000000  0.4911310000000  0.4805700000000 1.0
C      1  0.4779370000000  0.5088690000000  0.5194300000000 1.0
C      1  0.4956860000000  0.5065890000000  0.5944100000000 1.0
C      1  0.5043140000000  0.4934110000000  0.4055900000000 1.0
C      1  0.4531600000000  0.5684360000000  0.5472080000000 1.0
C      1  0.5468400000000  0.4315640000000  0.4527920000000 1.0
C      1  0.4573280000000  0.5235670000000  0.5653480000000 1.0
C      1  0.5426720000000  0.4764330000000  0.4346520000000 1.0
C      1  0.5875880000000  0.4839020000000  0.4527360000000 1.0
C      1  0.4124120000000  0.5160980000000  0.5472640000000 1.0
C      1  0.4498410000000  0.4209400000000  0.4845410000000 1.0
C      1  0.5501590000000  0.5790600000000  0.5154590000000 1.0
C      1  0.4136540000000  0.5282580000000  0.5179900000000 1.0
C      1  0.5863460000000  0.4717420000000  0.4820100000000 1.0
C      1  0.5879080000000  0.5211720000000  0.4896240000000 1.0
C      1  0.4120920000000  0.4788280000000  0.5103760000000 1.0
C      1  0.4420650000000  0.4658290000000  0.4696120000000 1.0
C      1  0.5579350000000  0.5341710000000  0.5303880000000 1.0
C      1  0.4926530000000  0.5971230000000  0.5182220000000 1.0
C      1  0.5073470000000  0.4028770000000  0.4817780000000 1.0
C      1  0.4000030000000  0.5248130000000  0.4828190000000 1.0
C      1  0.5999970000000  0.4751870000000  0.5171810000000 1.0
C      1  0.5373090000000  0.4340380000000  0.5026780000000 1.0
C      1  0.4626910000000  0.5659620000000  0.4973220000000 1.0
C      1  0.4934530000000  0.5008890000000  0.4791250000000 1.0
C      1  0.5065470000000  0.4991110000000  0.5208750000000 1.0
C      1  0.5024130000000  0.5350640000000  0.5516370000000 1.0
C      1  0.4975870000000  0.4649360000000  0.4483630000000 1.0
C      1  0.4641770000000  0.5137330000000  0.4423270000000 1.0
C      1  0.5358230000000  0.4862670000000  0.5576730000000 1.0
C      1  0.5327730000000  0.5257520000000  0.4299470000000 1.0
C      1  0.4672270000000  0.4742480000000  0.5700530000000 1.0
C      1  0.4498830000000  0.4953690000000  0.5666850000000 1.0
C      1  0.5501170000000  0.5046310000000  0.4333150000000 1.0
C      1  0.4790340000000  0.5739830000000  0.5602110000000 1.0
C      1  0.5209660000000  0.4260170000000  0.4397890000000 1.0
C      1  0.4902210000000  0.5396240000000  0.4100020000000 1.0
C      1  0.5097790000000  0.4603760000000  0.5899980000000 1.0
C      1  0.5111160000000  0.4368850000000  0.5719640000000 1.0
C      1  0.4888840000000  0.5631150000000  0.4280360000000 1.0
C      1  0.4603490000000  0.5842150000000  0.4629340000000 1.0
C      1  0.5396510000000  0.4157850000000  0.5370660000000 1.0
C      1  0.4081050000000  0.5441830000000  0.4615870000000 1.0
C      1  0.5918950000000  0.4558170000000  0.5384130000000 1.0
C      1  0.5035570000000  0.4077370000000  0.4544320000000 1.0
C      1  0.4964430000000  0.5922630000000  0.5455680000000 1.0
C      1  0.4294170000000  0.4545950000000  0.5115890000000 1.0
C      1  0.5705830000000  0.5454050000000  0.4884110000000 1.0
C      1  0.4618730000000  0.4626490000000  0.5138880000000 1.0
C      1  0.5381270000000  0.5373510000000  0.4861120000000 1.0
C      1  0.4871310000000  0.4786960000000  0.5894760000000 1.0
C      1  0.5128690000000  0.5213040000000  0.4105240000000 1.0
C      1  0.4273580000000  0.4925510000000  0.4686540000000 1.0
C      1  0.5726420000000  0.5074490000000  0.5313460000000 1.0
C      1  0.5721280000000  0.4661790000000  0.4338860000000 1.0
C      1  0.4278720000000  0.5338210000000  0.5661140000000 1.0
C      1  0.4280380000000  0.5631870000000  0.4696900000000 1.0
C      1  0.5719620000000  0.4368130000000  0.5303100000000 1.0
C      1  0.4848740000000  0.4930340000000  0.4508160000000 1.0
C      1  0.5151260000000  0.5069660000000  0.5491840000000 1.0
C      1  0.5468880000000  0.5501230000000  0.4358540000000 1.0
C      1  0.4531120000000  0.4498770000000  0.5641460000000 1.0
C      1  0.5124600000000  0.4509640000000  0.4940990000000 1.0
C      1  0.4875400000000  0.5490360000000  0.5059010000000 1.0
C      1  0.3977920000000  0.4973750000000  0.4732310000000 1.0
C      1  0.6022080000000  0.5026250000000  0.5267690000000 1.0
C      1  0.5795900000000  0.4681610000000  0.5630940000000 1.0
C      1  0.4204100000000  0.5318390000000  0.4369060000000 1.0
C      1  0.5727310000000  0.5115730000000  0.4495150000000 1.0
C      1  0.4272690000000  0.4884270000000  0.5504850000000 1.0
END
