TITL C-3577084-3642-181 -5.58510067546523e-06 125000 -1264.37633692975 0 0 200 (Ci) n - 1
REM
REM in /home/bkarasulu/work/CARBON/AIRSS/Generating-Clusters/EDIP-Nigel-Params/with-SteepDescent/Higher-Symm/SD-CG/HFTN-CG
REM
REM
REM
REM
REM
REM ./C.cell (12c818d87b63d06a65506943cc24bca4)
REM
REM compiler GCC version 9.2.1 20190827 (Red Hat 9.2.1-1)
REM options -cpp -mtune=generic -march=x86-64 -g -O0 -fpre-include=/usr/include/finclude/math-vector-fortran.h
REM seed 1051115730 1415457454 1772181992 -388966828 -89768589 1097508071 -1723921190 674954165 -1143780071 1668518707 -1405450573 -1962115174 703760914 -1418697609 -653718 299606953 404930350 554350557 1146868259 1703614471 769296551 2121698121 -665638700 -1335459263 1837562645 -2090853365 5956323 -1800824324 1911086794 1780459452 1992817612 -550493206 -812937216
REM
CELL 1.54180   50.00000   50.00000   50.00000   90.00000   90.00000   90.00000
LATT -1
SFAC C  
C      1  0.5557420000000  0.5175460000000  0.5488920000000 1.0
C      1  0.5560090000000  0.5488030000000  0.4813770000000 1.0
C      1  0.5569650000000  0.4786780000000  0.4473070000000 1.0
C      1  0.5564620000000  0.4516160000000  0.5182030000000 1.0
C      1  0.4430290000000  0.5213190000000  0.5527470000000 1.0
C      1  0.4435210000000  0.5484350000000  0.4818050000000 1.0
C      1  0.4441730000000  0.4823870000000  0.4510600000000 1.0
C      1  0.4440500000000  0.4512680000000  0.5185100000000 1.0
C      1  0.4848660000000  0.3990890000000  0.5504710000000 1.0
C      1  0.4850700000000  0.5507180000000  0.6027810000000 1.0
C      1  0.4861830000000  0.6013190000000  0.4491390000000 1.0
C      1  0.4859630000000  0.4496190000000  0.3977220000000 1.0
C      1  0.5138540000000  0.3987500000000  0.5508280000000 1.0
C      1  0.5140250000000  0.5503770000000  0.6022490000000 1.0
C      1  0.5151890000000  0.6010050000000  0.4495000000000 1.0
C      1  0.5149220000000  0.4493100000000  0.3972540000000 1.0
C      1  0.4724040000000  0.5093490000000  0.4784680000000 1.0
C      1  0.4851440000000  0.4855770000000  0.4900400000000 1.0
C      1  0.4768670000000  0.4889260000000  0.5174610000000 1.0
C      1  0.4663970000000  0.5168610000000  0.5154320000000 1.0
C      1  0.5237100000000  0.5116740000000  0.4830200000000 1.0
C      1  0.5336810000000  0.4834980000000  0.4846060000000 1.0
C      1  0.5274680000000  0.4906580000000  0.5217170000000 1.0
C      1  0.5131220000000  0.5135740000000  0.5099110000000 1.0
C      1  0.3958360000000  0.4717490000000  0.4779140000000 1.0
C      1  0.3912920000000  0.4768210000000  0.5319440000000 1.0
C      1  0.3925280000000  0.5288090000000  0.5240560000000 1.0
C      1  0.3937920000000  0.5230570000000  0.4709680000000 1.0
C      1  0.6075840000000  0.4712380000000  0.4759530000000 1.0
C      1  0.6061780000000  0.4769580000000  0.5290270000000 1.0
C      1  0.6040230000000  0.5281780000000  0.5219750000000 1.0
C      1  0.6091400000000  0.5232430000000  0.4679240000000 1.0
C      1  0.4851840000000  0.5816170000000  0.5622380000000 1.0
C      1  0.4863480000000  0.5622010000000  0.4174840000000 1.0
C      1  0.4864430000000  0.4200160000000  0.4385530000000 1.0
C      1  0.4852310000000  0.4385690000000  0.5814920000000 1.0
C      1  0.5134790000000  0.5797760000000  0.5613160000000 1.0
C      1  0.5148150000000  0.5614180000000  0.4186100000000 1.0
C      1  0.5147670000000  0.4184320000000  0.4377660000000 1.0
C      1  0.5136950000000  0.4377640000000  0.5826400000000 1.0
C      1  0.5289050000000  0.5530470000000  0.4680280000000 1.0
C      1  0.5290390000000  0.4673460000000  0.4438410000000 1.0
C      1  0.5290430000000  0.4472910000000  0.5306710000000 1.0
C      1  0.5276400000000  0.5287120000000  0.5526480000000 1.0
C      1  0.4709670000000  0.5526980000000  0.4693340000000 1.0
C      1  0.4722150000000  0.4710520000000  0.4471560000000 1.0
C      1  0.4711660000000  0.4472050000000  0.5316070000000 1.0
C      1  0.4709240000000  0.5327030000000  0.5563180000000 1.0
C      1  0.5564260000000  0.5100240000000  0.4456610000000 1.0
C      1  0.5534010000000  0.4438670000000  0.4896470000000 1.0
C      1  0.5536120000000  0.4884380000000  0.5567460000000 1.0
C      1  0.5524930000000  0.5487890000000  0.5108080000000 1.0
C      1  0.4463640000000  0.5115050000000  0.4433470000000 1.0
C      1  0.4474130000000  0.4509930000000  0.4890360000000 1.0
C      1  0.4436570000000  0.4899770000000  0.5544190000000 1.0
C      1  0.4465770000000  0.5563340000000  0.5103470000000 1.0
C      1  0.5154970000000  0.5279230000000  0.4605660000000 1.0
C      1  0.5174240000000  0.4608770000000  0.4698550000000 1.0
C      1  0.5150620000000  0.4713350000000  0.5407640000000 1.0
C      1  0.5122500000000  0.5364140000000  0.5278750000000 1.0
C      1  0.4849860000000  0.5285810000000  0.4593780000000 1.0
C      1  0.4875020000000  0.4632310000000  0.4718840000000 1.0
C      1  0.4846030000000  0.4721050000000  0.5395970000000 1.0
C      1  0.4824940000000  0.5393390000000  0.5302800000000 1.0
C      1  0.5296300000000  0.5362050000000  0.4117030000000 1.0
C      1  0.5297640000000  0.4115950000000  0.4629600000000 1.0
C      1  0.5289450000000  0.4625500000000  0.5898750000000 1.0
C      1  0.5279410000000  0.5855670000000  0.5356810000000 1.0
C      1  0.4710970000000  0.5374080000000  0.4102570000000 1.0
C      1  0.4719460000000  0.4141710000000  0.4641590000000 1.0
C      1  0.4704020000000  0.4637670000000  0.5884190000000 1.0
C      1  0.4701880000000  0.5885240000000  0.5370620000000 1.0
C      1  0.5755860000000  0.4299720000000  0.4760960000000 1.0
C      1  0.5754560000000  0.4756600000000  0.5718120000000 1.0
C      1  0.5734220000000  0.5686210000000  0.5222640000000 1.0
C      1  0.5766290000000  0.5236350000000  0.4266920000000 1.0
C      1  0.4264290000000  0.4312090000000  0.4776380000000 1.0
C      1  0.4234240000000  0.4763480000000  0.5733410000000 1.0
C      1  0.4243600000000  0.5701680000000  0.5239270000000 1.0
C      1  0.4245770000000  0.5243190000000  0.4282410000000 1.0
C      1  0.4842420000000  0.6203170000000  0.4949260000000 1.0
C      1  0.4846300000000  0.4952370000000  0.3784410000000 1.0
C      1  0.4842180000000  0.3805280000000  0.5046790000000 1.0
C      1  0.4837290000000  0.5047010000000  0.6214840000000 1.0
C      1  0.5158100000000  0.6194540000000  0.4953360000000 1.0
C      1  0.5163050000000  0.4953170000000  0.3785930000000 1.0
C      1  0.5157760000000  0.3797370000000  0.5050510000000 1.0
C      1  0.5153960000000  0.5047920000000  0.6215850000000 1.0
C      1  0.5264890000000  0.4012610000000  0.5236890000000 1.0
C      1  0.5262810000000  0.5232000000000  0.5997900000000 1.0
C      1  0.5269510000000  0.5980850000000  0.4769230000000 1.0
C      1  0.5274280000000  0.4765440000000  0.3999110000000 1.0
C      1  0.4730910000000  0.4019530000000  0.5230520000000 1.0
C      1  0.4725570000000  0.5234720000000  0.6001750000000 1.0
C      1  0.4735360000000  0.5987940000000  0.4762650000000 1.0
C      1  0.4737130000000  0.4768060000000  0.4001890000000 1.0
C      1  0.5927720000000  0.5384310000000  0.4487730000000 1.0
C      1  0.5899690000000  0.4539590000000  0.4612670000000 1.0
C      1  0.5879690000000  0.4624470000000  0.5462820000000 1.0
C      1  0.5878560000000  0.5459120000000  0.5377700000000 1.0
C      1  0.4120470000000  0.5375650000000  0.4537560000000 1.0
C      1  0.4120520000000  0.4540400000000  0.4621260000000 1.0
C      1  0.4076550000000  0.4616490000000  0.5510170000000 1.0
C      1  0.4100480000000  0.5461490000000  0.5387760000000 1.0
C      1  0.5157580000000  0.4281210000000  0.5124540000000 1.0
C      1  0.5151920000000  0.5116390000000  0.5733590000000 1.0
C      1  0.5154120000000  0.5710020000000  0.4872430000000 1.0
C      1  0.5161730000000  0.4877890000000  0.4267320000000 1.0
C      1  0.4845940000000  0.4289920000000  0.5126070000000 1.0
C      1  0.4838210000000  0.5121850000000  0.5733630000000 1.0
C      1  0.4842470000000  0.5719370000000  0.4874790000000 1.0
C      1  0.4847800000000  0.4883060000000  0.4266640000000 1.0
C      1  0.3870790000000  0.5040990000000  0.5353760000000 1.0
C      1  0.3897780000000  0.5321790000000  0.4967560000000 1.0
C      1  0.3895390000000  0.4961800000000  0.4669280000000 1.0
C      1  0.3951580000000  0.4689480000000  0.5055640000000 1.0
C      1  0.6104710000000  0.5038240000000  0.5330380000000 1.0
C      1  0.6050940000000  0.5311560000000  0.4943160000000 1.0
C      1  0.6132090000000  0.4959080000000  0.4645940000000 1.0
C      1  0.6102770000000  0.4678370000000  0.5032550000000 1.0
C      1  0.4745060000000  0.5714200000000  0.5863660000000 1.0
C      1  0.4750280000000  0.5858450000000  0.4280490000000 1.0
C      1  0.4752210000000  0.4294410000000  0.4144750000000 1.0
C      1  0.4734040000000  0.4151530000000  0.5710090000000 1.0
C      1  0.5247280000000  0.5705050000000  0.5854330000000 1.0
C      1  0.5266630000000  0.5848680000000  0.4290180000000 1.0
C      1  0.5254880000000  0.4286190000000  0.4136620000000 1.0
C      1  0.5250130000000  0.4141660000000  0.5719620000000 1.0
C      1  0.5161330000000  0.5251360000000  0.3861200000000 1.0
C      1  0.5160190000000  0.3865310000000  0.4746840000000 1.0
C      1  0.5152240000000  0.4744720000000  0.6149290000000 1.0
C      1  0.5153130000000  0.6117110000000  0.5249830000000 1.0
C      1  0.4848090000000  0.5255350000000  0.3851820000000 1.0
C      1  0.4846660000000  0.3881280000000  0.4749690000000 1.0
C      1  0.4838950000000  0.4748650000000  0.6140000000000 1.0
C      1  0.4839830000000  0.6135320000000  0.5253210000000 1.0
C      1  0.5696270000000  0.5829110000000  0.4401470000000 1.0
C      1  0.5686200000000  0.4445020000000  0.4172960000000 1.0
C      1  0.5662440000000  0.4184840000000  0.5556270000000 1.0
C      1  0.5664670000000  0.5557050000000  0.5819640000000 1.0
C      1  0.4337960000000  0.5815120000000  0.4443990000000 1.0
C      1  0.4334930000000  0.4442910000000  0.4179550000000 1.0
C      1  0.4304780000000  0.4171150000000  0.5598190000000 1.0
C      1  0.4313060000000  0.5555360000000  0.5827930000000 1.0
C      1  0.5592100000000  0.4562080000000  0.5898550000000 1.0
C      1  0.5576140000000  0.5866270000000  0.5411970000000 1.0
C      1  0.5592750000000  0.5424010000000  0.4099130000000 1.0
C      1  0.5598750000000  0.4116640000000  0.4568060000000 1.0
C      1  0.4407500000000  0.4575620000000  0.5901510000000 1.0
C      1  0.4400760000000  0.5884340000000  0.5432430000000 1.0
C      1  0.4408450000000  0.5437600000000  0.4102180000000 1.0
C      1  0.4422410000000  0.4131950000000  0.4586590000000 1.0
C      1  0.5615970000000  0.5170970000000  0.5184280000000 1.0
C      1  0.5672210000000  0.5191620000000  0.4788920000000 1.0
C      1  0.5660610000000  0.4853480000000  0.4814320000000 1.0
C      1  0.5649450000000  0.4824180000000  0.5147240000000 1.0
C      1  0.4341150000000  0.5148080000000  0.5187130000000 1.0
C      1  0.4349830000000  0.5176330000000  0.4853590000000 1.0
C      1  0.4382180000000  0.4828030000000  0.4815940000000 1.0
C      1  0.4332220000000  0.4809890000000  0.5209610000000 1.0
C      1  0.5799160000000  0.4201570000000  0.5136120000000 1.0
C      1  0.5791420000000  0.5133510000000  0.5804380000000 1.0
C      1  0.5752230000000  0.5746030000000  0.4831270000000 1.0
C      1  0.5815590000000  0.4867840000000  0.4176250000000 1.0
C      1  0.4247440000000  0.4252570000000  0.5168130000000 1.0
C      1  0.4184360000000  0.5132290000000  0.5823710000000 1.0
C      1  0.4200520000000  0.5799540000000  0.4863950000000 1.0
C      1  0.4208270000000  0.4866480000000  0.4195380000000 1.0
C      1  0.5263980000000  0.4828270000000  0.5669470000000 1.0
C      1  0.5251570000000  0.5615520000000  0.5156180000000 1.0
C      1  0.5280700000000  0.5159030000000  0.4353330000000 1.0
C      1  0.5268310000000  0.4345920000000  0.4831600000000 1.0
C      1  0.4719640000000  0.4840660000000  0.5648100000000 1.0
C      1  0.4731650000000  0.5655770000000  0.5168570000000 1.0
C      1  0.4736060000000  0.5171020000000  0.4331860000000 1.0
C      1  0.4747590000000  0.4381230000000  0.4841430000000 1.0
C      1  0.4359580000000  0.5806400000000  0.5700010000000 1.0
C      1  0.4368490000000  0.5706470000000  0.4180790000000 1.0
C      1  0.4374330000000  0.4194950000000  0.4315870000000 1.0
C      1  0.4361450000000  0.4304590000000  0.5839490000000 1.0
C      1  0.5624880000000  0.5804660000000  0.5682840000000 1.0
C      1  0.5639070000000  0.5695030000000  0.4160680000000 1.0
C      1  0.5640200000000  0.4193710000000  0.4300340000000 1.0
C      1  0.5632020000000  0.4293320000000  0.5819560000000 1.0
C      1  0.5909440000000  0.4583240000000  0.4311960000000 1.0
C      1  0.5875710000000  0.4331330000000  0.5413560000000 1.0
C      1  0.5870390000000  0.5406090000000  0.5671460000000 1.0
C      1  0.5880780000000  0.5670990000000  0.4565670000000 1.0
C      1  0.4128710000000  0.4593560000000  0.4327470000000 1.0
C      1  0.4120930000000  0.4329470000000  0.5434030000000 1.0
C      1  0.4090350000000  0.5417180000000  0.5688330000000 1.0
C      1  0.4124330000000  0.5669020000000  0.4586550000000 1.0
C      1  0.5570010000000  0.5282150000000  0.5972940000000 1.0
C      1  0.5574040000000  0.5966660000000  0.4724730000000 1.0
C      1  0.5583840000000  0.4711570000000  0.4037550000000 1.0
C      1  0.5572240000000  0.4034990000000  0.5286490000000 1.0
C      1  0.4415730000000  0.5288660000000  0.5963040000000 1.0
C      1  0.4428000000000  0.5965360000000  0.4713140000000 1.0
C      1  0.4429770000000  0.4717950000000  0.4026810000000 1.0
C      1  0.4426450000000  0.4032920000000  0.5275020000000 1.0
END
