TITL C-3577078-809-523 1.71963690514735e-06 125000 -798.683041932972 0 0 129 (C1) n - 1
REM
REM in /home/bkarasulu/work/CARBON/AIRSS/Generating-Clusters/EDIP-Nigel-Params/with-SteepDescent/Higher-Symm/SD-CG/HFTN-CG
REM
REM
REM
REM
REM
REM ./C.cell (12c818d87b63d06a65506943cc24bca4)
REM
REM compiler GCC version 9.2.1 20190827 (Red Hat 9.2.1-1)
REM options -cpp -mtune=generic -march=x86-64 -g -O0 -fpre-include=/usr/include/finclude/math-vector-fortran.h
REM seed 77555301 -1276514159 -88997307 -2048824728 -1115770355 1288691215 -1987131322 1498981279 -1729321409 991787563 1670047651 -1025733133 351038768 922539521 -914759178 2092633609 -1312535457 927423881 1661055301 1223771605 -397854778 -1613677596 2005664850 -1133774350 -871821876 -1561173229 1978040144 842152810 1991765880 -526125313 -1521500096 750497122 -101002461
REM
CELL 1.54180   50.00000   50.00000   50.00000   90.00000   90.00000   90.00000
LATT -1
SFAC C  
C      1  0.4142930000000  0.5491340000000  0.4758950000000 1.0
C      1  0.5836270000000  0.5500140000000  0.4747760000000 1.0
C      1  0.4404770000000  0.5494620000000  0.4895220000000 1.0
C      1  0.5563090000000  0.5475470000000  0.4869440000000 1.0
C      1  0.4852570000000  0.5080350000000  0.3917890000000 1.0
C      1  0.5147540000000  0.5098640000000  0.3905630000000 1.0
C      1  0.4048890000000  0.5207350000000  0.5354280000000 1.0
C      1  0.6004060000000  0.5191000000000  0.5360940000000 1.0
C      1  0.6009350000000  0.5259680000000  0.4825450000000 1.0
C      1  0.3978830000000  0.5247980000000  0.4829070000000 1.0
C      1  0.5136600000000  0.4694020000000  0.5572020000000 1.0
C      1  0.4834070000000  0.4736760000000  0.5598640000000 1.0
C      1  0.5517060000000  0.4257010000000  0.5028020000000 1.0
C      1  0.4570220000000  0.4286060000000  0.5017560000000 1.0
C      1  0.5263120000000  0.5096130000000  0.4847060000000 1.0
C      1  0.4792550000000  0.5123740000000  0.4876970000000 1.0
C      1  0.5356490000000  0.4138300000000  0.5494460000000 1.0
C      1  0.4672920000000  0.4200730000000  0.5485760000000 1.0
C      1  0.4434120000000  0.5586640000000  0.5536500000000 1.0
C      1  0.5555140000000  0.5565880000000  0.5502830000000 1.0
C      1  0.4851930000000  0.5802210000000  0.5325250000000 1.0
C      1  0.5158990000000  0.5824610000000  0.5335070000000 1.0
C      1  0.4862270000000  0.4312370000000  0.5898500000000 1.0
C      1  0.5123700000000  0.4377580000000  0.5960930000000 1.0
C      1  0.5666590000000  0.4549720000000  0.5450120000000 1.0
C      1  0.4322490000000  0.4580320000000  0.5435880000000 1.0
C      1  0.4367470000000  0.4865030000000  0.4304680000000 1.0
C      1  0.5643560000000  0.4814860000000  0.4198000000000 1.0
C      1  0.4202220000000  0.5504150000000  0.4468600000000 1.0
C      1  0.5787060000000  0.5506050000000  0.4452420000000 1.0
C      1  0.5820690000000  0.4686330000000  0.4422300000000 1.0
C      1  0.4128490000000  0.4739900000000  0.4428610000000 1.0
C      1  0.5427490000000  0.5361900000000  0.4180850000000 1.0
C      1  0.4542290000000  0.5348390000000  0.4177430000000 1.0
C      1  0.4114290000000  0.4733870000000  0.4713230000000 1.0
C      1  0.5892130000000  0.4713770000000  0.4712600000000 1.0
C      1  0.5375940000000  0.4244150000000  0.4767030000000 1.0
C      1  0.4637410000000  0.4206630000000  0.4734370000000 1.0
C      1  0.5769160000000  0.5081020000000  0.5499810000000 1.0
C      1  0.4283190000000  0.5097100000000  0.5497630000000 1.0
C      1  0.5391910000000  0.4653390000000  0.4136370000000 1.0
C      1  0.4584170000000  0.4688420000000  0.4164950000000 1.0
C      1  0.5584600000000  0.4942520000000  0.4558600000000 1.0
C      1  0.4512840000000  0.4956840000000  0.4538340000000 1.0
C      1  0.4688960000000  0.5230670000000  0.5771320000000 1.0
C      1  0.5303160000000  0.5206020000000  0.5709250000000 1.0
C      1  0.4723120000000  0.5288170000000  0.5289130000000 1.0
C      1  0.5204680000000  0.5292380000000  0.5244770000000 1.0
C      1  0.5346340000000  0.5975760000000  0.4963650000000 1.0
C      1  0.4635120000000  0.5950480000000  0.4968490000000 1.0
C      1  0.4802470000000  0.4955870000000  0.5842920000000 1.0
C      1  0.5184230000000  0.4966860000000  0.5841140000000 1.0
C      1  0.5218660000000  0.6083540000000  0.5196460000000 1.0
C      1  0.4740710000000  0.6050420000000  0.5214560000000 1.0
C      1  0.4351810000000  0.4514900000000  0.5115220000000 1.0
C      1  0.5675200000000  0.4494370000000  0.5138760000000 1.0
C      1  0.5177140000000  0.5261080000000  0.4611770000000 1.0
C      1  0.4876250000000  0.5269510000000  0.4619750000000 1.0
C      1  0.5393420000000  0.4764100000000  0.5927700000000 1.0
C      1  0.4579710000000  0.4760770000000  0.5965410000000 1.0
C      1  0.4742320000000  0.4821230000000  0.4821520000000 1.0
C      1  0.5263290000000  0.4804100000000  0.4824190000000 1.0
C      1  0.4876620000000  0.3929070000000  0.5161790000000 1.0
C      1  0.5134520000000  0.3980310000000  0.5067990000000 1.0
C      1  0.4765140000000  0.5058360000000  0.4421540000000 1.0
C      1  0.5279900000000  0.5014110000000  0.4410100000000 1.0
C      1  0.4078870000000  0.5120120000000  0.5087930000000 1.0
C      1  0.5935570000000  0.5133070000000  0.5093830000000 1.0
C      1  0.5178560000000  0.5794810000000  0.4773380000000 1.0
C      1  0.4830120000000  0.5746890000000  0.4827190000000 1.0
C      1  0.5203710000000  0.5585370000000  0.5105550000000 1.0
C      1  0.4870300000000  0.5594180000000  0.5091800000000 1.0
C      1  0.5496600000000  0.4368470000000  0.5620380000000 1.0
C      1  0.4481230000000  0.4393470000000  0.5599980000000 1.0
C      1  0.5278270000000  0.5662780000000  0.5561940000000 1.0
C      1  0.4722930000000  0.5668270000000  0.5565370000000 1.0
C      1  0.5624670000000  0.5616150000000  0.5222500000000 1.0
C      1  0.4351810000000  0.5614800000000  0.5255320000000 1.0
C      1  0.4508680000000  0.5212160000000  0.4894850000000 1.0
C      1  0.5515780000000  0.5194180000000  0.4908100000000 1.0
C      1  0.4678070000000  0.4527790000000  0.5788940000000 1.0
C      1  0.5295160000000  0.4526880000000  0.5785880000000 1.0
C      1  0.4718260000000  0.5540560000000  0.4617350000000 1.0
C      1  0.5345840000000  0.5544500000000  0.4649710000000 1.0
C      1  0.5583460000000  0.5288290000000  0.5633690000000 1.0
C      1  0.4406130000000  0.5308250000000  0.5680260000000 1.0
C      1  0.4514660000000  0.5044700000000  0.5305060000000 1.0
C      1  0.5426000000000  0.5051740000000  0.5312130000000 1.0
C      1  0.5144320000000  0.5388370000000  0.5539110000000 1.0
C      1  0.4832210000000  0.5388110000000  0.5561300000000 1.0
C      1  0.4321360000000  0.4745310000000  0.4918340000000 1.0
C      1  0.5681660000000  0.4737000000000  0.4937850000000 1.0
C      1  0.4237540000000  0.4820400000000  0.5610390000000 1.0
C      1  0.5766310000000  0.4794720000000  0.5603320000000 1.0
C      1  0.4312390000000  0.5140900000000  0.4171300000000 1.0
C      1  0.5635440000000  0.5140190000000  0.4177030000000 1.0
C      1  0.5332680000000  0.4134860000000  0.5209730000000 1.0
C      1  0.4659300000000  0.4091900000000  0.5223000000000 1.0
C      1  0.4318750000000  0.4807860000000  0.5878530000000 1.0
C      1  0.5659190000000  0.4809030000000  0.5860580000000 1.0
C      1  0.4538360000000  0.4355260000000  0.4522210000000 1.0
C      1  0.5473100000000  0.4328140000000  0.4518120000000 1.0
C      1  0.4717050000000  0.4642320000000  0.5076790000000 1.0
C      1  0.5322190000000  0.4641600000000  0.5067620000000 1.0
C      1  0.5849060000000  0.5233430000000  0.4357660000000 1.0
C      1  0.4097240000000  0.5252990000000  0.4346880000000 1.0
C      1  0.5270100000000  0.4795800000000  0.5315530000000 1.0
C      1  0.4691120000000  0.4800220000000  0.5333280000000 1.0
C      1  0.5130410000000  0.4036180000000  0.5625820000000 1.0
C      1  0.4866840000000  0.4112460000000  0.5686890000000 1.0
C      1  0.4497700000000  0.5549040000000  0.4394950000000 1.0
C      1  0.5499510000000  0.5570040000000  0.4383580000000 1.0
C      1  0.5146260000000  0.4061890000000  0.4792060000000 1.0
C      1  0.4889300000000  0.4095400000000  0.4686490000000 1.0
C      1  0.5178080000000  0.5360030000000  0.4026120000000 1.0
C      1  0.4796870000000  0.5341240000000  0.4025330000000 1.0
C      1  0.4823560000000  0.4889630000000  0.4154110000000 1.0
C      1  0.5197140000000  0.4889910000000  0.4125770000000 1.0
C      1  0.5665880000000  0.5015040000000  0.5073830000000 1.0
C      1  0.4351690000000  0.5019140000000  0.5043910000000 1.0
C      1  0.4872520000000  0.4710840000000  0.4555160000000 1.0
C      1  0.5175470000000  0.4731520000000  0.4549490000000 1.0
C      1  0.5569210000000  0.5849140000000  0.5081130000000 1.0
C      1  0.4385270000000  0.5832810000000  0.5064480000000 1.0
C      1  0.3998250000000  0.5073190000000  0.4573790000000 1.0
C      1  0.5950190000000  0.5074030000000  0.4592600000000 1.0
C      1  0.5306300000000  0.4510930000000  0.4385570000000 1.0
C      1  0.4711410000000  0.4519970000000  0.4377050000000 1.0
C      1  0.4945530000000  0.5167090000000  0.5143860000000 1.0
END
