TITL C-3578206-1180-20 1.48359406724711e-06 125000 -1261.86184938519 0 0 200 (C1) n - 1
REM
REM in /home/bkarasulu/work/CARBON/AIRSS/Generating-Clusters/EDIP-Nigel-Params/with-SteepDescent/Higher-Symm/SD-CG/HFTN-CG
REM
REM
REM
REM
REM
REM ./C.cell (12c818d87b63d06a65506943cc24bca4)
REM
REM compiler GCC version 9.2.1 20190827 (Red Hat 9.2.1-1)
REM options -cpp -mtune=generic -march=x86-64 -g -O0 -fpre-include=/usr/include/finclude/math-vector-fortran.h
REM seed -334784624 -1192452308 1170387586 172342671 -1844224837 -1796591974 1979440679 1055168335 547449961 33877694 209655986 -1026077600 -1556934661 2136568964 1235091162 1445228765 -1442401435 -824269456 -2031538778 41977085 996947467 1361096531 801790347 -1057075243 -301586984 528565722 -2095317380 -2081025962 1270161393 68832894 -653992221 1861591499 -1077988158
REM
CELL 1.54180   50.00000   50.00000   50.00000   90.00000   90.00000   90.00000
LATT -1
SFAC C  
C      1  0.5691940000000  0.6027330000000  0.4792840000000 1.0
C      1  0.5017730000000  0.6322550000000  0.4826360000000 1.0
C      1  0.4357270000000  0.6061250000000  0.4790480000000 1.0
C      1  0.3900340000000  0.5556440000000  0.4805230000000 1.0
C      1  0.3576750000000  0.5007630000000  0.4816640000000 1.0
C      1  0.4067720000000  0.4186950000000  0.5058190000000 1.0
C      1  0.4771930000000  0.3834870000000  0.4759680000000 1.0
C      1  0.5363530000000  0.3757770000000  0.4786430000000 1.0
C      1  0.5958360000000  0.4252360000000  0.4822840000000 1.0
C      1  0.6218280000000  0.4817150000000  0.4860880000000 1.0
C      1  0.6180410000000  0.5544030000000  0.4790350000000 1.0
C      1  0.5705360000000  0.4364280000000  0.5544000000000 1.0
C      1  0.5934540000000  0.4860850000000  0.5515820000000 1.0
C      1  0.5878080000000  0.5397230000000  0.5533660000000 1.0
C      1  0.5527230000000  0.5802260000000  0.5502150000000 1.0
C      1  0.5021340000000  0.5874140000000  0.5521670000000 1.0
C      1  0.4547480000000  0.5741850000000  0.5522350000000 1.0
C      1  0.4192760000000  0.5367170000000  0.5469590000000 1.0
C      1  0.4039850000000  0.4858030000000  0.5476630000000 1.0
C      1  0.4302850000000  0.4238300000000  0.5494500000000 1.0
C      1  0.4742270000000  0.3997500000000  0.5562180000000 1.0
C      1  0.5247670000000  0.4117180000000  0.5529830000000 1.0
C      1  0.3797080000000  0.5162840000000  0.5219330000000 1.0
C      1  0.3853050000000  0.4691780000000  0.5052090000000 1.0
C      1  0.4522310000000  0.3913810000000  0.5162320000000 1.0
C      1  0.5042280000000  0.3873880000000  0.5164180000000 1.0
C      1  0.5579040000000  0.4002610000000  0.5175070000000 1.0
C      1  0.6017050000000  0.4451050000000  0.5213020000000 1.0
C      1  0.6139550000000  0.5231410000000  0.5155940000000 1.0
C      1  0.5900860000000  0.5712240000000  0.5162610000000 1.0
C      1  0.5226140000000  0.6162280000000  0.5225840000000 1.0
C      1  0.4729380000000  0.6011680000000  0.5138080000000 1.0
C      1  0.4238550000000  0.5784880000000  0.5165550000000 1.0
C      1  0.5357710000000  0.6007320000000  0.4690960000000 1.0
C      1  0.4810000000000  0.6026860000000  0.4691800000000 1.0
C      1  0.4325710000000  0.5687350000000  0.4700950000000 1.0
C      1  0.3987850000000  0.5253650000000  0.4702320000000 1.0
C      1  0.3985720000000  0.4593600000000  0.4792660000000 1.0
C      1  0.4359160000000  0.4118760000000  0.4812340000000 1.0
C      1  0.4988410000000  0.4023350000000  0.4677710000000 1.0
C      1  0.5507900000000  0.4109980000000  0.4726030000000 1.0
C      1  0.5875660000000  0.4573700000000  0.4711850000000 1.0
C      1  0.6082160000000  0.5085620000000  0.4894220000000 1.0
C      1  0.5800820000000  0.5572850000000  0.4755240000000 1.0
C      1  0.4728730000000  0.4185730000000  0.4487090000000 1.0
C      1  0.5366620000000  0.4080300000000  0.4450310000000 1.0
C      1  0.5746940000000  0.4408530000000  0.4466370000000 1.0
C      1  0.6027680000000  0.4924470000000  0.4428500000000 1.0
C      1  0.5862230000000  0.5341900000000  0.4556380000000 1.0
C      1  0.5470570000000  0.5825040000000  0.4466530000000 1.0
C      1  0.4960650000000  0.6110410000000  0.4438640000000 1.0
C      1  0.4537610000000  0.5749950000000  0.4483140000000 1.0
C      1  0.4030900000000  0.5446440000000  0.4372540000000 1.0
C      1  0.3896330000000  0.4761440000000  0.4550280000000 1.0
C      1  0.4133360000000  0.4179110000000  0.4612550000000 1.0
C      1  0.4200910000000  0.5308680000000  0.4190050000000 1.0
C      1  0.4044990000000  0.4757440000000  0.4310710000000 1.0
C      1  0.4205960000000  0.4346300000000  0.4400760000000 1.0
C      1  0.4627830000000  0.4237500000000  0.4201700000000 1.0
C      1  0.5244610000000  0.4292790000000  0.4273330000000 1.0
C      1  0.5668070000000  0.4404960000000  0.4196070000000 1.0
C      1  0.5832110000000  0.4978790000000  0.4233900000000 1.0
C      1  0.5870040000000  0.5416520000000  0.4285720000000 1.0
C      1  0.5432700000000  0.5845780000000  0.4182390000000 1.0
C      1  0.4981790000000  0.5938030000000  0.4216440000000 1.0
C      1  0.4431160000000  0.5768850000000  0.4216380000000 1.0
C      1  0.5775630000000  0.5044780000000  0.4906620000000 1.0
C      1  0.5515590000000  0.5502140000000  0.4903230000000 1.0
C      1  0.5192310000000  0.5779150000000  0.4810210000000 1.0
C      1  0.4891880000000  0.5734630000000  0.4784090000000 1.0
C      1  0.4419870000000  0.5441710000000  0.4862930000000 1.0
C      1  0.4271680000000  0.5189940000000  0.4810570000000 1.0
C      1  0.4303750000000  0.4635210000000  0.4821980000000 1.0
C      1  0.4499240000000  0.4391390000000  0.4856510000000 1.0
C      1  0.5062690000000  0.4262380000000  0.4900750000000 1.0
C      1  0.5359190000000  0.4338080000000  0.4878660000000 1.0
C      1  0.5668170000000  0.4757390000000  0.4895840000000 1.0
C      1  0.4863120000000  0.5211340000000  0.5412770000000 1.0
C      1  0.4636040000000  0.5172390000000  0.5250780000000 1.0
C      1  0.4702330000000  0.4933440000000  0.5082580000000 1.0
C      1  0.4583100000000  0.4689350000000  0.5223630000000 1.0
C      1  0.4713730000000  0.4679660000000  0.5489400000000 1.0
C      1  0.4949050000000  0.4534420000000  0.5421300000000 1.0
C      1  0.5189850000000  0.4656720000000  0.5450700000000 1.0
C      1  0.5383080000000  0.4820620000000  0.5353830000000 1.0
C      1  0.5356070000000  0.5082660000000  0.5439860000000 1.0
C      1  0.5305540000000  0.5330960000000  0.5328030000000 1.0
C      1  0.5030680000000  0.5367140000000  0.5250130000000 1.0
C      1  0.4414340000000  0.4434820000000  0.4235750000000 1.0
C      1  0.4854590000000  0.4377090000000  0.4080760000000 1.0
C      1  0.5079440000000  0.4207790000000  0.4063940000000 1.0
C      1  0.5602150000000  0.4641310000000  0.4062080000000 1.0
C      1  0.5826310000000  0.4805030000000  0.4012650000000 1.0
C      1  0.5687590000000  0.5439510000000  0.4077210000000 1.0
C      1  0.5598730000000  0.5696670000000  0.4020140000000 1.0
C      1  0.4893010000000  0.5734330000000  0.4040430000000 1.0
C      1  0.4615360000000  0.5623590000000  0.4066380000000 1.0
C      1  0.4066310000000  0.5130380000000  0.4018940000000 1.0
C      1  0.4172790000000  0.4878390000000  0.4090000000000 1.0
C      1  0.4655520000000  0.4481710000000  0.6124350000000 1.0
C      1  0.4971020000000  0.4443590000000  0.6126700000000 1.0
C      1  0.5271690000000  0.4544750000000  0.6135440000000 1.0
C      1  0.5488990000000  0.4778100000000  0.6125620000000 1.0
C      1  0.5554900000000  0.5082340000000  0.6132440000000 1.0
C      1  0.5427950000000  0.5367930000000  0.6117300000000 1.0
C      1  0.5186700000000  0.5555650000000  0.6149950000000 1.0
C      1  0.4886990000000  0.5518790000000  0.6155360000000 1.0
C      1  0.4588930000000  0.5291520000000  0.6120210000000 1.0
C      1  0.4458230000000  0.5019810000000  0.6079550000000 1.0
C      1  0.4464020000000  0.4712320000000  0.6074960000000 1.0
C      1  0.5588010000000  0.4667550000000  0.5195370000000 1.0
C      1  0.5704800000000  0.5141690000000  0.5176420000000 1.0
C      1  0.5555950000000  0.5398030000000  0.5189070000000 1.0
C      1  0.5249480000000  0.5705640000000  0.5099460000000 1.0
C      1  0.4868460000000  0.5597940000000  0.5099610000000 1.0
C      1  0.4571280000000  0.5450740000000  0.5127870000000 1.0
C      1  0.4248230000000  0.5046290000000  0.5081590000000 1.0
C      1  0.4296830000000  0.4753690000000  0.5102660000000 1.0
C      1  0.4636070000000  0.4413090000000  0.5121570000000 1.0
C      1  0.4915380000000  0.4315920000000  0.5213490000000 1.0
C      1  0.5430890000000  0.4419600000000  0.5162070000000 1.0
C      1  0.5720540000000  0.5595740000000  0.5362680000000 1.0
C      1  0.5268210000000  0.5900780000000  0.5343440000000 1.0
C      1  0.4760280000000  0.5895370000000  0.5400380000000 1.0
C      1  0.4374710000000  0.5586710000000  0.5334090000000 1.0
C      1  0.4065830000000  0.5122830000000  0.5316790000000 1.0
C      1  0.4058190000000  0.4642980000000  0.5263430000000 1.0
C      1  0.4481570000000  0.4008880000000  0.5424520000000 1.0
C      1  0.4987580000000  0.4058690000000  0.5384390000000 1.0
C      1  0.5494960000000  0.4211950000000  0.5371640000000 1.0
C      1  0.5826540000000  0.4593980000000  0.5380560000000 1.0
C      1  0.5935580000000  0.5149610000000  0.5365800000000 1.0
C      1  0.5230370000000  0.4605950000000  0.4653110000000 1.0
C      1  0.5413390000000  0.4826740000000  0.4754860000000 1.0
C      1  0.5514290000000  0.5086680000000  0.4629350000000 1.0
C      1  0.5350060000000  0.5323120000000  0.4723220000000 1.0
C      1  0.5180290000000  0.5501030000000  0.4541610000000 1.0
C      1  0.4839850000000  0.5513620000000  0.4557000000000 1.0
C      1  0.4760460000000  0.5240730000000  0.4662110000000 1.0
C      1  0.4497970000000  0.5103340000000  0.4584850000000 1.0
C      1  0.4511690000000  0.4790160000000  0.4594800000000 1.0
C      1  0.4710960000000  0.4450730000000  0.4646970000000 1.0
C      1  0.4965950000000  0.4517280000000  0.4784840000000 1.0
C      1  0.4549250000000  0.3974850000000  0.4627940000000 1.0
C      1  0.5207000000000  0.3852050000000  0.4553730000000 1.0
C      1  0.5773770000000  0.4156570000000  0.4615500000000 1.0
C      1  0.6107000000000  0.4727820000000  0.4609680000000 1.0
C      1  0.6124490000000  0.5283940000000  0.4671130000000 1.0
C      1  0.5742720000000  0.5817590000000  0.4588740000000 1.0
C      1  0.5181690000000  0.6235030000000  0.4594720000000 1.0
C      1  0.4545190000000  0.6038600000000  0.4577950000000 1.0
C      1  0.4052310000000  0.5659070000000  0.4570650000000 1.0
C      1  0.3786660000000  0.5027080000000  0.4630200000000 1.0
C      1  0.3954950000000  0.4294140000000  0.4808330000000 1.0
C      1  0.4572890000000  0.4688740000000  0.4300710000000 1.0
C      1  0.4889350000000  0.4625360000000  0.4243100000000 1.0
C      1  0.5194860000000  0.4589130000000  0.4344700000000 1.0
C      1  0.5391460000000  0.4784490000000  0.4207610000000 1.0
C      1  0.5542690000000  0.5037010000000  0.4314020000000 1.0
C      1  0.5460630000000  0.5282920000000  0.4159470000000 1.0
C      1  0.5272530000000  0.5505030000000  0.4241350000000 1.0
C      1  0.5029310000000  0.5474920000000  0.4077970000000 1.0
C      1  0.4696080000000  0.5359730000000  0.4171870000000 1.0
C      1  0.4465200000000  0.5183970000000  0.4270900000000 1.0
C      1  0.4463830000000  0.4913140000000  0.4132150000000 1.0
C      1  0.5881000000000  0.4208070000000  0.5096270000000 1.0
C      1  0.6177510000000  0.4618320000000  0.5055320000000 1.0
C      1  0.6108600000000  0.5524620000000  0.5066080000000 1.0
C      1  0.5819300000000  0.5940150000000  0.5024270000000 1.0
C      1  0.4986200000000  0.6167050000000  0.5068420000000 1.0
C      1  0.4447350000000  0.5951220000000  0.5033130000000 1.0
C      1  0.4012300000000  0.5687650000000  0.5028120000000 1.0
C      1  0.3704750000000  0.4947850000000  0.5058090000000 1.0
C      1  0.4102070000000  0.4339290000000  0.5302630000000 1.0
C      1  0.4768490000000  0.3829230000000  0.5045280000000 1.0
C      1  0.5327250000000  0.3875930000000  0.5049120000000 1.0
C      1  0.5607500000000  0.5518240000000  0.5935530000000 1.0
C      1  0.5249660000000  0.5779380000000  0.5958050000000 1.0
C      1  0.4807380000000  0.5719710000000  0.5954920000000 1.0
C      1  0.4455670000000  0.5446830000000  0.5910000000000 1.0
C      1  0.4251520000000  0.5055080000000  0.5872570000000 1.0
C      1  0.4265250000000  0.4610980000000  0.5878690000000 1.0
C      1  0.4536290000000  0.4263860000000  0.5951630000000 1.0
C      1  0.4984770000000  0.4198760000000  0.5960190000000 1.0
C      1  0.5405340000000  0.4342590000000  0.5959010000000 1.0
C      1  0.5701540000000  0.4674860000000  0.5944940000000 1.0
C      1  0.5789180000000  0.5110480000000  0.5946320000000 1.0
C      1  0.5618760000000  0.4445590000000  0.5806740000000 1.0
C      1  0.5847670000000  0.4872820000000  0.5798370000000 1.0
C      1  0.5767240000000  0.5343350000000  0.5790440000000 1.0
C      1  0.5475960000000  0.5723760000000  0.5785290000000 1.0
C      1  0.5019050000000  0.5850410000000  0.5812600000000 1.0
C      1  0.4607360000000  0.5635910000000  0.5779950000000 1.0
C      1  0.4290530000000  0.5296870000000  0.5735450000000 1.0
C      1  0.4195960000000  0.4831130000000  0.5713230000000 1.0
C      1  0.4330930000000  0.4352350000000  0.5767180000000 1.0
C      1  0.4748760000000  0.4125730000000  0.5823560000000 1.0
C      1  0.5229630000000  0.4168200000000  0.5818100000000 1.0
C      1  0.4937600000000  0.4935020000000  0.4929320000000 1.0
C      1  0.4982060000000  0.5073260000000  0.4700530000000 1.0
END
