TITL C-3578205-846-509 3.0691494163328e-06 125000 -860.589072362583 0 0 137 (C1) n - 1
REM
REM in /home/bkarasulu/work/CARBON/AIRSS/Generating-Clusters/EDIP-Nigel-Params/with-SteepDescent/Higher-Symm/SD-CG/HFTN-CG
REM
REM
REM
REM
REM
REM ./C.cell (12c818d87b63d06a65506943cc24bca4)
REM
REM compiler GCC version 9.2.1 20190827 (Red Hat 9.2.1-1)
REM options -cpp -mtune=generic -march=x86-64 -g -O0 -fpre-include=/usr/include/finclude/math-vector-fortran.h
REM seed 983190522 -556012601 1614611038 223434590 -353380855 -38903880 -459413202 -1689993637 2046885017 -64177702 -1571880027 -1627563203 -985662589 2059489410 925632095 2097494011 1623099187 -718105606 1458402534 2136451048 -1702059498 -1292927622 -662518603 1692039438 245328532 463618784 1519179336 -1431082482 -2014332553 -1644381135 -1347344974 -120034360 817985570
REM
CELL 1.54180   50.00000   50.00000   50.00000   90.00000   90.00000   90.00000
LATT -1
SFAC C  
C      1  0.4615200000000  0.4726600000000  0.4589920000000 1.0
C      1  0.4511030000000  0.4749430000000  0.5241820000000 1.0
C      1  0.5070040000000  0.4773520000000  0.5549300000000 1.0
C      1  0.5531280000000  0.4734160000000  0.5073190000000 1.0
C      1  0.5247740000000  0.4708990000000  0.4466540000000 1.0
C      1  0.4565320000000  0.5253820000000  0.4563000000000 1.0
C      1  0.4519850000000  0.5275150000000  0.5260400000000 1.0
C      1  0.5051790000000  0.5281860000000  0.5528720000000 1.0
C      1  0.5534430000000  0.5273160000000  0.5090100000000 1.0
C      1  0.5305630000000  0.5172070000000  0.4532670000000 1.0
C      1  0.5245510000000  0.4855870000000  0.5015600000000 1.0
C      1  0.5128030000000  0.4758870000000  0.4745690000000 1.0
C      1  0.4837100000000  0.4804030000000  0.4779460000000 1.0
C      1  0.4755730000000  0.4871830000000  0.5069000000000 1.0
C      1  0.5018360000000  0.4758340000000  0.5204740000000 1.0
C      1  0.5250560000000  0.5160690000000  0.5030230000000 1.0
C      1  0.5128620000000  0.5337040000000  0.4710030000000 1.0
C      1  0.4805530000000  0.5304360000000  0.4768610000000 1.0
C      1  0.4751280000000  0.5172090000000  0.5077130000000 1.0
C      1  0.5017760000000  0.5259470000000  0.5203760000000 1.0
C      1  0.5091020000000  0.5667650000000  0.5501910000000 1.0
C      1  0.5319500000000  0.5597460000000  0.5079480000000 1.0
C      1  0.5178950000000  0.5634720000000  0.4618050000000 1.0
C      1  0.4693830000000  0.5607030000000  0.4713260000000 1.0
C      1  0.4722150000000  0.5602060000000  0.5194920000000 1.0
C      1  0.5087220000000  0.4396930000000  0.5459590000000 1.0
C      1  0.5306060000000  0.4415990000000  0.5051830000000 1.0
C      1  0.5191780000000  0.4351820000000  0.4596040000000 1.0
C      1  0.4728340000000  0.4394840000000  0.4754110000000 1.0
C      1  0.4690330000000  0.4406110000000  0.5193210000000 1.0
C      1  0.5560040000000  0.4710480000000  0.4415840000000 1.0
C      1  0.4618470000000  0.4712500000000  0.4273610000000 1.0
C      1  0.4209520000000  0.4718420000000  0.5149370000000 1.0
C      1  0.4886820000000  0.4716830000000  0.5801770000000 1.0
C      1  0.5717190000000  0.4716560000000  0.5346470000000 1.0
C      1  0.5567250000000  0.5267020000000  0.4430350000000 1.0
C      1  0.4602820000000  0.5279190000000  0.4264530000000 1.0
C      1  0.4215230000000  0.5281110000000  0.5149630000000 1.0
C      1  0.4880730000000  0.5285460000000  0.5809000000000 1.0
C      1  0.5729050000000  0.5281610000000  0.5353290000000 1.0
C      1  0.5069390000000  0.5306090000000  0.4064070000000 1.0
C      1  0.4137810000000  0.5298960000000  0.4646670000000 1.0
C      1  0.4388060000000  0.5314260000000  0.5726720000000 1.0
C      1  0.5493530000000  0.5295190000000  0.5809730000000 1.0
C      1  0.5918890000000  0.5314520000000  0.4788780000000 1.0
C      1  0.5082400000000  0.4689220000000  0.4065000000000 1.0
C      1  0.4128210000000  0.4677210000000  0.4653600000000 1.0
C      1  0.4392710000000  0.4687530000000  0.5719710000000 1.0
C      1  0.5439730000000  0.4691870000000  0.5771270000000 1.0
C      1  0.5911900000000  0.4684660000000  0.4786140000000 1.0
C      1  0.4858440000000  0.5711190000000  0.4291570000000 1.0
C      1  0.4305300000000  0.5696970000000  0.4917580000000 1.0
C      1  0.4678380000000  0.5714800000000  0.5667390000000 1.0
C      1  0.5540570000000  0.5710340000000  0.5522400000000 1.0
C      1  0.5614900000000  0.5701390000000  0.4699810000000 1.0
C      1  0.4870160000000  0.4284570000000  0.4292690000000 1.0
C      1  0.4295770000000  0.4288440000000  0.4922980000000 1.0
C      1  0.4678560000000  0.4292030000000  0.5646670000000 1.0
C      1  0.5534690000000  0.4282230000000  0.5497310000000 1.0
C      1  0.5623760000000  0.4291980000000  0.4691040000000 1.0
C      1  0.4831170000000  0.4259470000000  0.5405500000000 1.0
C      1  0.5307300000000  0.4276140000000  0.5308940000000 1.0
C      1  0.5358950000000  0.4249450000000  0.4811770000000 1.0
C      1  0.4916690000000  0.4241740000000  0.4582340000000 1.0
C      1  0.4579110000000  0.4240290000000  0.4973800000000 1.0
C      1  0.4826270000000  0.5770070000000  0.5421050000000 1.0
C      1  0.5318730000000  0.5752360000000  0.5332540000000 1.0
C      1  0.5354330000000  0.5757920000000  0.4827040000000 1.0
C      1  0.4907810000000  0.5763300000000  0.4578770000000 1.0
C      1  0.4595150000000  0.5738820000000  0.4964080000000 1.0
C      1  0.5622230000000  0.5138670000000  0.5592680000000 1.0
C      1  0.5777530000000  0.5141760000000  0.4596540000000 1.0
C      1  0.4844080000000  0.5141690000000  0.4148700000000 1.0
C      1  0.4157970000000  0.5141500000000  0.4888930000000 1.0
C      1  0.4617880000000  0.5148060000000  0.5788730000000 1.0
C      1  0.5605130000000  0.4846060000000  0.5589390000000 1.0
C      1  0.5754090000000  0.4848090000000  0.4604900000000 1.0
C      1  0.4844450000000  0.4849840000000  0.4136330000000 1.0
C      1  0.4143390000000  0.4850130000000  0.4891510000000 1.0
C      1  0.4621840000000  0.4854180000000  0.5782660000000 1.0
C      1  0.4873130000000  0.4416350000000  0.5843790000000 1.0
C      1  0.5770950000000  0.4423550000000  0.5379090000000 1.0
C      1  0.5590840000000  0.4411450000000  0.4409800000000 1.0
C      1  0.4606910000000  0.4414930000000  0.4251090000000 1.0
C      1  0.4164910000000  0.4422310000000  0.5156360000000 1.0
C      1  0.4868880000000  0.5582110000000  0.5872590000000 1.0
C      1  0.5774770000000  0.5575330000000  0.5390680000000 1.0
C      1  0.5571980000000  0.5571550000000  0.4429110000000 1.0
C      1  0.4593790000000  0.5578140000000  0.4243510000000 1.0
C      1  0.4169040000000  0.5575870000000  0.5153380000000 1.0
C      1  0.5856780000000  0.4322700000000  0.5130480000000 1.0
C      1  0.5367580000000  0.4291130000000  0.4259680000000 1.0
C      1  0.4423760000000  0.4327950000000  0.4445600000000 1.0
C      1  0.4246060000000  0.4325660000000  0.5408340000000 1.0
C      1  0.5144020000000  0.4286960000000  0.5820420000000 1.0
C      1  0.5847310000000  0.5676980000000  0.5137200000000 1.0
C      1  0.5350990000000  0.5689140000000  0.4279090000000 1.0
C      1  0.4396850000000  0.5669450000000  0.4426350000000 1.0
C      1  0.4253360000000  0.5674760000000  0.5404240000000 1.0
C      1  0.5152960000000  0.5698850000000  0.5871990000000 1.0
C      1  0.6074440000000  0.4839170000000  0.4988150000000 1.0
C      1  0.5331600000000  0.4838800000000  0.3965430000000 1.0
C      1  0.4116490000000  0.4826730000000  0.4381790000000 1.0
C      1  0.4143890000000  0.4842420000000  0.5649130000000 1.0
C      1  0.5334980000000  0.4822450000000  0.6010290000000 1.0
C      1  0.6080200000000  0.5157870000000  0.4989970000000 1.0
C      1  0.5323200000000  0.5156070000000  0.3981810000000 1.0
C      1  0.4117120000000  0.5145590000000  0.4381620000000 1.0
C      1  0.4141080000000  0.5159910000000  0.5650800000000 1.0
C      1  0.5338590000000  0.5133740000000  0.6013490000000 1.0
C      1  0.4294840000000  0.4436150000000  0.4669380000000 1.0
C      1  0.4446730000000  0.4450540000000  0.5562080000000 1.0
C      1  0.5414630000000  0.4399420000000  0.5755850000000 1.0
C      1  0.5794900000000  0.4437030000000  0.4880480000000 1.0
C      1  0.5112570000000  0.4413760000000  0.4169600000000 1.0
C      1  0.4261190000000  0.5562410000000  0.4651400000000 1.0
C      1  0.4438200000000  0.5563110000000  0.5586360000000 1.0
C      1  0.5423710000000  0.5585590000000  0.5777470000000 1.0
C      1  0.5794950000000  0.5562830000000  0.4884130000000 1.0
C      1  0.5098800000000  0.5571680000000  0.4188420000000 1.0
C      1  0.5588430000000  0.4840870000000  0.4144170000000 1.0
C      1  0.4358040000000  0.4833900000000  0.4175480000000 1.0
C      1  0.4031200000000  0.4845090000000  0.5356840000000 1.0
C      1  0.5023360000000  0.4832980000000  0.6041080000000 1.0
C      1  0.5989020000000  0.4844730000000  0.5291670000000 1.0
C      1  0.5587180000000  0.5150560000000  0.4152070000000 1.0
C      1  0.4351820000000  0.5141750000000  0.4172990000000 1.0
C      1  0.4032200000000  0.5155230000000  0.5355820000000 1.0
C      1  0.5032180000000  0.5145510000000  0.6029640000000 1.0
C      1  0.5996430000000  0.5154010000000  0.5292290000000 1.0
C      1  0.4426740000000  0.5003840000000  0.5425070000000 1.0
C      1  0.5220250000000  0.5049730000000  0.5648030000000 1.0
C      1  0.5713680000000  0.5003350000000  0.5006960000000 1.0
C      1  0.5213880000000  0.4990480000000  0.4321180000000 1.0
C      1  0.4419680000000  0.4973850000000  0.4580310000000 1.0
C      1  0.5014490000000  0.5530370000000  0.5092370000000 1.0
C      1  0.4971630000000  0.4482390000000  0.5050500000000 1.0
END
