TITL C-3577090-796-575 2.38235040325023e-07 125000 -49.6052828752996 0 0 10 (D(inf)h) n - 1
REM
REM in /home/bkarasulu/work/CARBON/AIRSS/Generating-Clusters/EDIP-Nigel-Params/with-SteepDescent/Higher-Symm/SD-CG/HFTN-CG
REM
REM
REM
REM
REM
REM ./C.cell (12c818d87b63d06a65506943cc24bca4)
REM
REM compiler GCC version 9.2.1 20190827 (Red Hat 9.2.1-1)
REM options -cpp -mtune=generic -march=x86-64 -g -O0 -fpre-include=/usr/include/finclude/math-vector-fortran.h
REM seed -661521789 2112704276 -1436467809 410239204 915955161 -1949311179 1816072120 -862780236 1933170283 -640627000 -992244722 -102995035 -1358561086 -2083438948 -122704405 -589520181 -1754724445 1790754843 -1596903284 -472477033 -572598822 -1844725046 -647777400 357066451 -256995543 1544209385 1010092144 -994666598 1527352319 996062512 -1839726777 -313582476 -507405621
REM
CELL 1.54180   50.00000   50.00000   50.00000   90.00000   90.00000   90.00000
LATT -1
SFAC C  
C      1  0.4988040000000  0.5004760000000  0.5659630000000 1.0
C      1  0.4988040000000  0.5004760000000  0.5395780000000 1.0
C      1  0.4988040000000  0.5004760000000  0.6179190000000 1.0
C      1  0.4988040000000  0.5004760000000  0.5923490000000 1.0
C      1  0.4988040000000  0.5004760000000  0.4868070000000 1.0
C      1  0.4988040000000  0.5004760000000  0.5131930000000 1.0
C      1  0.4988040000000  0.5004760000000  0.4604220000000 1.0
C      1  0.4988040000000  0.5004760000000  0.3820810000000 1.0
C      1  0.4988040000000  0.5004760000000  0.4340370000000 1.0
C      1  0.4988040000000  0.5004760000000  0.4076520000000 1.0
END
