TITL C-3577079-311-107 -7.51305119050976e-06 125000 -1165.00148664322 0 0 186 (C1) n - 1
REM
REM in /home/bkarasulu/work/CARBON/AIRSS/Generating-Clusters/EDIP-Nigel-Params/with-SteepDescent/Higher-Symm/SD-CG/HFTN-CG
REM
REM
REM
REM
REM
REM ./C.cell (12c818d87b63d06a65506943cc24bca4)
REM
REM compiler GCC version 9.2.1 20190827 (Red Hat 9.2.1-1)
REM options -cpp -mtune=generic -march=x86-64 -g -O0 -fpre-include=/usr/include/finclude/math-vector-fortran.h
REM seed 962251835 -54945078 -1619243118 -215427156 -262101620 -1657343440 1335064378 124481830 1805516433 -1609641437 -983817692 665388285 -351084672 776838535 1677529094 1324163151 81760544 667858256 -776907223 658691331 2071195275 1268961179 1509020354 -609422130 -22546576 -604962518 1182609580 -2102128757 1799920147 -774166415 1744598596 -1848446136 -393022993
REM
CELL 1.54180   50.00000   50.00000   50.00000   90.00000   90.00000   90.00000
LATT -1
SFAC C  
C      1  0.5223340000000  0.3810080000000  0.4575770000000 1.0
C      1  0.4174940000000  0.5731020000000  0.5256400000000 1.0
C      1  0.4553100000000  0.4439130000000  0.4718030000000 1.0
C      1  0.4442090000000  0.4859660000000  0.5083320000000 1.0
C      1  0.5475220000000  0.4811060000000  0.4088990000000 1.0
C      1  0.5360070000000  0.5878160000000  0.5273240000000 1.0
C      1  0.5011840000000  0.4989280000000  0.4395570000000 1.0
C      1  0.4972240000000  0.6092650000000  0.5240220000000 1.0
C      1  0.4681290000000  0.5574430000000  0.4940100000000 1.0
C      1  0.4310800000000  0.5316700000000  0.5242580000000 1.0
C      1  0.5529950000000  0.5437570000000  0.4017940000000 1.0
C      1  0.5170490000000  0.5480740000000  0.4709070000000 1.0
C      1  0.4828770000000  0.3947010000000  0.4848250000000 1.0
C      1  0.3879000000000  0.4566050000000  0.4929270000000 1.0
C      1  0.5203100000000  0.6073510000000  0.5447180000000 1.0
C      1  0.5211610000000  0.5123740000000  0.5271870000000 1.0
C      1  0.4540480000000  0.4370100000000  0.4246600000000 1.0
C      1  0.3955360000000  0.4895020000000  0.5327960000000 1.0
C      1  0.5482990000000  0.5464940000000  0.4648300000000 1.0
C      1  0.4309560000000  0.5223030000000  0.5545690000000 1.0
C      1  0.5944810000000  0.5665720000000  0.5127830000000 1.0
C      1  0.5690470000000  0.5079430000000  0.5322150000000 1.0
C      1  0.4228620000000  0.5516520000000  0.4338760000000 1.0
C      1  0.4620130000000  0.5846340000000  0.5496560000000 1.0
C      1  0.5381340000000  0.4660780000000  0.5559070000000 1.0
C      1  0.5590330000000  0.5786750000000  0.5447540000000 1.0
C      1  0.4271830000000  0.5097000000000  0.5044390000000 1.0
C      1  0.4720920000000  0.4685130000000  0.5942260000000 1.0
C      1  0.4146050000000  0.4445710000000  0.5318500000000 1.0
C      1  0.4887380000000  0.4692840000000  0.5012090000000 1.0
C      1  0.4137440000000  0.4371580000000  0.4492760000000 1.0
C      1  0.4481070000000  0.5407850000000  0.5923580000000 1.0
C      1  0.4836690000000  0.4184450000000  0.5720150000000 1.0
C      1  0.4369610000000  0.5722070000000  0.4483190000000 1.0
C      1  0.4690300000000  0.4468780000000  0.5361170000000 1.0
C      1  0.4615510000000  0.4604580000000  0.4446640000000 1.0
C      1  0.5351630000000  0.4252820000000  0.5775590000000 1.0
C      1  0.5815800000000  0.4864590000000  0.4488760000000 1.0
C      1  0.4088140000000  0.5087520000000  0.4416190000000 1.0
C      1  0.5179770000000  0.5104360000000  0.5580940000000 1.0
C      1  0.5101550000000  0.6139020000000  0.4975330000000 1.0
C      1  0.4634110000000  0.4295390000000  0.5127780000000 1.0
C      1  0.5361580000000  0.4540710000000  0.4133250000000 1.0
C      1  0.5967750000000  0.5416790000000  0.4958340000000 1.0
C      1  0.4854090000000  0.4865730000000  0.5252170000000 1.0
C      1  0.5258240000000  0.5370130000000  0.4140850000000 1.0
C      1  0.5669570000000  0.5328890000000  0.4903850000000 1.0
C      1  0.4996900000000  0.4232280000000  0.4160440000000 1.0
C      1  0.4981170000000  0.3824620000000  0.5079790000000 1.0
C      1  0.4984620000000  0.5254810000000  0.4626160000000 1.0
C      1  0.4719880000000  0.4207380000000  0.4097600000000 1.0
C      1  0.4765650000000  0.5386170000000  0.5867510000000 1.0
C      1  0.4203380000000  0.4175980000000  0.4934390000000 1.0
C      1  0.5578800000000  0.5986010000000  0.4912450000000 1.0
C      1  0.5434410000000  0.5260460000000  0.4407010000000 1.0
C      1  0.5591080000000  0.4291180000000  0.5323770000000 1.0
C      1  0.4825990000000  0.5138250000000  0.4030030000000 1.0
C      1  0.4897620000000  0.4201390000000  0.4447130000000 1.0
C      1  0.6043420000000  0.4934190000000  0.4946130000000 1.0
C      1  0.4529990000000  0.5446910000000  0.4696560000000 1.0
C      1  0.4573790000000  0.4329830000000  0.5609830000000 1.0
C      1  0.5060380000000  0.4375360000000  0.5815150000000 1.0
C      1  0.5436970000000  0.3933560000000  0.5306670000000 1.0
C      1  0.5781130000000  0.4522160000000  0.4847640000000 1.0
C      1  0.4133270000000  0.4459250000000  0.5019310000000 1.0
C      1  0.4363700000000  0.5709450000000  0.5494060000000 1.0
C      1  0.5499720000000  0.4323110000000  0.4272930000000 1.0
C      1  0.4646430000000  0.5780600000000  0.4430340000000 1.0
C      1  0.5248110000000  0.5411120000000  0.5663560000000 1.0
C      1  0.4552550000000  0.6152430000000  0.4710570000000 1.0
C      1  0.5287700000000  0.4950940000000  0.3939060000000 1.0
C      1  0.5268620000000  0.3865230000000  0.5064710000000 1.0
C      1  0.5720170000000  0.5243610000000  0.4151750000000 1.0
C      1  0.5540050000000  0.5947510000000  0.4635600000000 1.0
C      1  0.5023580000000  0.5659260000000  0.4897570000000 1.0
C      1  0.4001230000000  0.5422760000000  0.4770840000000 1.0
C      1  0.4622950000000  0.5025650000000  0.4405570000000 1.0
C      1  0.4702610000000  0.4881480000000  0.3994650000000 1.0
C      1  0.4324450000000  0.5208690000000  0.4764020000000 1.0
C      1  0.5231320000000  0.4839490000000  0.4997370000000 1.0
C      1  0.4021420000000  0.5362460000000  0.4488100000000 1.0
C      1  0.5064970000000  0.5652060000000  0.5666010000000 1.0
C      1  0.4369110000000  0.4634290000000  0.4894100000000 1.0
C      1  0.6037770000000  0.4846600000000  0.5543040000000 1.0
C      1  0.5839560000000  0.4589670000000  0.4564900000000 1.0
C      1  0.5565050000000  0.4478010000000  0.5725970000000 1.0
C      1  0.6069820000000  0.5173080000000  0.5111840000000 1.0
C      1  0.5168350000000  0.5413740000000  0.6041520000000 1.0
C      1  0.5379330000000  0.3793380000000  0.4813210000000 1.0
C      1  0.4387050000000  0.5324490000000  0.4182520000000 1.0
C      1  0.5372330000000  0.4175000000000  0.4767740000000 1.0
C      1  0.3888800000000  0.5330730000000  0.5023190000000 1.0
C      1  0.4190470000000  0.4652720000000  0.4501500000000 1.0
C      1  0.4431860000000  0.4923190000000  0.4641770000000 1.0
C      1  0.5662450000000  0.5058360000000  0.5644150000000 1.0
C      1  0.5729260000000  0.4416560000000  0.4385030000000 1.0
C      1  0.5712070000000  0.4125310000000  0.5117290000000 1.0
C      1  0.4778000000000  0.5325710000000  0.5362970000000 1.0
C      1  0.5198190000000  0.4438030000000  0.5180350000000 1.0
C      1  0.5451000000000  0.4568660000000  0.5263040000000 1.0
C      1  0.5082840000000  0.4604850000000  0.5607900000000 1.0
C      1  0.4445140000000  0.4843980000000  0.4120190000000 1.0
C      1  0.4960630000000  0.3938140000000  0.4582370000000 1.0
C      1  0.4498400000000  0.4559550000000  0.5790060000000 1.0
C      1  0.5657430000000  0.4246220000000  0.4867270000000 1.0
C      1  0.4989170000000  0.4466540000000  0.5378780000000 1.0
C      1  0.5787650000000  0.4409950000000  0.5511640000000 1.0
C      1  0.5598870000000  0.5350860000000  0.5203560000000 1.0
C      1  0.5667460000000  0.4671950000000  0.5940620000000 1.0
C      1  0.5862030000000  0.4874780000000  0.5792990000000 1.0
C      1  0.5825460000000  0.5895530000000  0.5015410000000 1.0
C      1  0.4287570000000  0.4738620000000  0.5676850000000 1.0
C      1  0.4693660000000  0.4968930000000  0.5992880000000 1.0
C      1  0.4097960000000  0.4687610000000  0.5462880000000 1.0
C      1  0.5920910000000  0.5409640000000  0.5555290000000 1.0
C      1  0.4244490000000  0.5009080000000  0.5765900000000 1.0
C      1  0.4812250000000  0.4248380000000  0.4886710000000 1.0
C      1  0.4257620000000  0.5064750000000  0.4170620000000 1.0
C      1  0.5154340000000  0.5642120000000  0.5192990000000 1.0
C      1  0.4793960000000  0.5601480000000  0.4229610000000 1.0
C      1  0.5087950000000  0.5609940000000  0.4186960000000 1.0
C      1  0.5415070000000  0.4842980000000  0.5995790000000 1.0
C      1  0.5314120000000  0.4985700000000  0.4492760000000 1.0
C      1  0.5400960000000  0.4934620000000  0.5698880000000 1.0
C      1  0.4973060000000  0.4554280000000  0.6034650000000 1.0
C      1  0.4302830000000  0.5486880000000  0.5690870000000 1.0
C      1  0.5978480000000  0.4655620000000  0.5059940000000 1.0
C      1  0.4913360000000  0.4713600000000  0.4517030000000 1.0
C      1  0.5336470000000  0.5032850000000  0.4782680000000 1.0
C      1  0.3974340000000  0.5029870000000  0.5066490000000 1.0
C      1  0.5971240000000  0.5014700000000  0.4673640000000 1.0
C      1  0.5144030000000  0.4497990000000  0.4514800000000 1.0
C      1  0.3978740000000  0.5511010000000  0.5238800000000 1.0
C      1  0.5624240000000  0.5029580000000  0.4848420000000 1.0
C      1  0.5695320000000  0.4957470000000  0.4226850000000 1.0
C      1  0.5673730000000  0.5705440000000  0.4553890000000 1.0
C      1  0.5776620000000  0.5734790000000  0.4293160000000 1.0
C      1  0.4281230000000  0.4253460000000  0.4278120000000 1.0
C      1  0.4002620000000  0.4854130000000  0.4568400000000 1.0
C      1  0.4656520000000  0.5376450000000  0.4077160000000 1.0
C      1  0.5277780000000  0.5814680000000  0.4256500000000 1.0
C      1  0.4907200000000  0.5109050000000  0.4863260000000 1.0
C      1  0.5221540000000  0.5906620000000  0.5697590000000 1.0
C      1  0.4280510000000  0.5857720000000  0.5004610000000 1.0
C      1  0.4932480000000  0.5141350000000  0.5170100000000 1.0
C      1  0.4758540000000  0.5982290000000  0.4613640000000 1.0
C      1  0.5286270000000  0.4060760000000  0.5545720000000 1.0
C      1  0.5547730000000  0.5719130000000  0.4129860000000 1.0
C      1  0.5033630000000  0.5942370000000  0.4750660000000 1.0
C      1  0.4339390000000  0.4222310000000  0.4664470000000 1.0
C      1  0.4704800000000  0.5971580000000  0.5255760000000 1.0
C      1  0.4881800000000  0.4666560000000  0.3967630000000 1.0
C      1  0.3894390000000  0.4834760000000  0.4844540000000 1.0
C      1  0.4940340000000  0.5598950000000  0.5923890000000 1.0
C      1  0.6056900000000  0.5150450000000  0.5418520000000 1.0
C      1  0.4930950000000  0.4914610000000  0.5631510000000 1.0
C      1  0.4587390000000  0.5862540000000  0.5003970000000 1.0
C      1  0.5389730000000  0.6168700000000  0.5025330000000 1.0
C      1  0.5114610000000  0.5158060000000  0.4000470000000 1.0
C      1  0.4879060000000  0.3867460000000  0.5337360000000 1.0
C      1  0.5720580000000  0.5327790000000  0.5761220000000 1.0
C      1  0.4724130000000  0.5324940000000  0.4499270000000 1.0
C      1  0.5125070000000  0.4330970000000  0.4914490000000 1.0
C      1  0.5402080000000  0.4603550000000  0.4824540000000 1.0
C      1  0.5483560000000  0.5500070000000  0.5838020000000 1.0
C      1  0.5323960000000  0.4159030000000  0.4450330000000 1.0
C      1  0.4317560000000  0.4227070000000  0.5431170000000 1.0
C      1  0.4435230000000  0.5108680000000  0.5967230000000 1.0
C      1  0.5314990000000  0.5388020000000  0.5227120000000 1.0
C      1  0.4573600000000  0.4809400000000  0.5349310000000 1.0
C      1  0.4402010000000  0.4118470000000  0.5159930000000 1.0
C      1  0.4632090000000  0.5090490000000  0.5569070000000 1.0
C      1  0.5637260000000  0.4849190000000  0.5110750000000 1.0
C      1  0.5188490000000  0.4718570000000  0.6104600000000 1.0
C      1  0.5767770000000  0.5564110000000  0.5345490000000 1.0
C      1  0.4996010000000  0.3997250000000  0.5554850000000 1.0
C      1  0.5499150000000  0.5785480000000  0.5727680000000 1.0
C      1  0.4844740000000  0.4838190000000  0.4781780000000 1.0
C      1  0.4305890000000  0.6093240000000  0.4828970000000 1.0
C      1  0.4913400000000  0.5617550000000  0.5406000000000 1.0
C      1  0.5266390000000  0.5936370000000  0.4534310000000 1.0
C      1  0.4919650000000  0.5162500000000  0.5994590000000 1.0
C      1  0.5078430000000  0.4495370000000  0.4077750000000 1.0
C      1  0.5417700000000  0.4683630000000  0.4508750000000 1.0
C      1  0.5923610000000  0.4637980000000  0.5369590000000 1.0
C      1  0.4583380000000  0.5419280000000  0.5179520000000 1.0
END
