TITL C-3578200-9634-60 -1.25015828425733e-07 125000 -58.8578165443536 0 0 11 (Cs) n - 1
REM
REM in /home/bkarasulu/work/CARBON/AIRSS/Generating-Clusters/EDIP-Nigel-Params/with-SteepDescent/Higher-Symm/SD-CG/HFTN-CG
REM
REM
REM
REM
REM
REM ./C.cell (12c818d87b63d06a65506943cc24bca4)
REM
REM compiler GCC version 9.2.1 20190827 (Red Hat 9.2.1-1)
REM options -cpp -mtune=generic -march=x86-64 -g -O0 -fpre-include=/usr/include/finclude/math-vector-fortran.h
REM seed -1308563599 -1410543935 938463689 531208066 1991699200 1886293646 -1751954589 -1629771332 683898878 -1406558202 -418085490 -1854691189 265913160 1567737671 601970877 806586391 -1853185377 224406439 -460219652 1949953782 398564188 1150149601 -1919699725 -571220428 -1065039170 -1747664907 1706436256 -2036782317 1179622443 17717966 -1556492542 626387745 1040727957
REM
CELL 1.54180   50.00000   50.00000   50.00000   90.00000   90.00000   90.00000
LATT -1
SFAC C  
C      1  0.4799100000000  0.4867730000000  0.5258700000000 1.0
C      1  0.5128990000000  0.4882160000000  0.4717530000000 1.0
C      1  0.4645500000000  0.5087230000000  0.5194680000000 1.0
C      1  0.5284180000000  0.5105410000000  0.4755280000000 1.0
C      1  0.5176930000000  0.4868390000000  0.5259000000000 1.0
C      1  0.4847830000000  0.4881660000000  0.4717310000000 1.0
C      1  0.5329850000000  0.5088430000000  0.5195220000000 1.0
C      1  0.4691800000000  0.5104370000000  0.4754810000000 1.0
C      1  0.5395390000000  0.5221650000000  0.4970980000000 1.0
C      1  0.4579840000000  0.5220220000000  0.4970340000000 1.0
C      1  0.4988370000000  0.4754840000000  0.5054730000000 1.0
END
