TITL C-3577088-510-464 2.92990845439822e-06 125000 -1157.71753927121 0 0 180 (C1) n - 1
REM
REM in /home/bkarasulu/work/CARBON/AIRSS/Generating-Clusters/EDIP-Nigel-Params/with-SteepDescent/Higher-Symm/SD-CG/HFTN-CG
REM
REM
REM
REM
REM
REM ./C.cell (12c818d87b63d06a65506943cc24bca4)
REM
REM compiler GCC version 9.2.1 20190827 (Red Hat 9.2.1-1)
REM options -cpp -mtune=generic -march=x86-64 -g -O0 -fpre-include=/usr/include/finclude/math-vector-fortran.h
REM seed 1279312405 1885206899 -1163169539 -50555808 -1073602067 540858845 1805743658 463438404 -1875057654 -1608358794 -2004870987 615458326 -995833623 -506986825 2104096185 1900209189 1913937955 -2112422043 -1691101170 2017775843 49738413 1570536393 -30351105 733095698 -148187281 -221591561 278434092 159384662 -380728298 -823961609 950094716 -1533121717 -813477674
REM
CELL 1.54180   50.00000   50.00000   50.00000   90.00000   90.00000   90.00000
LATT -1
SFAC C  
C      1  0.4526660000000  0.6181310000000  0.5298430000000 1.0
C      1  0.4570310000000  0.6123690000000  0.4779880000000 1.0
C      1  0.4984680000000  0.6148330000000  0.4479540000000 1.0
C      1  0.5467900000000  0.6178620000000  0.4698730000000 1.0
C      1  0.5427160000000  0.6127700000000  0.5219400000000 1.0
C      1  0.5012150000000  0.6153860000000  0.5518000000000 1.0
C      1  0.5475840000000  0.3818880000000  0.5299570000000 1.0
C      1  0.5434530000000  0.3870500000000  0.4772990000000 1.0
C      1  0.5013450000000  0.3850640000000  0.4468210000000 1.0
C      1  0.4526450000000  0.3824720000000  0.4694700000000 1.0
C      1  0.4569100000000  0.3872020000000  0.5221560000000 1.0
C      1  0.4989690000000  0.3841500000000  0.5529410000000 1.0
C      1  0.4880050000000  0.5204930000000  0.5560470000000 1.0
C      1  0.4470210000000  0.5207050000000  0.5164350000000 1.0
C      1  0.4597950000000  0.5128180000000  0.4654470000000 1.0
C      1  0.5130310000000  0.5186730000000  0.4449580000000 1.0
C      1  0.5534880000000  0.5194920000000  0.4838200000000 1.0
C      1  0.5384450000000  0.5138750000000  0.5387760000000 1.0
C      1  0.5091400000000  0.4762830000000  0.5523140000000 1.0
C      1  0.5525110000000  0.4776940000000  0.5177410000000 1.0
C      1  0.5398470000000  0.4818560000000  0.4668290000000 1.0
C      1  0.4915010000000  0.4801860000000  0.4449590000000 1.0
C      1  0.4428630000000  0.4775880000000  0.4853910000000 1.0
C      1  0.4601890000000  0.4833090000000  0.5347760000000 1.0
C      1  0.5563540000000  0.5450250000000  0.4424400000000 1.0
C      1  0.5772430000000  0.5426700000000  0.5192070000000 1.0
C      1  0.5219180000000  0.5448770000000  0.5794890000000 1.0
C      1  0.4426210000000  0.5460440000000  0.5582300000000 1.0
C      1  0.4218620000000  0.5423840000000  0.4807670000000 1.0
C      1  0.4784230000000  0.5438420000000  0.4216180000000 1.0
C      1  0.4452370000000  0.4572940000000  0.4440940000000 1.0
C      1  0.4205670000000  0.4564190000000  0.5197600000000 1.0
C      1  0.4791960000000  0.4553670000000  0.5767860000000 1.0
C      1  0.5550020000000  0.4562240000000  0.5563180000000 1.0
C      1  0.5781100000000  0.4567530000000  0.4809090000000 1.0
C      1  0.5229000000000  0.4569930000000  0.4232050000000 1.0
C      1  0.5849280000000  0.5404200000000  0.4516150000000 1.0
C      1  0.5838570000000  0.5396850000000  0.5484550000000 1.0
C      1  0.4987550000000  0.5418240000000  0.5996580000000 1.0
C      1  0.4139810000000  0.5403630000000  0.5478860000000 1.0
C      1  0.4161250000000  0.5397040000000  0.4510770000000 1.0
C      1  0.5013340000000  0.5404950000000  0.4017420000000 1.0
C      1  0.4168050000000  0.4617010000000  0.4537400000000 1.0
C      1  0.4167270000000  0.4615310000000  0.5496110000000 1.0
C      1  0.5030400000000  0.4620710000000  0.5939990000000 1.0
C      1  0.5828520000000  0.4613680000000  0.5452370000000 1.0
C      1  0.5820140000000  0.4617040000000  0.4511500000000 1.0
C      1  0.4989160000000  0.4618720000000  0.4052650000000 1.0
C      1  0.5292110000000  0.4381760000000  0.4976280000000 1.0
C      1  0.5185540000000  0.4250000000000  0.5225010000000 1.0
C      1  0.4916370000000  0.4376660000000  0.5278800000000 1.0
C      1  0.4698240000000  0.4387410000000  0.5019050000000 1.0
C      1  0.4808610000000  0.4261640000000  0.4769710000000 1.0
C      1  0.5077290000000  0.4387650000000  0.4714250000000 1.0
C      1  0.4707780000000  0.5591030000000  0.4977850000000 1.0
C      1  0.4808420000000  0.5720520000000  0.5229970000000 1.0
C      1  0.5073460000000  0.5594590000000  0.5289520000000 1.0
C      1  0.5291970000000  0.5592500000000  0.5023000000000 1.0
C      1  0.5189070000000  0.5713480000000  0.4769340000000 1.0
C      1  0.4925280000000  0.5586160000000  0.4713170000000 1.0
C      1  0.4740160000000  0.5581160000000  0.5928470000000 1.0
C      1  0.4056440000000  0.5569990000000  0.5241800000000 1.0
C      1  0.4335050000000  0.5562430000000  0.4329400000000 1.0
C      1  0.5259600000000  0.5571370000000  0.4076140000000 1.0
C      1  0.5932650000000  0.5568130000000  0.4756100000000 1.0
C      1  0.5667760000000  0.5563180000000  0.5668200000000 1.0
C      1  0.5268820000000  0.4438140000000  0.5918100000000 1.0
C      1  0.5935320000000  0.4434770000000  0.5237460000000 1.0
C      1  0.5671930000000  0.4439410000000  0.4322350000000 1.0
C      1  0.4746050000000  0.4447080000000  0.4088020000000 1.0
C      1  0.4064070000000  0.4438380000000  0.4756270000000 1.0
C      1  0.4341290000000  0.4448530000000  0.5672490000000 1.0
C      1  0.4510340000000  0.4627300000000  0.5841910000000 1.0
C      1  0.3988240000000  0.4612020000000  0.4990230000000 1.0
C      1  0.4509330000000  0.4620290000000  0.4142980000000 1.0
C      1  0.5513790000000  0.4611090000000  0.4130120000000 1.0
C      1  0.6010310000000  0.4608420000000  0.5001430000000 1.0
C      1  0.5512680000000  0.4607020000000  0.5863240000000 1.0
C      1  0.5512830000000  0.5387270000000  0.5851690000000 1.0
C      1  0.5987600000000  0.5383870000000  0.4986680000000 1.0
C      1  0.5491310000000  0.5393950000000  0.4138200000000 1.0
C      1  0.4495580000000  0.5386080000000  0.4150160000000 1.0
C      1  0.3995340000000  0.5386930000000  0.5009690000000 1.0
C      1  0.4510800000000  0.5401790000000  0.5868230000000 1.0
C      1  0.4595240000000  0.4901930000000  0.4081000000000 1.0
C      1  0.5607720000000  0.4896930000000  0.4168670000000 1.0
C      1  0.6012980000000  0.4893050000000  0.5099850000000 1.0
C      1  0.5443690000000  0.4893650000000  0.5935460000000 1.0
C      1  0.4430660000000  0.4906950000000  0.5790620000000 1.0
C      1  0.3999820000000  0.4894560000000  0.4891740000000 1.0
C      1  0.5399090000000  0.5114540000000  0.4102290000000 1.0
C      1  0.4418690000000  0.5109010000000  0.4213130000000 1.0
C      1  0.4001180000000  0.5107100000000  0.5111990000000 1.0
C      1  0.4609810000000  0.5124900000000  0.5902800000000 1.0
C      1  0.5588050000000  0.5108540000000  0.5781170000000 1.0
C      1  0.5966760000000  0.5108250000000  0.4885990000000 1.0
C      1  0.5021640000000  0.5909840000000  0.5678910000000 1.0
C      1  0.4400150000000  0.5923550000000  0.5373870000000 1.0
C      1  0.4427940000000  0.5883480000000  0.4702350000000 1.0
C      1  0.4977270000000  0.5901390000000  0.4322710000000 1.0
C      1  0.5594370000000  0.5920610000000  0.4624550000000 1.0
C      1  0.5569590000000  0.5887550000000  0.5297730000000 1.0
C      1  0.4980910000000  0.4090070000000  0.5685720000000 1.0
C      1  0.5601740000000  0.4077990000000  0.5375180000000 1.0
C      1  0.5582890000000  0.4107260000000  0.4694620000000 1.0
C      1  0.5024320000000  0.4100030000000  0.4313390000000 1.0
C      1  0.4398490000000  0.4083310000000  0.4620110000000 1.0
C      1  0.4418880000000  0.4106330000000  0.5303190000000 1.0
C      1  0.4609620000000  0.4281970000000  0.4535630000000 1.0
C      1  0.5204290000000  0.4316510000000  0.4424710000000 1.0
C      1  0.5603110000000  0.4314750000000  0.4907040000000 1.0
C      1  0.5388780000000  0.4273590000000  0.5461110000000 1.0
C      1  0.4801800000000  0.4306300000000  0.5573710000000 1.0
C      1  0.4392080000000  0.4314980000000  0.5092180000000 1.0
C      1  0.5391190000000  0.5719100000000  0.4534110000000 1.0
C      1  0.4804660000000  0.5676200000000  0.4425760000000 1.0
C      1  0.4401710000000  0.5671390000000  0.4909600000000 1.0
C      1  0.4605400000000  0.5725220000000  0.5466380000000 1.0
C      1  0.5196210000000  0.5684150000000  0.5579390000000 1.0
C      1  0.5594040000000  0.5675350000000  0.5090650000000 1.0
C      1  0.5748520000000  0.5788480000000  0.4846060000000 1.0
C      1  0.5486320000000  0.5772860000000  0.5553620000000 1.0
C      1  0.4751740000000  0.5804990000000  0.5726050000000 1.0
C      1  0.4246180000000  0.5787360000000  0.5152640000000 1.0
C      1  0.4515580000000  0.5768560000000  0.4448260000000 1.0
C      1  0.5247260000000  0.5798230000000  0.4274800000000 1.0
C      1  0.4239440000000  0.4208710000000  0.4843970000000 1.0
C      1  0.4508800000000  0.4225020000000  0.5557610000000 1.0
C      1  0.5252940000000  0.4200680000000  0.5727200000000 1.0
C      1  0.5758620000000  0.4205940000000  0.5151460000000 1.0
C      1  0.5494660000000  0.4225080000000  0.4439740000000 1.0
C      1  0.4753460000000  0.4210270000000  0.4273330000000 1.0
C      1  0.5458280000000  0.5190240000000  0.4531680000000 1.0
C      1  0.5625790000000  0.5154850000000  0.5163320000000 1.0
C      1  0.5167560000000  0.5185760000000  0.5663520000000 1.0
C      1  0.4531300000000  0.5198360000000  0.5474650000000 1.0
C      1  0.4358000000000  0.5149990000000  0.4855080000000 1.0
C      1  0.4830800000000  0.5170390000000  0.4348900000000 1.0
C      1  0.4603240000000  0.4842150000000  0.4516050000000 1.0
C      1  0.4346870000000  0.4834640000000  0.5154380000000 1.0
C      1  0.4819660000000  0.4897620000000  0.5587470000000 1.0
C      1  0.5380110000000  0.4832840000000  0.5503910000000 1.0
C      1  0.5634580000000  0.4822590000000  0.4883290000000 1.0
C      1  0.5237850000000  0.4832980000000  0.4398640000000 1.0
C      1  0.4960730000000  0.4676930000000  0.4723270000000 1.0
C      1  0.5177840000000  0.4816420000000  0.4848200000000 1.0
C      1  0.5260680000000  0.4666090000000  0.5077670000000 1.0
C      1  0.5023250000000  0.4662840000000  0.5264350000000 1.0
C      1  0.4808490000000  0.4820930000000  0.5147910000000 1.0
C      1  0.4714930000000  0.4675590000000  0.4917340000000 1.0
C      1  0.5041200000000  0.5293800000000  0.4725690000000 1.0
C      1  0.4820250000000  0.5142920000000  0.4841070000000 1.0
C      1  0.4734770000000  0.5301320000000  0.5071430000000 1.0
C      1  0.4958850000000  0.5304130000000  0.5282630000000 1.0
C      1  0.5181960000000  0.5156660000000  0.5177510000000 1.0
C      1  0.5268570000000  0.5300100000000  0.4937430000000 1.0
C      1  0.4755540000000  0.3766830000000  0.5398030000000 1.0
C      1  0.4522050000000  0.3769030000000  0.4968230000000 1.0
C      1  0.4759580000000  0.3765680000000  0.4549920000000 1.0
C      1  0.5247330000000  0.3768590000000  0.4595380000000 1.0
C      1  0.5480440000000  0.3765280000000  0.5025660000000 1.0
C      1  0.5242870000000  0.3758120000000  0.5443810000000 1.0
C      1  0.5248310000000  0.6239740000000  0.5398800000000 1.0
C      1  0.5479120000000  0.6237670000000  0.4970610000000 1.0
C      1  0.5236690000000  0.6242750000000  0.4554010000000 1.0
C      1  0.4748650000000  0.6234200000000  0.4599050000000 1.0
C      1  0.4515610000000  0.6237840000000  0.5026080000000 1.0
C      1  0.4759250000000  0.6244950000000  0.5441550000000 1.0
C      1  0.5893830000000  0.5117840000000  0.4590580000000 1.0
C      1  0.5803310000000  0.5113500000000  0.5568580000000 1.0
C      1  0.4897310000000  0.5130430000000  0.6006480000000 1.0
C      1  0.4104910000000  0.5116270000000  0.5396930000000 1.0
C      1  0.4203430000000  0.5116750000000  0.4425390000000 1.0
C      1  0.5108210000000  0.5121430000000  0.4010800000000 1.0
C      1  0.4097330000000  0.4897950000000  0.4602100000000 1.0
C      1  0.4221670000000  0.4899860000000  0.5572120000000 1.0
C      1  0.5125730000000  0.4910890000000  0.5939490000000 1.0
C      1  0.5895800000000  0.4891970000000  0.5383950000000 1.0
C      1  0.5765330000000  0.4896620000000  0.4430460000000 1.0
C      1  0.4898510000000  0.4899430000000  0.4021300000000 1.0
END
