TITL C-3578205-846-492 -3.82289899535688e-06 125000 -725.705685695765 0 0 118 (C1) n - 1
REM
REM in /home/bkarasulu/work/CARBON/AIRSS/Generating-Clusters/EDIP-Nigel-Params/with-SteepDescent/Higher-Symm/SD-CG/HFTN-CG
REM
REM
REM
REM
REM
REM ./C.cell (12c818d87b63d06a65506943cc24bca4)
REM
REM compiler GCC version 9.2.1 20190827 (Red Hat 9.2.1-1)
REM options -cpp -mtune=generic -march=x86-64 -g -O0 -fpre-include=/usr/include/finclude/math-vector-fortran.h
REM seed 912920732 -1772356757 -1016293033 -1622951540 -1636917025 -449299772 -431028957 1807968756 1796391700 -1695938920 1525460713 1133039693 83941068 -302782707 149746798 -1129593407 1122771733 -71239303 1271002242 1968965785 1414944743 -2096396880 -315808326 -24582718 1538194490 -1155759965 -1918955737 -1247520137 1274499592 1364602490 -1277653750 706565605 -1706698851
REM
CELL 1.54180   50.00000   50.00000   50.00000   90.00000   90.00000   90.00000
LATT -1
SFAC C  
C      1  0.4889390000000  0.6113810000000  0.5402260000000 1.0
C      1  0.4288680000000  0.5832420000000  0.5305970000000 1.0
C      1  0.4064010000000  0.5187260000000  0.5421400000000 1.0
C      1  0.4174610000000  0.4482710000000  0.5452950000000 1.0
C      1  0.4725770000000  0.4011300000000  0.5442320000000 1.0
C      1  0.5454280000000  0.4022590000000  0.5403070000000 1.0
C      1  0.5919380000000  0.4515810000000  0.5346450000000 1.0
C      1  0.5966800000000  0.5227950000000  0.5463400000000 1.0
C      1  0.5531270000000  0.5797760000000  0.5497310000000 1.0
C      1  0.4738410000000  0.5331040000000  0.4395910000000 1.0
C      1  0.4629470000000  0.5046150000000  0.4551940000000 1.0
C      1  0.4619270000000  0.4769180000000  0.4406400000000 1.0
C      1  0.4834530000000  0.4581760000000  0.4538520000000 1.0
C      1  0.5139100000000  0.4559660000000  0.4433370000000 1.0
C      1  0.5370570000000  0.4730740000000  0.4569940000000 1.0
C      1  0.5396070000000  0.5041650000000  0.4498150000000 1.0
C      1  0.5173330000000  0.5307170000000  0.4677160000000 1.0
C      1  0.5004980000000  0.5445560000000  0.4479900000000 1.0
C      1  0.5621280000000  0.4620520000000  0.4480280000000 1.0
C      1  0.5672120000000  0.5116280000000  0.4562920000000 1.0
C      1  0.5425200000000  0.5449380000000  0.4649610000000 1.0
C      1  0.5018960000000  0.5722560000000  0.4519540000000 1.0
C      1  0.4537100000000  0.5532530000000  0.4449980000000 1.0
C      1  0.4354830000000  0.5130880000000  0.4571280000000 1.0
C      1  0.4363860000000  0.4658970000000  0.4489190000000 1.0
C      1  0.4739580000000  0.4313010000000  0.4521890000000 1.0
C      1  0.5225020000000  0.4289810000000  0.4491400000000 1.0
C      1  0.5393320000000  0.4175960000000  0.4684940000000 1.0
C      1  0.5848590000000  0.4606600000000  0.4642990000000 1.0
C      1  0.5847500000000  0.5234330000000  0.4753290000000 1.0
C      1  0.5478280000000  0.5669790000000  0.4811500000000 1.0
C      1  0.4931490000000  0.5921400000000  0.4695070000000 1.0
C      1  0.4339720000000  0.5646720000000  0.4615170000000 1.0
C      1  0.4123440000000  0.5090980000000  0.4717820000000 1.0
C      1  0.4313910000000  0.4527020000000  0.4734750000000 1.0
C      1  0.4802060000000  0.4157130000000  0.4743840000000 1.0
C      1  0.4956990000000  0.4549480000000  0.5761040000000 1.0
C      1  0.5237830000000  0.4564370000000  0.5793270000000 1.0
C      1  0.5309170000000  0.4800960000000  0.5662830000000 1.0
C      1  0.5437820000000  0.5029040000000  0.5767510000000 1.0
C      1  0.5347560000000  0.5235210000000  0.5591590000000 1.0
C      1  0.5086290000000  0.5338940000000  0.5667910000000 1.0
C      1  0.4759400000000  0.5158110000000  0.5764230000000 1.0
C      1  0.4666620000000  0.4884020000000  0.5780480000000 1.0
C      1  0.4795300000000  0.4693420000000  0.5944430000000 1.0
C      1  0.5657220000000  0.5602720000000  0.5044960000000 1.0
C      1  0.5103330000000  0.5974140000000  0.4938870000000 1.0
C      1  0.4424460000000  0.5890080000000  0.4792840000000 1.0
C      1  0.4010600000000  0.5324900000000  0.4899490000000 1.0
C      1  0.4164320000000  0.4656770000000  0.4963190000000 1.0
C      1  0.4601740000000  0.4177450000000  0.4960570000000 1.0
C      1  0.5261970000000  0.4054830000000  0.4924600000000 1.0
C      1  0.5853040000000  0.4369000000000  0.4840860000000 1.0
C      1  0.6045430000000  0.5043570000000  0.4868170000000 1.0
C      1  0.5577490000000  0.4850420000000  0.5001140000000 1.0
C      1  0.5515370000000  0.5116370000000  0.5095160000000 1.0
C      1  0.5048010000000  0.5441130000000  0.4953620000000 1.0
C      1  0.4754180000000  0.5521860000000  0.4924840000000 1.0
C      1  0.4520370000000  0.5359200000000  0.4993060000000 1.0
C      1  0.4533820000000  0.5059660000000  0.5035930000000 1.0
C      1  0.4805580000000  0.4660220000000  0.4832090000000 1.0
C      1  0.5072200000000  0.4563560000000  0.4979330000000 1.0
C      1  0.5383790000000  0.4652260000000  0.4869580000000 1.0
C      1  0.4239210000000  0.5787870000000  0.5022560000000 1.0
C      1  0.4014830000000  0.5119050000000  0.5144580000000 1.0
C      1  0.4284930000000  0.4538620000000  0.5196820000000 1.0
C      1  0.4779280000000  0.4127120000000  0.5186840000000 1.0
C      1  0.5441820000000  0.4123400000000  0.5138130000000 1.0
C      1  0.5978300000000  0.4549700000000  0.5062260000000 1.0
C      1  0.5979290000000  0.5249580000000  0.5178080000000 1.0
C      1  0.5452170000000  0.5674190000000  0.5251960000000 1.0
C      1  0.4894530000000  0.6038030000000  0.5129300000000 1.0
C      1  0.4884740000000  0.4646720000000  0.4035840000000 1.0
C      1  0.5137730000000  0.4611710000000  0.4141830000000 1.0
C      1  0.5319260000000  0.4809390000000  0.4081110000000 1.0
C      1  0.5369320000000  0.5054040000000  0.4199560000000 1.0
C      1  0.5248860000000  0.5269460000000  0.4074480000000 1.0
C      1  0.5001570000000  0.5338490000000  0.3996650000000 1.0
C      1  0.4752260000000  0.5281510000000  0.4102610000000 1.0
C      1  0.4637770000000  0.5044430000000  0.4020200000000 1.0
C      1  0.4659460000000  0.4786380000000  0.4113770000000 1.0
C      1  0.6027180000000  0.4979890000000  0.5570260000000 1.0
C      1  0.5743110000000  0.5674780000000  0.5627390000000 1.0
C      1  0.5098140000000  0.6051990000000  0.5571670000000 1.0
C      1  0.4399920000000  0.6067540000000  0.5399130000000 1.0
C      1  0.4014970000000  0.5445250000000  0.5505380000000 1.0
C      1  0.4086900000000  0.4703950000000  0.5595520000000 1.0
C      1  0.4494320000000  0.4090220000000  0.5572660000000 1.0
C      1  0.5223460000000  0.3959830000000  0.5542260000000 1.0
C      1  0.5880570000000  0.4264080000000  0.5454110000000 1.0
C      1  0.4633310000000  0.6156340000000  0.5496530000000 1.0
C      1  0.4127950000000  0.5684780000000  0.5474630000000 1.0
C      1  0.4063000000000  0.4971030000000  0.5594530000000 1.0
C      1  0.4296900000000  0.4271050000000  0.5583490000000 1.0
C      1  0.4958400000000  0.3948930000000  0.5578800000000 1.0
C      1  0.5688570000000  0.4093530000000  0.5530890000000 1.0
C      1  0.6001580000000  0.4720470000000  0.5512990000000 1.0
C      1  0.5893960000000  0.5453410000000  0.5609630000000 1.0
C      1  0.5330190000000  0.5933200000000  0.5628570000000 1.0
C      1  0.4265860000000  0.5491560000000  0.4895900000000 1.0
C      1  0.4225040000000  0.4947610000000  0.4976430000000 1.0
C      1  0.4553120000000  0.4473690000000  0.4927790000000 1.0
C      1  0.5032470000000  0.4242250000000  0.4942980000000 1.0
C      1  0.5546310000000  0.4376150000000  0.4870930000000 1.0
C      1  0.5860020000000  0.4806360000000  0.4896120000000 1.0
C      1  0.5732080000000  0.5314230000000  0.5025640000000 1.0
C      1  0.5230680000000  0.5705450000000  0.4997240000000 1.0
C      1  0.4705530000000  0.5814910000000  0.4879050000000 1.0
C      1  0.4631140000000  0.4782010000000  0.5502530000000 1.0
C      1  0.4848460000000  0.4567790000000  0.5476140000000 1.0
C      1  0.5052950000000  0.4654320000000  0.5267820000000 1.0
C      1  0.5252500000000  0.4833150000000  0.5383810000000 1.0
C      1  0.5302400000000  0.5123760000000  0.5305800000000 1.0
C      1  0.5059490000000  0.5267690000000  0.5198620000000 1.0
C      1  0.4928890000000  0.5394460000000  0.5429600000000 1.0
C      1  0.4685940000000  0.5248390000000  0.5497450000000 1.0
C      1  0.4648550000000  0.5015950000000  0.5317700000000 1.0
C      1  0.4725230000000  0.4957410000000  0.4828450000000 1.0
END
