TITL C-3577085-527-92 -8.3462913835212e-06 125000 -1134.14702585528 0 0 183 (C1) n - 1
REM
REM in /home/bkarasulu/work/CARBON/AIRSS/Generating-Clusters/EDIP-Nigel-Params/with-SteepDescent/Higher-Symm/SD-CG/HFTN-CG
REM
REM
REM
REM
REM
REM ./C.cell (12c818d87b63d06a65506943cc24bca4)
REM
REM compiler GCC version 9.2.1 20190827 (Red Hat 9.2.1-1)
REM options -cpp -mtune=generic -march=x86-64 -g -O0 -fpre-include=/usr/include/finclude/math-vector-fortran.h
REM seed 2004333408 -865322537 -2030937701 980276078 122180733 1392134554 -1959666305 -434237240 -436723222 -1410011780 -1830047837 -1524097417 1476881407 1991928921 149052478 -1943526453 -1659690815 1835921692 -1661850010 -306080081 1256699254 -861069016 -645227893 1643304052 1532702466 -1537920619 637533642 -1912505368 638937768 1345273181 -1390775363 608748331 -667921948
REM
CELL 1.54180   50.00000   50.00000   50.00000   90.00000   90.00000   90.00000
LATT -1
SFAC C  
C      1  0.5257800000000  0.5502480000000  0.5447630000000 1.0
C      1  0.5262540000000  0.4487350000000  0.4640520000000 1.0
C      1  0.4797840000000  0.4383880000000  0.4793820000000 1.0
C      1  0.4801340000000  0.5620030000000  0.5248000000000 1.0
C      1  0.5200950000000  0.4774020000000  0.4630790000000 1.0
C      1  0.5196180000000  0.5205530000000  0.5399530000000 1.0
C      1  0.4645240000000  0.4056310000000  0.4350380000000 1.0
C      1  0.4629470000000  0.5979340000000  0.5677330000000 1.0
C      1  0.4365170000000  0.4884510000000  0.5034080000000 1.0
C      1  0.4398860000000  0.5151900000000  0.4903210000000 1.0
C      1  0.5084230000000  0.4840840000000  0.5055220000000 1.0
C      1  0.5175010000000  0.5259260000000  0.4779590000000 1.0
C      1  0.5753260000000  0.5235100000000  0.5790200000000 1.0
C      1  0.5719500000000  0.4762940000000  0.4163190000000 1.0
C      1  0.6169820000000  0.5456980000000  0.4699810000000 1.0
C      1  0.6128630000000  0.4532180000000  0.5266270000000 1.0
C      1  0.5164270000000  0.4560880000000  0.5861280000000 1.0
C      1  0.5132910000000  0.5528220000000  0.4117180000000 1.0
C      1  0.5550130000000  0.5094150000000  0.4076530000000 1.0
C      1  0.5569170000000  0.4921290000000  0.5926440000000 1.0
C      1  0.4422770000000  0.4467780000000  0.4167590000000 1.0
C      1  0.4416130000000  0.5530270000000  0.5803790000000 1.0
C      1  0.4739570000000  0.4809300000000  0.3987530000000 1.0
C      1  0.4742530000000  0.5176520000000  0.5968260000000 1.0
C      1  0.5255330000000  0.5055000000000  0.5642770000000 1.0
C      1  0.5266840000000  0.4879900000000  0.4364760000000 1.0
C      1  0.5434450000000  0.5658260000000  0.5762210000000 1.0
C      1  0.5457420000000  0.4324640000000  0.4225170000000 1.0
C      1  0.5137260000000  0.6106950000000  0.4918730000000 1.0
C      1  0.5181640000000  0.3854820000000  0.5142760000000 1.0
C      1  0.4835750000000  0.3929940000000  0.4511060000000 1.0
C      1  0.4839000000000  0.6108950000000  0.5531580000000 1.0
C      1  0.5299800000000  0.3950350000000  0.4646160000000 1.0
C      1  0.5309490000000  0.6079960000000  0.5404530000000 1.0
C      1  0.4856100000000  0.4273870000000  0.5415760000000 1.0
C      1  0.4929680000000  0.5633240000000  0.4632120000000 1.0
C      1  0.5102770000000  0.5008990000000  0.3828450000000 1.0
C      1  0.5100730000000  0.4984320000000  0.6148790000000 1.0
C      1  0.6145620000000  0.4896680000000  0.4487330000000 1.0
C      1  0.6187760000000  0.5070780000000  0.5487520000000 1.0
C      1  0.4384690000000  0.5229870000000  0.4060650000000 1.0
C      1  0.4411550000000  0.4775890000000  0.5909960000000 1.0
C      1  0.5100480000000  0.4462710000000  0.5392100000000 1.0
C      1  0.5160950000000  0.5452380000000  0.4554780000000 1.0
C      1  0.4481940000000  0.5065150000000  0.5541210000000 1.0
C      1  0.4471660000000  0.4917870000000  0.4431870000000 1.0
C      1  0.5089590000000  0.4357900000000  0.4861840000000 1.0
C      1  0.5098540000000  0.5648580000000  0.5218020000000 1.0
C      1  0.5693390000000  0.4221490000000  0.4625350000000 1.0
C      1  0.5721610000000  0.5743770000000  0.5442820000000 1.0
C      1  0.5110830000000  0.4698560000000  0.5593850000000 1.0
C      1  0.5094700000000  0.5285470000000  0.4314700000000 1.0
C      1  0.4899790000000  0.6051470000000  0.4765770000000 1.0
C      1  0.4939400000000  0.3853720000000  0.5308510000000 1.0
C      1  0.5556210000000  0.5408500000000  0.5904340000000 1.0
C      1  0.5539650000000  0.4569680000000  0.4046080000000 1.0
C      1  0.4830860000000  0.5608410000000  0.4101780000000 1.0
C      1  0.4866230000000  0.4455550000000  0.5921710000000 1.0
C      1  0.5389610000000  0.4359220000000  0.5627320000000 1.0
C      1  0.5367290000000  0.5656370000000  0.4401600000000 1.0
C      1  0.5887510000000  0.5569550000000  0.4323340000000 1.0
C      1  0.5892770000000  0.4426240000000  0.5672120000000 1.0
C      1  0.4279080000000  0.4486660000000  0.4440500000000 1.0
C      1  0.4281330000000  0.5488780000000  0.5514660000000 1.0
C      1  0.5462010000000  0.4504580000000  0.5093500000000 1.0
C      1  0.5522990000000  0.5545120000000  0.4926420000000 1.0
C      1  0.5189830000000  0.4058720000000  0.4902590000000 1.0
C      1  0.5207550000000  0.5935450000000  0.5162030000000 1.0
C      1  0.4103940000000  0.4484580000000  0.5200370000000 1.0
C      1  0.4076840000000  0.5552880000000  0.4781890000000 1.0
C      1  0.5166060000000  0.4544950000000  0.5106220000000 1.0
C      1  0.5291450000000  0.5396570000000  0.5006880000000 1.0
C      1  0.4916980000000  0.5630350000000  0.5865850000000 1.0
C      1  0.4925030000000  0.4373280000000  0.4121470000000 1.0
C      1  0.4593740000000  0.4166950000000  0.4771510000000 1.0
C      1  0.4594560000000  0.5825370000000  0.5324250000000 1.0
C      1  0.3936200000000  0.5234710000000  0.5207840000000 1.0
C      1  0.3921500000000  0.4790010000000  0.4797920000000 1.0
C      1  0.5963680000000  0.5110450000000  0.4444690000000 1.0
C      1  0.5991870000000  0.4882060000000  0.5561220000000 1.0
C      1  0.4714420000000  0.5474740000000  0.4762480000000 1.0
C      1  0.4567400000000  0.4358340000000  0.5166250000000 1.0
C      1  0.5277950000000  0.5200560000000  0.3983060000000 1.0
C      1  0.5303390000000  0.4795500000000  0.6029890000000 1.0
C      1  0.5667250000000  0.4617910000000  0.5283970000000 1.0
C      1  0.5690870000000  0.5420320000000  0.4717270000000 1.0
C      1  0.4912340000000  0.5404090000000  0.6046780000000 1.0
C      1  0.4911380000000  0.4579160000000  0.3915710000000 1.0
C      1  0.5162350000000  0.4725500000000  0.3874370000000 1.0
C      1  0.5160130000000  0.5267290000000  0.6100450000000 1.0
C      1  0.4457290000000  0.5300740000000  0.5377510000000 1.0
C      1  0.4449210000000  0.4676560000000  0.4596610000000 1.0
C      1  0.5531900000000  0.5843710000000  0.4972900000000 1.0
C      1  0.5506860000000  0.4191540000000  0.5076440000000 1.0
C      1  0.4702130000000  0.3907670000000  0.4866510000000 1.0
C      1  0.4654120000000  0.6081080000000  0.5192010000000 1.0
C      1  0.5107090000000  0.4016710000000  0.4438140000000 1.0
C      1  0.5107240000000  0.6015240000000  0.5602460000000 1.0
C      1  0.4715760000000  0.5344620000000  0.5237990000000 1.0
C      1  0.4698790000000  0.4654450000000  0.4763050000000 1.0
C      1  0.5625030000000  0.5939410000000  0.5256980000000 1.0
C      1  0.5613730000000  0.4057650000000  0.4827170000000 1.0
C      1  0.4141700000000  0.5310260000000  0.4340630000000 1.0
C      1  0.4143340000000  0.4689650000000  0.5650460000000 1.0
C      1  0.4115970000000  0.5837250000000  0.5178570000000 1.0
C      1  0.4210750000000  0.4192890000000  0.4837130000000 1.0
C      1  0.4457620000000  0.5272300000000  0.5959260000000 1.0
C      1  0.4452200000000  0.4727510000000  0.4012200000000 1.0
C      1  0.5396120000000  0.3995280000000  0.5288440000000 1.0
C      1  0.5372210000000  0.6023230000000  0.4761260000000 1.0
C      1  0.4694600000000  0.5247570000000  0.4952950000000 1.0
C      1  0.4647680000000  0.4775250000000  0.5025000000000 1.0
C      1  0.5288340000000  0.4092300000000  0.5543460000000 1.0
C      1  0.5270780000000  0.5929120000000  0.4492920000000 1.0
C      1  0.5539420000000  0.4421990000000  0.4499200000000 1.0
C      1  0.5555590000000  0.5515470000000  0.5364180000000 1.0
C      1  0.5901890000000  0.4577260000000  0.5109840000000 1.0
C      1  0.5949150000000  0.5431680000000  0.4869050000000 1.0
C      1  0.5900450000000  0.4762150000000  0.4879290000000 1.0
C      1  0.5948650000000  0.5251890000000  0.5108920000000 1.0
C      1  0.5862360000000  0.5410120000000  0.5565970000000 1.0
C      1  0.5728900000000  0.4660260000000  0.4440680000000 1.0
C      1  0.4027200000000  0.5316120000000  0.5485520000000 1.0
C      1  0.4019960000000  0.4722650000000  0.4508790000000 1.0
C      1  0.4681510000000  0.4669170000000  0.5827770000000 1.0
C      1  0.4670290000000  0.5334300000000  0.4080160000000 1.0
C      1  0.4751340000000  0.5750160000000  0.4372670000000 1.0
C      1  0.4733810000000  0.4246960000000  0.5713460000000 1.0
C      1  0.6079530000000  0.5303570000000  0.5377770000000 1.0
C      1  0.5982980000000  0.4695290000000  0.4599420000000 1.0
C      1  0.4338610000000  0.5050330000000  0.5809650000000 1.0
C      1  0.4320490000000  0.4947970000000  0.4163710000000 1.0
C      1  0.5388140000000  0.5149950000000  0.5154410000000 1.0
C      1  0.5375680000000  0.4902550000000  0.4949240000000 1.0
C      1  0.3917110000000  0.4948670000000  0.5266450000000 1.0
C      1  0.3895830000000  0.5082670000000  0.4729950000000 1.0
C      1  0.4774480000000  0.5048460000000  0.5600360000000 1.0
C      1  0.4764420000000  0.4933900000000  0.4357260000000 1.0
C      1  0.4392260000000  0.4829960000000  0.5379650000000 1.0
C      1  0.4400070000000  0.5163070000000  0.4593400000000 1.0
C      1  0.4302070000000  0.4388410000000  0.5019170000000 1.0
C      1  0.4205330000000  0.5767220000000  0.4925040000000 1.0
C      1  0.6073280000000  0.4597790000000  0.5537780000000 1.0
C      1  0.6072010000000  0.5387130000000  0.4442420000000 1.0
C      1  0.4706010000000  0.3942860000000  0.5163100000000 1.0
C      1  0.4643230000000  0.6041860000000  0.4901700000000 1.0
C      1  0.4419350000000  0.5894290000000  0.4771260000000 1.0
C      1  0.4476320000000  0.4021510000000  0.5333220000000 1.0
C      1  0.4297190000000  0.4215840000000  0.4569290000000 1.0
C      1  0.4306500000000  0.5741550000000  0.5355620000000 1.0
C      1  0.4437410000000  0.4229020000000  0.5545200000000 1.0
C      1  0.4440290000000  0.5763530000000  0.4501820000000 1.0
C      1  0.4029700000000  0.5280650000000  0.4914310000000 1.0
C      1  0.4059650000000  0.4766980000000  0.5073640000000 1.0
C      1  0.4897730000000  0.4846130000000  0.4631410000000 1.0
C      1  0.4907690000000  0.5171960000000  0.5373820000000 1.0
C      1  0.5712530000000  0.4904810000000  0.5434550000000 1.0
C      1  0.5686590000000  0.5117760000000  0.4583230000000 1.0
C      1  0.4213450000000  0.4447930000000  0.5479310000000 1.0
C      1  0.4210860000000  0.5551100000000  0.4519040000000 1.0
C      1  0.4005020000000  0.4945500000000  0.5541640000000 1.0
C      1  0.4001910000000  0.5054050000000  0.4452580000000 1.0
C      1  0.5680890000000  0.5163410000000  0.5254840000000 1.0
C      1  0.5649450000000  0.4905910000000  0.4799710000000 1.0
C      1  0.4798350000000  0.5225860000000  0.4326940000000 1.0
C      1  0.4816670000000  0.4759870000000  0.5581890000000 1.0
C      1  0.4657420000000  0.4280510000000  0.4183100000000 1.0
C      1  0.4649400000000  0.5724300000000  0.5806810000000 1.0
C      1  0.4996620000000  0.4015160000000  0.5553960000000 1.0
C      1  0.4966500000000  0.5989760000000  0.4482170000000 1.0
C      1  0.5264930000000  0.4653560000000  0.4146920000000 1.0
C      1  0.5281940000000  0.5307570000000  0.5836490000000 1.0
C      1  0.5502630000000  0.4898880000000  0.5647910000000 1.0
C      1  0.5479840000000  0.5080610000000  0.4357710000000 1.0
C      1  0.5162850000000  0.4231670000000  0.4232850000000 1.0
C      1  0.5155030000000  0.5778270000000  0.5774920000000 1.0
C      1  0.4813490000000  0.4950090000000  0.6144210000000 1.0
C      1  0.4816570000000  0.5025550000000  0.3803120000000 1.0
C      1  0.4607940000000  0.5356860000000  0.4520800000000 1.0
C      1  0.4643190000000  0.4642250000000  0.5293260000000 1.0
C      1  0.5662920000000  0.4425200000000  0.5514530000000 1.0
C      1  0.5662530000000  0.5603460000000  0.4484710000000 1.0
C      1  0.4950940000000  0.5064710000000  0.4859020000000 1.0
END
