TITL C-3577080-309-595 -3.99255309896044e-07 125000 -1129.53599531387 0 0 179 (C1) n - 1
REM
REM in /home/bkarasulu/work/CARBON/AIRSS/Generating-Clusters/EDIP-Nigel-Params/with-SteepDescent/Higher-Symm/SD-CG/HFTN-CG
REM
REM
REM
REM
REM
REM ./C.cell (12c818d87b63d06a65506943cc24bca4)
REM
REM compiler GCC version 9.2.1 20190827 (Red Hat 9.2.1-1)
REM options -cpp -mtune=generic -march=x86-64 -g -O0 -fpre-include=/usr/include/finclude/math-vector-fortran.h
REM seed -1277734426 -1395664497 1214628566 1063524408 -1696666837 1683720264 987081477 -650732142 -1639836737 -1191834842 -404888212 -267177913 1556896877 1597824755 -1405726413 -842861628 -1474402843 -567658915 -1332045559 610683528 -1640815093 1507277229 -572128802 149739061 1461415952 -1971155589 -818240508 1005332302 475422002 736807337 -906902043 1799510560 938832187
REM
CELL 1.54180   50.00000   50.00000   50.00000   90.00000   90.00000   90.00000
LATT -1
SFAC C  
C      1  0.5521640000000  0.5178900000000  0.6006550000000 1.0
C      1  0.4225130000000  0.5167410000000  0.5788710000000 1.0
C      1  0.4062540000000  0.5180820000000  0.4550530000000 1.0
C      1  0.5133550000000  0.5128710000000  0.3959710000000 1.0
C      1  0.5980230000000  0.5112590000000  0.4797700000000 1.0
C      1  0.5522010000000  0.4873060000000  0.5895570000000 1.0
C      1  0.4273380000000  0.4844910000000  0.5779450000000 1.0
C      1  0.4063410000000  0.4863770000000  0.4561800000000 1.0
C      1  0.5185070000000  0.4797810000000  0.3999150000000 1.0
C      1  0.5956100000000  0.4784910000000  0.4820890000000 1.0
C      1  0.4725100000000  0.4513580000000  0.5965430000000 1.0
C      1  0.3979880000000  0.4495460000000  0.5016990000000 1.0
C      1  0.4712750000000  0.4519230000000  0.4046270000000 1.0
C      1  0.5780820000000  0.4508470000000  0.4442710000000 1.0
C      1  0.5793930000000  0.4533720000000  0.5585530000000 1.0
C      1  0.4671150000000  0.5460980000000  0.5982160000000 1.0
C      1  0.4013680000000  0.5471310000000  0.5043250000000 1.0
C      1  0.4708590000000  0.5506440000000  0.4026340000000 1.0
C      1  0.5884350000000  0.5510590000000  0.4401750000000 1.0
C      1  0.5740220000000  0.5407080000000  0.5607740000000 1.0
C      1  0.4691520000000  0.4095550000000  0.4607240000000 1.0
C      1  0.5278380000000  0.4058690000000  0.4548230000000 1.0
C      1  0.5485430000000  0.4094400000000  0.5155500000000 1.0
C      1  0.5039960000000  0.4166420000000  0.5446720000000 1.0
C      1  0.4578060000000  0.4142890000000  0.5155220000000 1.0
C      1  0.4688690000000  0.5899120000000  0.4629210000000 1.0
C      1  0.5283590000000  0.5890280000000  0.4581150000000 1.0
C      1  0.5513160000000  0.5919390000000  0.5150890000000 1.0
C      1  0.5045890000000  0.5871430000000  0.5532420000000 1.0
C      1  0.4534060000000  0.5909400000000  0.5225630000000 1.0
C      1  0.4480390000000  0.5260900000000  0.5640560000000 1.0
C      1  0.4270740000000  0.5246830000000  0.4776830000000 1.0
C      1  0.4890880000000  0.5142820000000  0.4187600000000 1.0
C      1  0.5725800000000  0.5162790000000  0.4613840000000 1.0
C      1  0.5166460000000  0.5280260000000  0.5548600000000 1.0
C      1  0.4572500000000  0.4789860000000  0.5666240000000 1.0
C      1  0.4232140000000  0.4792480000000  0.4822240000000 1.0
C      1  0.5148020000000  0.4772560000000  0.4310790000000 1.0
C      1  0.5654150000000  0.4700050000000  0.4882620000000 1.0
C      1  0.5440970000000  0.4900090000000  0.5603740000000 1.0
C      1  0.4536350000000  0.5056470000000  0.5123680000000 1.0
C      1  0.4804790000000  0.5135570000000  0.4670520000000 1.0
C      1  0.5261930000000  0.5267300000000  0.4494980000000 1.0
C      1  0.5425520000000  0.5360320000000  0.4998110000000 1.0
C      1  0.4919900000000  0.5120660000000  0.5480590000000 1.0
C      1  0.4649570000000  0.4789440000000  0.5095140000000 1.0
C      1  0.4759210000000  0.4842670000000  0.4595510000000 1.0
C      1  0.5309840000000  0.4959050000000  0.4511340000000 1.0
C      1  0.5401680000000  0.5089810000000  0.5127140000000 1.0
C      1  0.5031500000000  0.4863470000000  0.5367610000000 1.0
C      1  0.5135570000000  0.4092110000000  0.4800720000000 1.0
C      1  0.5265890000000  0.4227410000000  0.5022210000000 1.0
C      1  0.5055540000000  0.4338410000000  0.5198070000000 1.0
C      1  0.4799600000000  0.4297370000000  0.5051000000000 1.0
C      1  0.4889500000000  0.4257960000000  0.4774730000000 1.0
C      1  0.5146770000000  0.5974100000000  0.4817800000000 1.0
C      1  0.5230540000000  0.5851800000000  0.5076990000000 1.0
C      1  0.5037570000000  0.5974190000000  0.5267250000000 1.0
C      1  0.4790090000000  0.5992380000000  0.5117520000000 1.0
C      1  0.4858010000000  0.6004020000000  0.4834040000000 1.0
C      1  0.4870800000000  0.4472000000000  0.5723720000000 1.0
C      1  0.4250470000000  0.4434580000000  0.5080350000000 1.0
C      1  0.4699610000000  0.4432630000000  0.4320400000000 1.0
C      1  0.5505310000000  0.4463640000000  0.4543420000000 1.0
C      1  0.5578570000000  0.4504700000000  0.5373770000000 1.0
C      1  0.4849340000000  0.5559460000000  0.5783240000000 1.0
C      1  0.4290560000000  0.5523830000000  0.5120220000000 1.0
C      1  0.4709180000000  0.5591370000000  0.4301550000000 1.0
C      1  0.5625640000000  0.5642380000000  0.4439000000000 1.0
C      1  0.5610980000000  0.5555660000000  0.5400110000000 1.0
C      1  0.4492630000000  0.5530070000000  0.4489330000000 1.0
C      1  0.5370170000000  0.5536080000000  0.4331730000000 1.0
C      1  0.5662640000000  0.5510260000000  0.5118420000000 1.0
C      1  0.5134780000000  0.5499570000000  0.5752030000000 1.0
C      1  0.4495410000000  0.5455730000000  0.5373080000000 1.0
C      1  0.4477310000000  0.4472320000000  0.4523450000000 1.0
C      1  0.5196030000000  0.4502300000000  0.4460420000000 1.0
C      1  0.5700320000000  0.4472560000000  0.5082160000000 1.0
C      1  0.5171610000000  0.4498140000000  0.5709010000000 1.0
C      1  0.4355760000000  0.4470990000000  0.5356010000000 1.0
C      1  0.4794430000000  0.4232240000000  0.5589400000000 1.0
C      1  0.4354620000000  0.4193280000000  0.4970200000000 1.0
C      1  0.4813090000000  0.4175180000000  0.4345480000000 1.0
C      1  0.5535710000000  0.4188260000000  0.4629230000000 1.0
C      1  0.5520090000000  0.4223230000000  0.5421670000000 1.0
C      1  0.4790120000000  0.5789000000000  0.5642500000000 1.0
C      1  0.4366860000000  0.5785250000000  0.5020490000000 1.0
C      1  0.4827240000000  0.5833360000000  0.4377050000000 1.0
C      1  0.5568920000000  0.5841800000000  0.4633460000000 1.0
C      1  0.5549910000000  0.5825710000000  0.5437010000000 1.0
C      1  0.4380220000000  0.5501120000000  0.5924950000000 1.0
C      1  0.3979380000000  0.5504320000000  0.4747610000000 1.0
C      1  0.4972310000000  0.5478540000000  0.3922980000000 1.0
C      1  0.6024630000000  0.5472850000000  0.4651660000000 1.0
C      1  0.5629260000000  0.5431080000000  0.5877250000000 1.0
C      1  0.4438210000000  0.4519210000000  0.5913290000000 1.0
C      1  0.3955390000000  0.4529200000000  0.4728860000000 1.0
C      1  0.4977940000000  0.4498530000000  0.3923390000000 1.0
C      1  0.5998720000000  0.4460170000000  0.4623860000000 1.0
C      1  0.5688450000000  0.4560940000000  0.5854050000000 1.0
C      1  0.4392670000000  0.4187750000000  0.4666710000000 1.0
C      1  0.5114320000000  0.4229560000000  0.4324190000000 1.0
C      1  0.5689280000000  0.4161590000000  0.4900190000000 1.0
C      1  0.5292020000000  0.4208800000000  0.5620270000000 1.0
C      1  0.4518500000000  0.4202300000000  0.5460320000000 1.0
C      1  0.4393120000000  0.5825980000000  0.4718030000000 1.0
C      1  0.5123890000000  0.5838990000000  0.4317750000000 1.0
C      1  0.5710960000000  0.5827230000000  0.4902260000000 1.0
C      1  0.5331820000000  0.5822360000000  0.5652690000000 1.0
C      1  0.4534020000000  0.5753030000000  0.5493000000000 1.0
C      1  0.5028160000000  0.5125940000000  0.6104920000000 1.0
C      1  0.4008350000000  0.5104030000000  0.5364330000000 1.0
C      1  0.4367250000000  0.5158460000000  0.4161170000000 1.0
C      1  0.5637760000000  0.5137730000000  0.4100050000000 1.0
C      1  0.5976090000000  0.5073710000000  0.5320260000000 1.0
C      1  0.5060500000000  0.4849360000000  0.6130070000000 1.0
C      1  0.3943500000000  0.4829810000000  0.5402020000000 1.0
C      1  0.4363960000000  0.4876730000000  0.4155770000000 1.0
C      1  0.5635820000000  0.4852260000000  0.4113760000000 1.0
C      1  0.6016110000000  0.4795170000000  0.5304270000000 1.0
C      1  0.4551460000000  0.4689950000000  0.5371890000000 1.0
C      1  0.4523530000000  0.4688870000000  0.4749980000000 1.0
C      1  0.4996580000000  0.4548000000000  0.4696040000000 1.0
C      1  0.5374550000000  0.4855950000000  0.4899680000000 1.0
C      1  0.5275570000000  0.4692390000000  0.5482370000000 1.0
C      1  0.4731180000000  0.5268350000000  0.5256160000000 1.0
C      1  0.4544450000000  0.5301690000000  0.4674450000000 1.0
C      1  0.4964760000000  0.5264940000000  0.4453530000000 1.0
C      1  0.5479880000000  0.5321140000000  0.4707720000000 1.0
C      1  0.5187310000000  0.5537440000000  0.5064940000000 1.0
C      1  0.6047020000000  0.5511970000000  0.5101330000000 1.0
C      1  0.5258570000000  0.5573360000000  0.6109340000000 1.0
C      1  0.4084540000000  0.5552040000000  0.5576170000000 1.0
C      1  0.4164890000000  0.5598850000000  0.4315310000000 1.0
C      1  0.5417800000000  0.5554960000000  0.3955990000000 1.0
C      1  0.6071530000000  0.4387900000000  0.5078240000000 1.0
C      1  0.5312140000000  0.4450770000000  0.6065400000000 1.0
C      1  0.4087910000000  0.4409250000000  0.5625360000000 1.0
C      1  0.4154750000000  0.4448510000000  0.4314340000000 1.0
C      1  0.5441420000000  0.4411590000000  0.3990190000000 1.0
C      1  0.4587870000000  0.4769820000000  0.4016830000000 1.0
C      1  0.5827540000000  0.4732620000000  0.4278710000000 1.0
C      1  0.6043740000000  0.4650910000000  0.5538970000000 1.0
C      1  0.4834950000000  0.4691490000000  0.6145790000000 1.0
C      1  0.3861630000000  0.4681490000000  0.5183840000000 1.0
C      1  0.4574850000000  0.5260050000000  0.3999480000000 1.0
C      1  0.5844740000000  0.5262830000000  0.4258430000000 1.0
C      1  0.5805700000000  0.5144030000000  0.5536930000000 1.0
C      1  0.4756520000000  0.5203720000000  0.6067620000000 1.0
C      1  0.3926110000000  0.5213000000000  0.5121820000000 1.0
C      1  0.5405630000000  0.5269000000000  0.3987090000000 1.0
C      1  0.5980520000000  0.5232290000000  0.5076120000000 1.0
C      1  0.5269530000000  0.5287290000000  0.6113880000000 1.0
C      1  0.4031680000000  0.5274360000000  0.5596600000000 1.0
C      1  0.4161590000000  0.5307600000000  0.4299690000000 1.0
C      1  0.5452520000000  0.4692050000000  0.3961780000000 1.0
C      1  0.6093030000000  0.4674020000000  0.5060910000000 1.0
C      1  0.5306950000000  0.4731780000000  0.6056390000000 1.0
C      1  0.4076020000000  0.4694550000000  0.5615410000000 1.0
C      1  0.4182440000000  0.4732250000000  0.4324410000000 1.0
C      1  0.5180380000000  0.4312360000000  0.4035030000000 1.0
C      1  0.5987580000000  0.4256480000000  0.4835290000000 1.0
C      1  0.5514320000000  0.4335550000000  0.5911640000000 1.0
C      1  0.4324570000000  0.4295800000000  0.5747120000000 1.0
C      1  0.4077790000000  0.4314300000000  0.4558380000000 1.0
C      1  0.5161970000000  0.5685880000000  0.4000750000000 1.0
C      1  0.5985700000000  0.5665110000000  0.4868540000000 1.0
C      1  0.5463170000000  0.5680280000000  0.5930960000000 1.0
C      1  0.4300910000000  0.5689560000000  0.5697330000000 1.0
C      1  0.4121770000000  0.5716090000000  0.4584030000000 1.0
C      1  0.4254690000000  0.5049650000000  0.5002800000000 1.0
C      1  0.4843460000000  0.4849810000000  0.4298130000000 1.0
C      1  0.5603500000000  0.4895010000000  0.4551720000000 1.0
C      1  0.4712350000000  0.5070210000000  0.5707630000000 1.0
C      1  0.5431790000000  0.5154680000000  0.5443440000000 1.0
C      1  0.4950060000000  0.4855310000000  0.5084260000000 1.0
C      1  0.4977420000000  0.5126580000000  0.4916310000000 1.0
C      1  0.5132070000000  0.4643360000000  0.4957810000000 1.0
C      1  0.4929880000000  0.5388900000000  0.5047160000000 1.0
END
