TITL C-3578209-2550-577 -0.402777568715501 125000 -98.8251523210026 0 0 18 (C1) n - 1
REM
REM in /home/bkarasulu/work/CARBON/AIRSS/Generating-Clusters/EDIP-Nigel-Params/with-SteepDescent/Higher-Symm/SD-CG/HFTN-CG
REM
REM
REM
REM
REM
REM ./C.cell (12c818d87b63d06a65506943cc24bca4)
REM
REM compiler GCC version 9.2.1 20190827 (Red Hat 9.2.1-1)
REM options -cpp -mtune=generic -march=x86-64 -g -O0 -fpre-include=/usr/include/finclude/math-vector-fortran.h
REM seed 151649778 -1579163608 754700411 543798385 -1900309551 1461642447 2053045213 1149004080 -143837991 132871871 -1572574546 -878899678 1861450007 -1792643174 -1590094315 -1906463603 280573521 1108760523 -582227424 -1318101596 -2017489168 -2131161406 -1187443457 -487934202 1011123280 768174979 1140511947 -1444847349 -962012340 -778323266 1723742420 -148477057 -122324930
REM
CELL 1.54180   50.00000   50.00000   50.00000   90.00000   90.00000   90.00000
LATT -1
SFAC C  
C      1  0.4912180000000  0.4618610000000  0.4150150000000 1.0
C      1  0.5620170000000  0.4595060000000  0.5030280000000 1.0
C      1  0.4736910000000  0.4397660000000  0.4161550000000 1.0
C      1  0.5023640000000  0.5010240000000  0.4902640000000 1.0
C      1  0.4806990000000  0.5372370000000  0.5398130000000 1.0
C      1  0.5443370000000  0.4778890000000  0.5051540000000 1.0
C      1  0.4997840000000  0.4895010000000  0.4654060000000 1.0
C      1  0.4897960000000  0.5249480000000  0.5642980000000 1.0
C      1  0.5145050000000  0.5312520000000  0.5753990000000 1.0
C      1  0.4630100000000  0.5242430000000  0.5181440000000 1.0
C      1  0.4766580000000  0.4519510000000  0.4415130000000 1.0
C      1  0.4949230000000  0.4755410000000  0.4420280000000 1.0
C      1  0.5253470000000  0.5177130000000  0.5286320000000 1.0
C      1  0.5256370000000  0.5133740000000  0.5573330000000 1.0
C      1  0.4866970000000  0.5245870000000  0.4979910000000 1.0
C      1  0.5249780000000  0.4972460000000  0.5078030000000 1.0
C      1  0.5047150000000  0.5375760000000  0.5204970000000 1.0
C      1  0.4396260000000  0.5347840000000  0.5115270000000 1.0
END
