TITL C-3577076-40-170 -4.40414607966357e-07 125000 -225.544828986008 0 0 38 (C1) n - 1
REM
REM in /home/bkarasulu/work/CARBON/AIRSS/Generating-Clusters/EDIP-Nigel-Params/with-SteepDescent/Higher-Symm/SD-CG/HFTN-CG
REM
REM
REM
REM
REM
REM ./C.cell (12c818d87b63d06a65506943cc24bca4)
REM
REM compiler GCC version 9.2.1 20190827 (Red Hat 9.2.1-1)
REM options -cpp -mtune=generic -march=x86-64 -g -O0 -fpre-include=/usr/include/finclude/math-vector-fortran.h
REM seed -1673803262 -1498363561 1355812720 -2137678594 191137070 289858249 786969913 1369656211 -1095923621 1757632018 -1441655059 -1405618410 1797853647 -1482910346 -1354172877 847461469 -1663121336 873819679 122559809 -1692799193 1851728975 887629550 -1906839344 1019211533 396951013 1952348992 -997617727 -1062437312 -1505223404 -358295178 1370265028 921604995 320660921
REM
CELL 1.54180   50.00000   50.00000   50.00000   90.00000   90.00000   90.00000
LATT -1
SFAC C  
C      1  0.4954610000000  0.4691030000000  0.5529160000000 1.0
C      1  0.4594340000000  0.4662820000000  0.4582950000000 1.0
C      1  0.4663030000000  0.5193580000000  0.5558730000000 1.0
C      1  0.5054640000000  0.5017470000000  0.4938240000000 1.0
C      1  0.5578980000000  0.4968020000000  0.4953890000000 1.0
C      1  0.4796870000000  0.5145780000000  0.5082200000000 1.0
C      1  0.4756100000000  0.4625400000000  0.5055930000000 1.0
C      1  0.5560430000000  0.5061750000000  0.4676180000000 1.0
C      1  0.5259040000000  0.4703540000000  0.4815300000000 1.0
C      1  0.5200380000000  0.4602490000000  0.5394860000000 1.0
C      1  0.4733850000000  0.5339330000000  0.4691920000000 1.0
C      1  0.4736520000000  0.4737910000000  0.5331130000000 1.0
C      1  0.4560870000000  0.4711450000000  0.4858380000000 1.0
C      1  0.5330470000000  0.4799730000000  0.4541940000000 1.0
C      1  0.5525980000000  0.4674780000000  0.4953330000000 1.0
C      1  0.5076150000000  0.4485960000000  0.4722610000000 1.0
C      1  0.5003420000000  0.5188120000000  0.4672900000000 1.0
C      1  0.5223600000000  0.5405860000000  0.4680290000000 1.0
C      1  0.5187350000000  0.5587120000000  0.4914910000000 1.0
C      1  0.5144830000000  0.4415260000000  0.5191420000000 1.0
C      1  0.4374270000000  0.5037460000000  0.5187190000000 1.0
C      1  0.5485310000000  0.5324120000000  0.4633180000000 1.0
C      1  0.5347990000000  0.5550730000000  0.5141690000000 1.0
C      1  0.5320730000000  0.5034100000000  0.5105060000000 1.0
C      1  0.4922240000000  0.5180530000000  0.5659380000000 1.0
C      1  0.4724670000000  0.5424630000000  0.4972110000000 1.0
C      1  0.5281710000000  0.5476450000000  0.5392170000000 1.0
C      1  0.5078320000000  0.4730790000000  0.4418590000000 1.0
C      1  0.4999610000000  0.4916180000000  0.5693560000000 1.0
C      1  0.4634010000000  0.5023910000000  0.5323800000000 1.0
C      1  0.5317160000000  0.4846700000000  0.5317110000000 1.0
C      1  0.5111960000000  0.5357910000000  0.5562190000000 1.0
C      1  0.4483220000000  0.4988590000000  0.4909440000000 1.0
C      1  0.4521870000000  0.5138770000000  0.4645570000000 1.0
C      1  0.4934830000000  0.4979830000000  0.4446710000000 1.0
C      1  0.4919430000000  0.5621030000000  0.4987230000000 1.0
C      1  0.4644720000000  0.4923290000000  0.4475560000000 1.0
C      1  0.4956510000000  0.4427590000000  0.4983190000000 1.0
END
