TITL C-3578205-846-595 -2.96878082846743e-06 125000 -1169.5280347015 0 0 182 (C1) n - 1
REM
REM in /home/bkarasulu/work/CARBON/AIRSS/Generating-Clusters/EDIP-Nigel-Params/with-SteepDescent/Higher-Symm/SD-CG/HFTN-CG
REM
REM
REM
REM
REM
REM ./C.cell (12c818d87b63d06a65506943cc24bca4)
REM
REM compiler GCC version 9.2.1 20190827 (Red Hat 9.2.1-1)
REM options -cpp -mtune=generic -march=x86-64 -g -O0 -fpre-include=/usr/include/finclude/math-vector-fortran.h
REM seed 1058710193 -819656189 1323645864 -934496884 -461446604 -1931720544 1859080042 104625949 662714434 600652960 -56385739 437833689 -1436189114 -840100554 872540866 1032777774 -195603094 1451224321 1679750047 1077037072 -447277691 951767295 1830611821 -1056613758 1764090854 1029039240 1458592066 2076959581 -1706422223 -388843524 75710410 -135445549 1180029451
REM
CELL 1.54180   50.00000   50.00000   50.00000   90.00000   90.00000   90.00000
LATT -1
SFAC C  
C      1  0.5314520000000  0.4726330000000  0.4084830000000 1.0
C      1  0.5546870000000  0.4268820000000  0.5749120000000 1.0
C      1  0.5379080000000  0.5982230000000  0.5238480000000 1.0
C      1  0.4707110000000  0.4716760000000  0.4084260000000 1.0
C      1  0.4587770000000  0.4413780000000  0.5807640000000 1.0
C      1  0.4545690000000  0.6075620000000  0.5188400000000 1.0
C      1  0.5273370000000  0.5308350000000  0.4087270000000 1.0
C      1  0.5305150000000  0.5548700000000  0.5759140000000 1.0
C      1  0.5390380000000  0.4003180000000  0.5188360000000 1.0
C      1  0.4736450000000  0.5303930000000  0.4072580000000 1.0
C      1  0.4587140000000  0.5677810000000  0.5718310000000 1.0
C      1  0.4684330000000  0.4076410000000  0.5193520000000 1.0
C      1  0.4374450000000  0.4387960000000  0.4309360000000 1.0
C      1  0.4222380000000  0.4742000000000  0.5892810000000 1.0
C      1  0.4333270000000  0.5883610000000  0.4785450000000 1.0
C      1  0.5676490000000  0.4408110000000  0.4284570000000 1.0
C      1  0.5809910000000  0.4658550000000  0.5859790000000 1.0
C      1  0.5644930000000  0.5886940000000  0.4821630000000 1.0
C      1  0.4369080000000  0.5571900000000  0.4285410000000 1.0
C      1  0.4248480000000  0.5334190000000  0.5830760000000 1.0
C      1  0.4333780000000  0.4097660000000  0.4827770000000 1.0
C      1  0.5619950000000  0.5576060000000  0.4319200000000 1.0
C      1  0.5727220000000  0.5253710000000  0.5828650000000 1.0
C      1  0.5710110000000  0.4113560000000  0.4800380000000 1.0
C      1  0.5220290000000  0.5429110000000  0.5132590000000 1.0
C      1  0.5221010000000  0.4771300000000  0.4593310000000 1.0
C      1  0.5294380000000  0.4624130000000  0.5410900000000 1.0
C      1  0.4788730000000  0.5487090000000  0.5052850000000 1.0
C      1  0.4754060000000  0.4797650000000  0.4594280000000 1.0
C      1  0.4706520000000  0.4730790000000  0.5437650000000 1.0
C      1  0.5230160000000  0.4607750000000  0.5122850000000 1.0
C      1  0.5186000000000  0.4995280000000  0.4769830000000 1.0
C      1  0.5204200000000  0.5155530000000  0.5253190000000 1.0
C      1  0.4649520000000  0.4777840000000  0.5151370000000 1.0
C      1  0.4800180000000  0.5038180000000  0.4750270000000 1.0
C      1  0.4827930000000  0.5241500000000  0.5213200000000 1.0
C      1  0.6003280000000  0.5283900000000  0.5451880000000 1.0
C      1  0.5974600000000  0.5290070000000  0.4470960000000 1.0
C      1  0.6031170000000  0.4426960000000  0.4962080000000 1.0
C      1  0.3954050000000  0.5311870000000  0.5448480000000 1.0
C      1  0.4051560000000  0.5263740000000  0.4456500000000 1.0
C      1  0.4050190000000  0.4433600000000  0.4999450000000 1.0
C      1  0.6074860000000  0.4701820000000  0.5453740000000 1.0
C      1  0.5990240000000  0.4724960000000  0.4453520000000 1.0
C      1  0.5968010000000  0.5570070000000  0.4981350000000 1.0
C      1  0.4021160000000  0.4740530000000  0.5471030000000 1.0
C      1  0.4062540000000  0.4709150000000  0.4471680000000 1.0
C      1  0.3990600000000  0.5590900000000  0.4954580000000 1.0
C      1  0.5702180000000  0.5148480000000  0.5240990000000 1.0
C      1  0.5643740000000  0.5120330000000  0.4687050000000 1.0
C      1  0.5729100000000  0.4671410000000  0.5007680000000 1.0
C      1  0.4352750000000  0.5319380000000  0.5260520000000 1.0
C      1  0.4334110000000  0.5143910000000  0.4701850000000 1.0
C      1  0.4382700000000  0.4866590000000  0.5104980000000 1.0
C      1  0.5750030000000  0.4828040000000  0.5275840000000 1.0
C      1  0.5708180000000  0.4811660000000  0.4706090000000 1.0
C      1  0.5680390000000  0.5307200000000  0.4958060000000 1.0
C      1  0.4283720000000  0.5008690000000  0.5350280000000 1.0
C      1  0.4316360000000  0.4840700000000  0.4806600000000 1.0
C      1  0.4319050000000  0.5379830000000  0.4945690000000 1.0
C      1  0.4238600000000  0.4839170000000  0.4282560000000 1.0
C      1  0.4165930000000  0.4478080000000  0.5485640000000 1.0
C      1  0.4107080000000  0.5736290000000  0.5199130000000 1.0
C      1  0.5821500000000  0.4864220000000  0.4243730000000 1.0
C      1  0.5907480000000  0.4452580000000  0.5444860000000 1.0
C      1  0.5791690000000  0.5654150000000  0.5206730000000 1.0
C      1  0.4244810000000  0.5125890000000  0.4272970000000 1.0
C      1  0.4171580000000  0.5523650000000  0.5408290000000 1.0
C      1  0.4201090000000  0.4326940000000  0.5229590000000 1.0
C      1  0.5760460000000  0.5146350000000  0.4306960000000 1.0
C      1  0.5801730000000  0.5513050000000  0.5457730000000 1.0
C      1  0.5881160000000  0.4304020000000  0.5197760000000 1.0
C      1  0.4564270000000  0.4068490000000  0.4655310000000 1.0
C      1  0.4420130000000  0.5180880000000  0.6013230000000 1.0
C      1  0.4584080000000  0.5737460000000  0.4385780000000 1.0
C      1  0.5486050000000  0.4095600000000  0.4619830000000 1.0
C      1  0.5575130000000  0.5065730000000  0.5981990000000 1.0
C      1  0.5392910000000  0.5718860000000  0.4424980000000 1.0
C      1  0.4591980000000  0.5779190000000  0.4682630000000 1.0
C      1  0.4463060000000  0.4918040000000  0.5879670000000 1.0
C      1  0.4600560000000  0.4333090000000  0.4504450000000 1.0
C      1  0.5384260000000  0.5768400000000  0.4722380000000 1.0
C      1  0.5544570000000  0.4804350000000  0.5833030000000 1.0
C      1  0.5451460000000  0.4346470000000  0.4468310000000 1.0
C      1  0.5071740000000  0.5522800000000  0.5572410000000 1.0
C      1  0.5162110000000  0.5195100000000  0.4346120000000 1.0
C      1  0.5076310000000  0.4349490000000  0.5054030000000 1.0
C      1  0.4793220000000  0.5451580000000  0.5674300000000 1.0
C      1  0.4842790000000  0.5195710000000  0.4334010000000 1.0
C      1  0.4813760000000  0.4350860000000  0.5167630000000 1.0
C      1  0.5128890000000  0.4457840000000  0.5590580000000 1.0
C      1  0.5158910000000  0.4872860000000  0.4323620000000 1.0
C      1  0.5116260000000  0.5649880000000  0.5314960000000 1.0
C      1  0.4838980000000  0.4450940000000  0.5455920000000 1.0
C      1  0.4842320000000  0.4874660000000  0.4319670000000 1.0
C      1  0.4855160000000  0.5719410000000  0.5205550000000 1.0
C      1  0.4622670000000  0.5257490000000  0.4643190000000 1.0
C      1  0.4665980000000  0.4541090000000  0.4992450000000 1.0
C      1  0.4666440000000  0.5240990000000  0.5473600000000 1.0
C      1  0.5350350000000  0.5227310000000  0.4674090000000 1.0
C      1  0.5462320000000  0.4547010000000  0.4957190000000 1.0
C      1  0.5446570000000  0.5109260000000  0.5409720000000 1.0
C      1  0.4561520000000  0.4605970000000  0.4710320000000 1.0
C      1  0.4594780000000  0.5499710000000  0.4833340000000 1.0
C      1  0.4539320000000  0.4959730000000  0.5562100000000 1.0
C      1  0.5447550000000  0.4604800000000  0.4658190000000 1.0
C      1  0.5387080000000  0.5463880000000  0.4885330000000 1.0
C      1  0.5493370000000  0.4822730000000  0.5506660000000 1.0
C      1  0.4860270000000  0.5109020000000  0.3877460000000 1.0
C      1  0.4697140000000  0.4015740000000  0.5469780000000 1.0
C      1  0.4628280000000  0.5945580000000  0.5657070000000 1.0
C      1  0.5156810000000  0.5114610000000  0.3884000000000 1.0
C      1  0.5318000000000  0.4016290000000  0.5454260000000 1.0
C      1  0.5332570000000  0.5839160000000  0.5779370000000 1.0
C      1  0.4730330000000  0.4865940000000  0.3838790000000 1.0
C      1  0.4543870000000  0.6109250000000  0.5463810000000 1.0
C      1  0.4699720000000  0.4174930000000  0.5692510000000 1.0
C      1  0.5292880000000  0.4877170000000  0.3840910000000 1.0
C      1  0.5294730000000  0.5931110000000  0.5513670000000 1.0
C      1  0.5295020000000  0.4208390000000  0.5649360000000 1.0
C      1  0.5916820000000  0.4304270000000  0.4717490000000 1.0
C      1  0.5954520000000  0.5124810000000  0.5695350000000 1.0
C      1  0.5822370000000  0.5532810000000  0.4519080000000 1.0
C      1  0.4167640000000  0.4323910000000  0.4761340000000 1.0
C      1  0.4052250000000  0.5172070000000  0.5687810000000 1.0
C      1  0.4156590000000  0.5533500000000  0.4478280000000 1.0
C      1  0.5876940000000  0.5714810000000  0.4738130000000 1.0
C      1  0.6013830000000  0.4833810000000  0.5716630000000 1.0
C      1  0.5922610000000  0.4434270000000  0.4451910000000 1.0
C      1  0.4120990000000  0.5698660000000  0.4712440000000 1.0
C      1  0.4013990000000  0.4881090000000  0.5729170000000 1.0
C      1  0.4138930000000  0.4429290000000  0.4489380000000 1.0
C      1  0.5625310000000  0.5875200000000  0.5117150000000 1.0
C      1  0.5614100000000  0.4671050000000  0.4157540000000 1.0
C      1  0.5786490000000  0.4406280000000  0.5707910000000 1.0
C      1  0.4333220000000  0.5898520000000  0.5077860000000 1.0
C      1  0.4418310000000  0.4646380000000  0.4158930000000 1.0
C      1  0.4299730000000  0.4486340000000  0.5757680000000 1.0
C      1  0.5657690000000  0.4120560000000  0.5094700000000 1.0
C      1  0.5577160000000  0.5336900000000  0.4145680000000 1.0
C      1  0.5584900000000  0.5446350000000  0.5659540000000 1.0
C      1  0.4384000000000  0.4105920000000  0.5119500000000 1.0
C      1  0.4429360000000  0.5321340000000  0.4134610000000 1.0
C      1  0.4305610000000  0.5589940000000  0.5692840000000 1.0
C      1  0.6137950000000  0.4862900000000  0.4691070000000 1.0
C      1  0.6177470000000  0.4858590000000  0.5204390000000 1.0
C      1  0.6114840000000  0.5301370000000  0.4958190000000 1.0
C      1  0.3936290000000  0.4842580000000  0.4710770000000 1.0
C      1  0.3900950000000  0.4860790000000  0.5224210000000 1.0
C      1  0.3893370000000  0.5296550000000  0.4950150000000 1.0
C      1  0.6083730000000  0.5150960000000  0.4709100000000 1.0
C      1  0.6138910000000  0.5152460000000  0.5208300000000 1.0
C      1  0.6159020000000  0.4711630000000  0.4947090000000 1.0
C      1  0.3901930000000  0.5141170000000  0.4696830000000 1.0
C      1  0.3896230000000  0.5154240000000  0.5206560000000 1.0
C      1  0.3947480000000  0.4707140000000  0.4979770000000 1.0
C      1  0.4857490000000  0.5576590000000  0.4017910000000 1.0
C      1  0.4878830000000  0.3914720000000  0.5021960000000 1.0
C      1  0.4884150000000  0.5338100000000  0.5932250000000 1.0
C      1  0.5150650000000  0.5578590000000  0.4033440000000 1.0
C      1  0.5153270000000  0.4059170000000  0.5004060000000 1.0
C      1  0.5173310000000  0.5370150000000  0.5980010000000 1.0
C      1  0.4857350000000  0.4459920000000  0.4071490000000 1.0
C      1  0.4824680000000  0.5989750000000  0.5086080000000 1.0
C      1  0.4790750000000  0.4587640000000  0.5946590000000 1.0
C      1  0.5169750000000  0.4462550000000  0.4056990000000 1.0
C      1  0.5178820000000  0.6092790000000  0.5057540000000 1.0
C      1  0.5070430000000  0.4593760000000  0.5850040000000 1.0
C      1  0.5182810000000  0.5775590000000  0.4243360000000 1.0
C      1  0.5251460000000  0.4013920000000  0.4740710000000 1.0
C      1  0.5299720000000  0.5120600000000  0.6052590000000 1.0
C      1  0.4802790000000  0.5785090000000  0.4212260000000 1.0
C      1  0.4765450000000  0.3908250000000  0.4767350000000 1.0
C      1  0.4698210000000  0.5217740000000  0.6111280000000 1.0
C      1  0.5188940000000  0.4317830000000  0.4322320000000 1.0
C      1  0.5149490000000  0.5960020000000  0.4793140000000 1.0
C      1  0.5277350000000  0.4742640000000  0.5976730000000 1.0
C      1  0.4866920000000  0.4333010000000  0.4349840000000 1.0
C      1  0.4834270000000  0.5942140000000  0.4780900000000 1.0
C      1  0.4692570000000  0.4833630000000  0.6046720000000 1.0
C      1  0.4832990000000  0.4986500000000  0.5047690000000 1.0
C      1  0.5131670000000  0.4918260000000  0.5058010000000 1.0
END
