TITL C-3578196-9646-363 -0.182534924406498 125000 -72.6737530954071 0 0 13 (Cs) n - 1
REM
REM in /home/bkarasulu/work/CARBON/AIRSS/Generating-Clusters/EDIP-Nigel-Params/with-SteepDescent/Higher-Symm/SD-CG/HFTN-CG
REM
REM
REM
REM
REM
REM ./C.cell (12c818d87b63d06a65506943cc24bca4)
REM
REM compiler GCC version 9.2.1 20190827 (Red Hat 9.2.1-1)
REM options -cpp -mtune=generic -march=x86-64 -g -O0 -fpre-include=/usr/include/finclude/math-vector-fortran.h
REM seed -2094075618 1614748465 -1555004765 1865033045 -2006511037 1813581741 1138202942 -448690579 -63018067 1215443419 -12313884 -1616186032 1145764094 976794197 -2125882082 1488984001 230941395 1813927609 -559219590 1686556806 2050759739 506529724 -775454939 -709801947 -1974013047 -467655309 84536262 -100163081 -705823744 1680440409 -105184041 1540601455 -1081073661
REM
CELL 1.54180   50.00000   50.00000   50.00000   90.00000   90.00000   90.00000
LATT -1
SFAC C  
C      1  0.4299580000000  0.4802000000000  0.5132950000000 1.0
C      1  0.4212320000000  0.5057490000000  0.5071770000000 1.0
C      1  0.4554280000000  0.5173930000000  0.4948930000000 1.0
C      1  0.4554730000000  0.4717820000000  0.5097680000000 1.0
C      1  0.5644090000000  0.4802360000000  0.5133500000000 1.0
C      1  0.5731260000000  0.5057920000000  0.5072440000000 1.0
C      1  0.5389330000000  0.5174180000000  0.4949330000000 1.0
C      1  0.5389020000000  0.4718050000000  0.5097990000000 1.0
C      1  0.5245600000000  0.4930130000000  0.4986610000000 1.0
C      1  0.4698130000000  0.4929970000000  0.4986380000000 1.0
C      1  0.4296400000000  0.5201490000000  0.4851350000000 1.0
C      1  0.5647280000000  0.5201910000000  0.4851980000000 1.0
C      1  0.4971850000000  0.4935680000000  0.5004820000000 1.0
END
