TITL C-3577086-586-549 -1.29458841833753e-07 125000 -279.201975777004 0 0 47 (C1) n - 1
REM
REM in /home/bkarasulu/work/CARBON/AIRSS/Generating-Clusters/EDIP-Nigel-Params/with-SteepDescent/Higher-Symm/SD-CG/HFTN-CG
REM
REM
REM
REM
REM
REM ./C.cell (12c818d87b63d06a65506943cc24bca4)
REM
REM compiler GCC version 9.2.1 20190827 (Red Hat 9.2.1-1)
REM options -cpp -mtune=generic -march=x86-64 -g -O0 -fpre-include=/usr/include/finclude/math-vector-fortran.h
REM seed -2055592427 -734760454 837657381 273838810 -194138589 1880900840 2085112150 -405872320 -935027698 976239664 1368989434 -1857320256 1140926031 268293244 408247570 836673164 609043995 1228176452 -1688500689 236270272 -384017656 981210062 2078258276 -1880053244 -1653754843 1141881251 -386933206 37267580 365141764 -582458773 -770614188 -1432951811 351649880
REM
CELL 1.54180   50.00000   50.00000   50.00000   90.00000   90.00000   90.00000
LATT -1
SFAC C  
C      1  0.5118480000000  0.4756580000000  0.4366120000000 1.0
C      1  0.5663590000000  0.4793890000000  0.5099560000000 1.0
C      1  0.4913850000000  0.4688550000000  0.5641100000000 1.0
C      1  0.4391250000000  0.4823320000000  0.4817460000000 1.0
C      1  0.5079910000000  0.5312130000000  0.4348980000000 1.0
C      1  0.5614870000000  0.5288320000000  0.5102490000000 1.0
C      1  0.4857390000000  0.5256420000000  0.5640980000000 1.0
C      1  0.4336000000000  0.5307970000000  0.4891020000000 1.0
C      1  0.5361850000000  0.5277130000000  0.4380620000000 1.0
C      1  0.5510670000000  0.5394440000000  0.5343400000000 1.0
C      1  0.4591580000000  0.5321130000000  0.5574350000000 1.0
C      1  0.4402620000000  0.5346370000000  0.4606070000000 1.0
C      1  0.5376820000000  0.4664490000000  0.4437930000000 1.0
C      1  0.5608210000000  0.4764950000000  0.5385570000000 1.0
C      1  0.4662650000000  0.4775540000000  0.5527260000000 1.0
C      1  0.4415300000000  0.4682780000000  0.4575110000000 1.0
C      1  0.5532420000000  0.4789350000000  0.4635840000000 1.0
C      1  0.5361650000000  0.4874300000000  0.5499180000000 1.0
C      1  0.4569980000000  0.4919250000000  0.5274540000000 1.0
C      1  0.4641550000000  0.4788480000000  0.4454720000000 1.0
C      1  0.5508420000000  0.5172200000000  0.4615680000000 1.0
C      1  0.5313000000000  0.5254510000000  0.5490850000000 1.0
C      1  0.4454070000000  0.5216660000000  0.5350730000000 1.0
C      1  0.4633740000000  0.5162620000000  0.4531650000000 1.0
C      1  0.4948620000000  0.4619450000000  0.4809510000000 1.0
C      1  0.5200150000000  0.4623620000000  0.4972590000000 1.0
C      1  0.5109330000000  0.4516620000000  0.5233090000000 1.0
C      1  0.4734060000000  0.4517820000000  0.4991430000000 1.0
C      1  0.4970680000000  0.5362950000000  0.4827920000000 1.0
C      1  0.5219670000000  0.5505600000000  0.4891370000000 1.0
C      1  0.4983870000000  0.5534010000000  0.5270610000000 1.0
C      1  0.4812920000000  0.5342350000000  0.5090990000000 1.0
C      1  0.4879990000000  0.5326200000000  0.4555170000000 1.0
C      1  0.5482160000000  0.5363970000000  0.4847640000000 1.0
C      1  0.5076120000000  0.5434080000000  0.5537720000000 1.0
C      1  0.4499490000000  0.5403070000000  0.5118870000000 1.0
C      1  0.4888870000000  0.4652570000000  0.4519230000000 1.0
C      1  0.5485300000000  0.4671000000000  0.4894910000000 1.0
C      1  0.5164660000000  0.4644340000000  0.5494620000000 1.0
C      1  0.4497340000000  0.4695910000000  0.5056860000000 1.0
C      1  0.4954920000000  0.5025630000000  0.5462740000000 1.0
C      1  0.4551470000000  0.5074590000000  0.4835860000000 1.0
C      1  0.5165000000000  0.4994340000000  0.4554150000000 1.0
C      1  0.5462390000000  0.5034070000000  0.5143680000000 1.0
C      1  0.5200260000000  0.5651590000000  0.5132820000000 1.0
C      1  0.4849670000000  0.4406470000000  0.5224250000000 1.0
C      1  0.4831140000000  0.5053100000000  0.5178790000000 1.0
END
