TITL C-3578201-9217-648 1.02110732598241e-06 125000 -415.291512527092 0 0 67 (C1) n - 1
REM
REM in /home/bkarasulu/work/CARBON/AIRSS/Generating-Clusters/EDIP-Nigel-Params/with-SteepDescent/Higher-Symm/SD-CG/HFTN-CG
REM
REM
REM
REM
REM
REM ./C.cell (12c818d87b63d06a65506943cc24bca4)
REM
REM compiler GCC version 9.2.1 20190827 (Red Hat 9.2.1-1)
REM options -cpp -mtune=generic -march=x86-64 -g -O0 -fpre-include=/usr/include/finclude/math-vector-fortran.h
REM seed 426129349 -795094124 -525528616 -1051467477 1154815016 -1729909963 1458456594 -1433788688 -1649167732 -1544232971 1764096681 -340537380 -985139089 210771105 -605313316 -1645354726 2110402936 -1838582604 1841019892 -413775846 -220853040 738638185 -1310196539 -1544296709 -197345101 -795932840 -1291854867 -1516911058 -807042068 1348603091 1491867493 720825884 -1604496169
REM
CELL 1.54180   50.00000   50.00000   50.00000   90.00000   90.00000   90.00000
LATT -1
SFAC C  
C      1  0.4266440000000  0.5177150000000  0.4660500000000 1.0
C      1  0.4414330000000  0.5385790000000  0.4782310000000 1.0
C      1  0.4399770000000  0.5430920000000  0.5067760000000 1.0
C      1  0.4209590000000  0.5292170000000  0.5214740000000 1.0
C      1  0.4159790000000  0.5100310000000  0.5394650000000 1.0
C      1  0.4301350000000  0.4875320000000  0.5469280000000 1.0
C      1  0.4441610000000  0.4727670000000  0.5249310000000 1.0
C      1  0.4408280000000  0.4532600000000  0.5031930000000 1.0
C      1  0.4261630000000  0.4615420000000  0.4803800000000 1.0
C      1  0.4390900000000  0.4701290000000  0.4565920000000 1.0
C      1  0.4384850000000  0.4984090000000  0.4489320000000 1.0
C      1  0.5095980000000  0.5459970000000  0.5739630000000 1.0
C      1  0.5029670000000  0.5000290000000  0.5830030000000 1.0
C      1  0.4996200000000  0.4578770000000  0.5698690000000 1.0
C      1  0.4982510000000  0.4331850000000  0.5320140000000 1.0
C      1  0.5106650000000  0.4226610000000  0.4891240000000 1.0
C      1  0.5055490000000  0.4403630000000  0.4450930000000 1.0
C      1  0.4964180000000  0.4760020000000  0.4194260000000 1.0
C      1  0.5010230000000  0.5199030000000  0.4167640000000 1.0
C      1  0.5077180000000  0.5583510000000  0.4440640000000 1.0
C      1  0.5017870000000  0.5687820000000  0.4894840000000 1.0
C      1  0.5029920000000  0.5687220000000  0.5338430000000 1.0
C      1  0.4873400000000  0.5670880000000  0.4640170000000 1.0
C      1  0.4829310000000  0.5725760000000  0.5125680000000 1.0
C      1  0.4900600000000  0.5644700000000  0.5598960000000 1.0
C      1  0.4900450000000  0.5260740000000  0.5845130000000 1.0
C      1  0.4828710000000  0.4784780000000  0.5824420000000 1.0
C      1  0.4828270000000  0.4494740000000  0.5485750000000 1.0
C      1  0.4878200000000  0.4241080000000  0.5077130000000 1.0
C      1  0.4947400000000  0.4198800000000  0.4635080000000 1.0
C      1  0.4837650000000  0.4523210000000  0.4289910000000 1.0
C      1  0.4799160000000  0.4989290000000  0.4129740000000 1.0
C      1  0.4898750000000  0.5468360000000  0.4221170000000 1.0
C      1  0.5534870000000  0.4583950000000  0.4927630000000 1.0
C      1  0.5625350000000  0.4777770000000  0.4748660000000 1.0
C      1  0.5511400000000  0.4948760000000  0.4558220000000 1.0
C      1  0.5505130000000  0.5244930000000  0.4587520000000 1.0
C      1  0.5672450000000  0.5369780000000  0.4772120000000 1.0
C      1  0.5524460000000  0.5471520000000  0.4984350000000 1.0
C      1  0.5623410000000  0.5415570000000  0.5238550000000 1.0
C      1  0.5548060000000  0.5270360000000  0.5463240000000 1.0
C      1  0.5633100000000  0.5004620000000  0.5469700000000 1.0
C      1  0.5533830000000  0.4747980000000  0.5424520000000 1.0
C      1  0.5613170000000  0.4621280000000  0.5190980000000 1.0
C      1  0.5132250000000  0.5421600000000  0.5253760000000 1.0
C      1  0.5250160000000  0.5289440000000  0.5502910000000 1.0
C      1  0.5149200000000  0.5009200000000  0.5561860000000 1.0
C      1  0.5236490000000  0.4734830000000  0.5464700000000 1.0
C      1  0.5110180000000  0.4666530000000  0.5181350000000 1.0
C      1  0.5239010000000  0.4529710000000  0.4899720000000 1.0
C      1  0.5149740000000  0.4628110000000  0.4621530000000 1.0
C      1  0.5248660000000  0.4850490000000  0.4440860000000 1.0
C      1  0.5092570000000  0.5106110000000  0.4441170000000 1.0
C      1  0.5216430000000  0.5335850000000  0.4585690000000 1.0
C      1  0.5225260000000  0.5438310000000  0.4959550000000 1.0
C      1  0.4643070000000  0.5383300000000  0.4354580000000 1.0
C      1  0.4643830000000  0.5479730000000  0.4626690000000 1.0
C      1  0.4641020000000  0.5509910000000  0.5207980000000 1.0
C      1  0.4662010000000  0.5482460000000  0.5501520000000 1.0
C      1  0.4694120000000  0.5220740000000  0.5637020000000 1.0
C      1  0.4613950000000  0.4923580000000  0.5624000000000 1.0
C      1  0.4713110000000  0.4744690000000  0.5363700000000 1.0
C      1  0.4657830000000  0.4394120000000  0.4954770000000 1.0
C      1  0.4672880000000  0.4315570000000  0.4680050000000 1.0
C      1  0.4631020000000  0.4541850000000  0.4502790000000 1.0
C      1  0.4611700000000  0.5093590000000  0.4338410000000 1.0
C      1  0.4891260000000  0.4853180000000  0.5154840000000 1.0
END
