TITL C-3578208-4450-726 1.60589072222607e-06 125000 -618.811111072247 0 0 101 (C1) n - 1
REM
REM in /home/bkarasulu/work/CARBON/AIRSS/Generating-Clusters/EDIP-Nigel-Params/with-SteepDescent/Higher-Symm/SD-CG/HFTN-CG
REM
REM
REM
REM
REM
REM ./C.cell (12c818d87b63d06a65506943cc24bca4)
REM
REM compiler GCC version 9.2.1 20190827 (Red Hat 9.2.1-1)
REM options -cpp -mtune=generic -march=x86-64 -g -O0 -fpre-include=/usr/include/finclude/math-vector-fortran.h
REM seed 309122492 1743654774 -1136631001 166727157 51225035 -1803498594 1787555335 870345648 1224879925 1499835363 -1131317929 -1327819181 -1169781618 -1922623375 1401913460 1259182112 1418506779 46988907 640691823 -1876541315 1934062610 395288512 474319668 225631027 1739427581 -264317295 2133690584 -1932929180 -1081816723 -400473641 -844918854 -964706543 1740727191
REM
CELL 1.54180   50.00000   50.00000   50.00000   90.00000   90.00000   90.00000
LATT -1
SFAC C  
C      1  0.4307480000000  0.5120930000000  0.4765310000000 1.0
C      1  0.4748590000000  0.4439310000000  0.5170550000000 1.0
C      1  0.5147880000000  0.4735000000000  0.4304430000000 1.0
C      1  0.4289210000000  0.4805000000000  0.5306000000000 1.0
C      1  0.5692040000000  0.4890230000000  0.4769670000000 1.0
C      1  0.5714630000000  0.5196680000000  0.5305850000000 1.0
C      1  0.4716290000000  0.5593280000000  0.4827590000000 1.0
C      1  0.5266370000000  0.5577110000000  0.5180040000000 1.0
C      1  0.5290000000000  0.4407800000000  0.4830570000000 1.0
C      1  0.5107960000000  0.5325130000000  0.5689160000000 1.0
C      1  0.4850290000000  0.5263780000000  0.4302890000000 1.0
C      1  0.4896270000000  0.4668130000000  0.5694320000000 1.0
C      1  0.4708980000000  0.4549020000000  0.4369490000000 1.0
C      1  0.4387570000000  0.4757610000000  0.4443800000000 1.0
C      1  0.4456830000000  0.4383930000000  0.4843730000000 1.0
C      1  0.4678920000000  0.5337840000000  0.5294840000000 1.0
C      1  0.5285940000000  0.5454510000000  0.4362140000000 1.0
C      1  0.5331860000000  0.4640900000000  0.5309190000000 1.0
C      1  0.4438230000000  0.5183080000000  0.5479020000000 1.0
C      1  0.5606200000000  0.5243770000000  0.4427970000000 1.0
C      1  0.5553360000000  0.4812620000000  0.5462980000000 1.0
C      1  0.4512130000000  0.5616740000000  0.5254760000000 1.0
C      1  0.5551160000000  0.5596900000000  0.4841930000000 1.0
C      1  0.5500430000000  0.4367880000000  0.5251340000000 1.0
C      1  0.5718130000000  0.5591310000000  0.5091990000000 1.0
C      1  0.5212420000000  0.5799920000000  0.5576470000000 1.0
C      1  0.5514500000000  0.5032610000000  0.5667860000000 1.0
C      1  0.5727690000000  0.4485390000000  0.5123760000000 1.0
C      1  0.4293570000000  0.4413910000000  0.5082060000000 1.0
C      1  0.4278780000000  0.5503660000000  0.5133340000000 1.0
C      1  0.4945590000000  0.4366340000000  0.4467450000000 1.0
C      1  0.4795970000000  0.4198120000000  0.5559760000000 1.0
C      1  0.5053870000000  0.5637430000000  0.4460720000000 1.0
C      1  0.5554600000000  0.4954520000000  0.4317970000000 1.0
C      1  0.4483880000000  0.4952110000000  0.5678850000000 1.0
C      1  0.4448170000000  0.5047350000000  0.4322710000000 1.0
C      1  0.4653340000000  0.5795070000000  0.5057000000000 1.0
C      1  0.5082090000000  0.4640750000000  0.5923230000000 1.0
C      1  0.5870300000000  0.5112010000000  0.4672310000000 1.0
C      1  0.4625980000000  0.4161950000000  0.4929690000000 1.0
C      1  0.5356610000000  0.4197380000000  0.5050890000000 1.0
C      1  0.5386010000000  0.5829550000000  0.4913950000000 1.0
C      1  0.5109050000000  0.5301970000000  0.4171430000000 1.0
C      1  0.4918250000000  0.5355300000000  0.5913690000000 1.0
C      1  0.4887380000000  0.4697690000000  0.4175080000000 1.0
C      1  0.5874530000000  0.4943620000000  0.5352500000000 1.0
C      1  0.4113800000000  0.4912530000000  0.4651050000000 1.0
C      1  0.4115270000000  0.5045340000000  0.5351540000000 1.0
C      1  0.5041240000000  0.4706070000000  0.5428430000000 1.0
C      1  0.5456910000000  0.5066900000000  0.4875130000000 1.0
C      1  0.4728090000000  0.5344910000000  0.4981870000000 1.0
C      1  0.4895280000000  0.5096540000000  0.4558470000000 1.0
C      1  0.4969570000000  0.5296570000000  0.5417450000000 1.0
C      1  0.5104490000000  0.4899810000000  0.4559910000000 1.0
C      1  0.5451400000000  0.5124590000000  0.5167970000000 1.0
C      1  0.4536480000000  0.4939500000000  0.4883400000000 1.0
C      1  0.4552560000000  0.4924490000000  0.5200140000000 1.0
C      1  0.4551010000000  0.4659480000000  0.4705380000000 1.0
C      1  0.5284450000000  0.4652760000000  0.4991400000000 1.0
C      1  0.5448980000000  0.5333220000000  0.4693560000000 1.0
C      1  0.5896040000000  0.5356840000000  0.5129490000000 1.0
C      1  0.5070500000000  0.5721030000000  0.5346330000000 1.0
C      1  0.5241020000000  0.5059580000000  0.5738630000000 1.0
C      1  0.5835950000000  0.4689940000000  0.4957490000000 1.0
C      1  0.4204650000000  0.4680220000000  0.5064210000000 1.0
C      1  0.4162480000000  0.5307820000000  0.4962050000000 1.0
C      1  0.5011360000000  0.4353100000000  0.4747520000000 1.0
C      1  0.4942370000000  0.4285590000000  0.5335930000000 1.0
C      1  0.4992230000000  0.5650120000000  0.4741200000000 1.0
C      1  0.5341050000000  0.4871050000000  0.4118970000000 1.0
C      1  0.4757630000000  0.4930050000000  0.5744830000000 1.0
C      1  0.4656690000000  0.5127670000000  0.4117390000000 1.0
C      1  0.4565830000000  0.5528170000000  0.4563600000000 1.0
C      1  0.4684200000000  0.4445080000000  0.5658470000000 1.0
C      1  0.5582730000000  0.4748790000000  0.4534480000000 1.0
C      1  0.4483820000000  0.4404640000000  0.5321330000000 1.0
C      1  0.5437930000000  0.4478480000000  0.4565750000000 1.0
C      1  0.5526790000000  0.5599080000000  0.5335400000000 1.0
C      1  0.4783000000000  0.5543280000000  0.4362100000000 1.0
C      1  0.5322800000000  0.5547280000000  0.5666050000000 1.0
C      1  0.5218100000000  0.4457490000000  0.4366380000000 1.0
C      1  0.5620170000000  0.5312490000000  0.5579860000000 1.0
C      1  0.4420110000000  0.5260890000000  0.4532770000000 1.0
C      1  0.4383100000000  0.4674750000000  0.5579270000000 1.0
C      1  0.4001580000000  0.4837020000000  0.4916810000000 1.0
C      1  0.4907430000000  0.4133060000000  0.4894010000000 1.0
C      1  0.4850360000000  0.4929670000000  0.3991030000000 1.0
C      1  0.3993450000000  0.5099920000000  0.5089280000000 1.0
C      1  0.6014800000000  0.5154540000000  0.4927690000000 1.0
C      1  0.6003970000000  0.4888420000000  0.5091430000000 1.0
C      1  0.4934000000000  0.5893890000000  0.5145240000000 1.0
C      1  0.5101860000000  0.5865000000000  0.4890270000000 1.0
C      1  0.5078390000000  0.4102030000000  0.5143490000000 1.0
C      1  0.4868660000000  0.5080240000000  0.5974570000000 1.0
C      1  0.5147790000000  0.5067910000000  0.3990390000000 1.0
C      1  0.5133470000000  0.4917970000000  0.5976030000000 1.0
C      1  0.4840570000000  0.4754350000000  0.5204740000000 1.0
C      1  0.5212720000000  0.4892260000000  0.4844890000000 1.0
C      1  0.4788500000000  0.5101730000000  0.4842440000000 1.0
C      1  0.5172850000000  0.5270910000000  0.5189440000000 1.0
C      1  0.4999860000000  0.4995770000000  0.5022580000000 1.0
END
