TITL C-3578208-4450-63 -3.70433267864105e-06 125000 -1235.47640698439 0 0 200 (C1) n - 1
REM
REM in /home/bkarasulu/work/CARBON/AIRSS/Generating-Clusters/EDIP-Nigel-Params/with-SteepDescent/Higher-Symm/SD-CG/HFTN-CG
REM
REM
REM
REM
REM
REM ./C.cell (12c818d87b63d06a65506943cc24bca4)
REM
REM compiler GCC version 9.2.1 20190827 (Red Hat 9.2.1-1)
REM options -cpp -mtune=generic -march=x86-64 -g -O0 -fpre-include=/usr/include/finclude/math-vector-fortran.h
REM seed -431452003 1149829159 -1923260867 1733377405 -1771489042 -735575492 788854028 -361224903 -1019583623 1893188352 2115438521 485333925 976723463 1287998603 1500724076 65004779 -890379978 239330390 -1673808486 1116990913 1582845865 181389085 1633848326 -613481560 -1883304764 -259448875 579727766 1581128133 -1167228354 -86822150 -1583962231 -889336971 2061793950
REM
CELL 1.54180   50.00000   50.00000   50.00000   90.00000   90.00000   90.00000
LATT -1
SFAC C  
C      1  0.5297470000000  0.5367570000000  0.6120910000000 1.0
C      1  0.5309160000000  0.3823350000000  0.4725030000000 1.0
C      1  0.5295910000000  0.5865930000000  0.4095160000000 1.0
C      1  0.5115320000000  0.4618920000000  0.5480470000000 1.0
C      1  0.5126720000000  0.4758160000000  0.4434540000000 1.0
C      1  0.5147700000000  0.5592870000000  0.5066380000000 1.0
C      1  0.5982240000000  0.5533730000000  0.5084180000000 1.0
C      1  0.5948230000000  0.4671330000000  0.5420280000000 1.0
C      1  0.5977500000000  0.4806340000000  0.4487480000000 1.0
C      1  0.4608150000000  0.5386120000000  0.5264170000000 1.0
C      1  0.4614510000000  0.4559800000000  0.5182070000000 1.0
C      1  0.4587600000000  0.5081410000000  0.4532140000000 1.0
C      1  0.4908530000000  0.5861820000000  0.4127360000000 1.0
C      1  0.4908510000000  0.5355700000000  0.6134860000000 1.0
C      1  0.4920890000000  0.3820930000000  0.4696900000000 1.0
C      1  0.4211720000000  0.4402370000000  0.5710630000000 1.0
C      1  0.4206820000000  0.4699190000000  0.4157170000000 1.0
C      1  0.4225530000000  0.5894290000000  0.5176440000000 1.0
C      1  0.4059930000000  0.4415320000000  0.4534780000000 1.0
C      1  0.4066030000000  0.5721410000000  0.4744410000000 1.0
C      1  0.4013380000000  0.4813840000000  0.5634650000000 1.0
C      1  0.4709160000000  0.4486040000000  0.4195500000000 1.0
C      1  0.4722400000000  0.5886530000000  0.4982120000000 1.0
C      1  0.4688080000000  0.4581910000000  0.5844300000000 1.0
C      1  0.6021790000000  0.5815410000000  0.4696030000000 1.0
C      1  0.5969470000000  0.4841220000000  0.5875410000000 1.0
C      1  0.5979950000000  0.4321490000000  0.4412080000000 1.0
C      1  0.4716670000000  0.5865990000000  0.5285620000000 1.0
C      1  0.4670050000000  0.4311550000000  0.5734590000000 1.0
C      1  0.4673410000000  0.4718510000000  0.4028760000000 1.0
C      1  0.4744480000000  0.5459420000000  0.5676410000000 1.0
C      1  0.4778230000000  0.4178790000000  0.5029520000000 1.0
C      1  0.4796030000000  0.5390390000000  0.4281680000000 1.0
C      1  0.5103880000000  0.3908590000000  0.4900480000000 1.0
C      1  0.5106090000000  0.5652710000000  0.4104830000000 1.0
C      1  0.5094820000000  0.5469630000000  0.5950490000000 1.0
C      1  0.5557780000000  0.4542980000000  0.4280140000000 1.0
C      1  0.5558320000000  0.5846430000000  0.4922950000000 1.0
C      1  0.5543110000000  0.4616340000000  0.5755730000000 1.0
C      1  0.5458340000000  0.4850770000000  0.4737380000000 1.0
C      1  0.5460470000000  0.5271220000000  0.5002200000000 1.0
C      1  0.5450600000000  0.4840430000000  0.5234050000000 1.0
C      1  0.5356570000000  0.5218040000000  0.4411400000000 1.0
C      1  0.5363980000000  0.5386800000000  0.5486100000000 1.0
C      1  0.5367210000000  0.4364460000000  0.5079490000000 1.0
C      1  0.4099770000000  0.5439820000000  0.5331990000000 1.0
C      1  0.4051340000000  0.4461060000000  0.5266020000000 1.0
C      1  0.4090720000000  0.5050150000000  0.4444390000000 1.0
C      1  0.3974920000000  0.5081820000000  0.5567650000000 1.0
C      1  0.3991310000000  0.4363990000000  0.4803270000000 1.0
C      1  0.4008880000000  0.5503490000000  0.4576020000000 1.0
C      1  0.4823300000000  0.5931120000000  0.4395000000000 1.0
C      1  0.4816520000000  0.5093400000000  0.6067110000000 1.0
C      1  0.4835030000000  0.4012960000000  0.4499120000000 1.0
C      1  0.4701500000000  0.4333900000000  0.4772960000000 1.0
C      1  0.4687270000000  0.5531500000000  0.4535420000000 1.0
C      1  0.4582010000000  0.5198280000000  0.5666360000000 1.0
C      1  0.5846550000000  0.5446980000000  0.5345850000000 1.0
C      1  0.5840090000000  0.4470840000000  0.5214930000000 1.0
C      1  0.5849910000000  0.5082200000000  0.4433310000000 1.0
C      1  0.4194930000000  0.5217870000000  0.5699360000000 1.0
C      1  0.4390650000000  0.4390590000000  0.4995270000000 1.0
C      1  0.4414570000000  0.5348940000000  0.4499570000000 1.0
C      1  0.5130190000000  0.4658400000000  0.3857760000000 1.0
C      1  0.5125680000000  0.6152870000000  0.5264740000000 1.0
C      1  0.5123970000000  0.4202230000000  0.5887080000000 1.0
C      1  0.5287770000000  0.6012570000000  0.4547390000000 1.0
C      1  0.5307190000000  0.4914870000000  0.5991680000000 1.0
C      1  0.5328350000000  0.4169100000000  0.4396290000000 1.0
C      1  0.5041170000000  0.4211970000000  0.4434760000000 1.0
C      1  0.5033940000000  0.5870990000000  0.4588700000000 1.0
C      1  0.5019390000000  0.4929500000000  0.5932410000000 1.0
C      1  0.4807420000000  0.5554480000000  0.5402090000000 1.0
C      1  0.4839750000000  0.4367460000000  0.5236880000000 1.0
C      1  0.4825050000000  0.5112290000000  0.4342510000000 1.0
C      1  0.4016170000000  0.5216020000000  0.4685220000000 1.0
C      1  0.3994500000000  0.5151610000000  0.5274840000000 1.0
C      1  0.3968380000000  0.4592490000000  0.5007300000000 1.0
C      1  0.5195130000000  0.4697530000000  0.4717380000000 1.0
C      1  0.5209200000000  0.5375320000000  0.4878280000000 1.0
C      1  0.5181090000000  0.4891240000000  0.5369190000000 1.0
C      1  0.4997870000000  0.5860330000000  0.4892880000000 1.0
C      1  0.4970480000000  0.4659200000000  0.5812770000000 1.0
C      1  0.4989650000000  0.4462690000000  0.4277350000000 1.0
C      1  0.5936160000000  0.4211570000000  0.4674920000000 1.0
C      1  0.5915630000000  0.5724260000000  0.4454560000000 1.0
C      1  0.5927070000000  0.5120980000000  0.5828980000000 1.0
C      1  0.5087660000000  0.5428280000000  0.5327710000000 1.0
C      1  0.5096960000000  0.4496690000000  0.5184170000000 1.0
C      1  0.5084230000000  0.5066640000000  0.4479070000000 1.0
C      1  0.4591810000000  0.4985560000000  0.5459460000000 1.0
C      1  0.4638630000000  0.4635000000000  0.4744010000000 1.0
C      1  0.4673460000000  0.5441750000000  0.4832470000000 1.0
C      1  0.5108700000000  0.3857120000000  0.5187260000000 1.0
C      1  0.5110360000000  0.5428920000000  0.3918320000000 1.0
C      1  0.5106810000000  0.5743020000000  0.5863940000000 1.0
C      1  0.5345760000000  0.5801440000000  0.5702410000000 1.0
C      1  0.5348830000000  0.3964890000000  0.5319240000000 1.0
C      1  0.5341950000000  0.5250080000000  0.3955860000000 1.0
C      1  0.4126420000000  0.5218840000000  0.4197890000000 1.0
C      1  0.4124670000000  0.5592750000000  0.5617570000000 1.0
C      1  0.4107460000000  0.4165910000000  0.5235330000000 1.0
C      1  0.5549750000000  0.5853500000000  0.5375430000000 1.0
C      1  0.5535570000000  0.4225320000000  0.5538310000000 1.0
C      1  0.5542050000000  0.4933380000000  0.4062350000000 1.0
C      1  0.5473090000000  0.5159250000000  0.6036810000000 1.0
C      1  0.5485650000000  0.4008940000000  0.4597480000000 1.0
C      1  0.5466150000000  0.5911370000000  0.4323980000000 1.0
C      1  0.5782470000000  0.4633060000000  0.4101440000000 1.0
C      1  0.5782160000000  0.5957130000000  0.5084500000000 1.0
C      1  0.5770010000000  0.4419060000000  0.5775520000000 1.0
C      1  0.5747180000000  0.4202840000000  0.5315140000000 1.0
C      1  0.5747870000000  0.5145820000000  0.4156660000000 1.0
C      1  0.5747130000000  0.5669690000000  0.5520470000000 1.0
C      1  0.4866260000000  0.3899950000000  0.5594780000000 1.0
C      1  0.4862280000000  0.5061220000000  0.3753880000000 1.0
C      1  0.4857690000000  0.6095180000000  0.5674830000000 1.0
C      1  0.4842960000000  0.3852080000000  0.5320050000000 1.0
C      1  0.4841840000000  0.5323400000000  0.3848870000000 1.0
C      1  0.4840910000000  0.5863840000000  0.5831390000000 1.0
C      1  0.6034760000000  0.5130480000000  0.4781420000000 1.0
C      1  0.6029180000000  0.5117090000000  0.5222400000000 1.0
C      1  0.6032190000000  0.4737520000000  0.4990860000000 1.0
C      1  0.5150520000000  0.4433600000000  0.4028580000000 1.0
C      1  0.5142040000000  0.6105340000000  0.4986740000000 1.0
C      1  0.5131810000000  0.4469350000000  0.5977780000000 1.0
C      1  0.4241880000000  0.5886820000000  0.4887440000000 1.0
C      1  0.4214480000000  0.4679320000000  0.5788340000000 1.0
C      1  0.4239820000000  0.4469360000000  0.4326520000000 1.0
C      1  0.4568060000000  0.5806320000000  0.4481230000000 1.0
C      1  0.4539860000000  0.5096070000000  0.5952760000000 1.0
C      1  0.4576130000000  0.4150260000000  0.4564190000000 1.0
C      1  0.4119090000000  0.5507480000000  0.4289920000000 1.0
C      1  0.4150010000000  0.5430480000000  0.5897430000000 1.0
C      1  0.4106970000000  0.4114430000000  0.4933280000000 1.0
C      1  0.5009600000000  0.5131560000000  0.5283060000000 1.0
C      1  0.5040740000000  0.4718860000000  0.4983600000000 1.0
C      1  0.5038390000000  0.5145850000000  0.4770930000000 1.0
C      1  0.3765970000000  0.5110570000000  0.4818430000000 1.0
C      1  0.3745320000000  0.5068990000000  0.5108200000000 1.0
C      1  0.3729110000000  0.4783110000000  0.5018030000000 1.0
C      1  0.5650870000000  0.4641210000000  0.4795330000000 1.0
C      1  0.5644120000000  0.5328730000000  0.4787670000000 1.0
C      1  0.5645150000000  0.4993040000000  0.5393750000000 1.0
C      1  0.4348750000000  0.5529350000000  0.5181230000000 1.0
C      1  0.4320060000000  0.4572580000000  0.5374390000000 1.0
C      1  0.4339960000000  0.4877460000000  0.4473020000000 1.0
C      1  0.5696470000000  0.5286410000000  0.5898460000000 1.0
C      1  0.5705510000000  0.4064770000000  0.4783050000000 1.0
C      1  0.5627210000000  0.5662340000000  0.4384100000000 1.0
C      1  0.5384830000000  0.4625940000000  0.6003780000000 1.0
C      1  0.5404650000000  0.4327770000000  0.4150740000000 1.0
C      1  0.5393840000000  0.6076740000000  0.4820050000000 1.0
C      1  0.4741430000000  0.4772470000000  0.4982680000000 1.0
C      1  0.4738790000000  0.5150720000000  0.4817780000000 1.0
C      1  0.4715930000000  0.5104320000000  0.5225420000000 1.0
C      1  0.4419630000000  0.4858540000000  0.4044750000000 1.0
C      1  0.4434890000000  0.5904020000000  0.5377020000000 1.0
C      1  0.4418150000000  0.4224740000000  0.5623290000000 1.0
C      1  0.4381330000000  0.4116210000000  0.5344810000000 1.0
C      1  0.4386620000000  0.5156460000000  0.4069420000000 1.0
C      1  0.4371100000000  0.5765310000000  0.5628680000000 1.0
C      1  0.4244570000000  0.5205390000000  0.4875460000000 1.0
C      1  0.4234560000000  0.5012340000000  0.5114750000000 1.0
C      1  0.4184160000000  0.4772060000000  0.4940210000000 1.0
C      1  0.5634430000000  0.4925650000000  0.5693550000000 1.0
C      1  0.5641320000000  0.4424610000000  0.4578710000000 1.0
C      1  0.5636290000000  0.5618760000000  0.4702210000000 1.0
C      1  0.4891840000000  0.6076210000000  0.5400440000000 1.0
C      1  0.4888800000000  0.4125240000000  0.5754750000000 1.0
C      1  0.4892530000000  0.4809300000000  0.3865090000000 1.0
C      1  0.6156310000000  0.4837140000000  0.4725540000000 1.0
C      1  0.6161390000000  0.5312050000000  0.4997500000000 1.0
C      1  0.6145820000000  0.4838870000000  0.5275180000000 1.0
C      1  0.5388540000000  0.4498630000000  0.5536370000000 1.0
C      1  0.5399050000000  0.4789650000000  0.4300020000000 1.0
C      1  0.5416040000000  0.5711230000000  0.5138630000000 1.0
C      1  0.4369940000000  0.5467940000000  0.4885270000000 1.0
C      1  0.4320160000000  0.4876750000000  0.5401030000000 1.0
C      1  0.4340260000000  0.4671590000000  0.4702800000000 1.0
C      1  0.5983500000000  0.4606700000000  0.5703050000000 1.0
C      1  0.5998760000000  0.4588630000000  0.4294080000000 1.0
C      1  0.6000290000000  0.5803550000000  0.4976490000000 1.0
C      1  0.4508480000000  0.5879120000000  0.4781420000000 1.0
C      1  0.4475830000000  0.4787580000000  0.5867370000000 1.0
C      1  0.4501530000000  0.4356000000000  0.4349480000000 1.0
C      1  0.5518590000000  0.5554090000000  0.5685340000000 1.0
C      1  0.5527450000000  0.4110140000000  0.5122480000000 1.0
C      1  0.5512290000000  0.5344560000000  0.4184980000000 1.0
C      1  0.5582780000000  0.5280260000000  0.5309890000000 1.0
C      1  0.5580150000000  0.4572480000000  0.5082790000000 1.0
C      1  0.5580540000000  0.5117930000000  0.4583890000000 1.0
C      1  0.4427010000000  0.5432030000000  0.6005440000000 1.0
C      1  0.4404510000000  0.4023030000000  0.4851980000000 1.0
C      1  0.4396910000000  0.5643340000000  0.4218270000000 1.0
C      1  0.4582630000000  0.3976760000000  0.5148790000000 1.0
C      1  0.4584980000000  0.5405110000000  0.4059590000000 1.0
C      1  0.4586350000000  0.5661220000000  0.5824290000000 1.0
C      1  0.5836460000000  0.4989440000000  0.4995080000000 1.0
C      1  0.5393180000000  0.4987520000000  0.4989270000000 1.0
END
