TITL C-3577083-591-216 -2.74692326051073e-06 125000 -554.258456638895 0 0 91 (C1) n - 1
REM
REM in /home/bkarasulu/work/CARBON/AIRSS/Generating-Clusters/EDIP-Nigel-Params/with-SteepDescent/Higher-Symm/SD-CG/HFTN-CG
REM
REM
REM
REM
REM
REM ./C.cell (12c818d87b63d06a65506943cc24bca4)
REM
REM compiler GCC version 9.2.1 20190827 (Red Hat 9.2.1-1)
REM options -cpp -mtune=generic -march=x86-64 -g -O0 -fpre-include=/usr/include/finclude/math-vector-fortran.h
REM seed -1478012066 -447894473 -23059020 1470077396 -1156058128 -1702429725 -1289943338 39655448 1469738627 -453097735 -1464279191 228889620 -12109360 1615701701 -338066421 -2059833884 591035159 -942431446 1669563291 -1445226116 -775685250 -1069610255 1344994135 -2144071222 -1997478345 1165393140 979136385 1357881051 1354829232 1869279091 367996981 -1373457360 169157103
REM
CELL 1.54180   50.00000   50.00000   50.00000   90.00000   90.00000   90.00000
LATT -1
SFAC C  
C      1  0.5808230000000  0.5000150000000  0.5226840000000 1.0
C      1  0.5670630000000  0.5422000000000  0.5192650000000 1.0
C      1  0.5332500000000  0.5721030000000  0.5237670000000 1.0
C      1  0.4880980000000  0.5771510000000  0.5234860000000 1.0
C      1  0.4427740000000  0.5677270000000  0.5231960000000 1.0
C      1  0.4231030000000  0.5225220000000  0.5244830000000 1.0
C      1  0.4154120000000  0.4790630000000  0.5219610000000 1.0
C      1  0.4457090000000  0.4406340000000  0.5236840000000 1.0
C      1  0.4823480000000  0.4140230000000  0.5193190000000 1.0
C      1  0.5281900000000  0.4282120000000  0.5243350000000 1.0
C      1  0.5636500000000  0.4570490000000  0.5266710000000 1.0
C      1  0.5084710000000  0.5819520000000  0.4808230000000 1.0
C      1  0.4643590000000  0.5768390000000  0.4815400000000 1.0
C      1  0.4195080000000  0.5477620000000  0.4863500000000 1.0
C      1  0.4170500000000  0.5016120000000  0.4767190000000 1.0
C      1  0.4234030000000  0.4497290000000  0.4840110000000 1.0
C      1  0.4630190000000  0.4255300000000  0.4772360000000 1.0
C      1  0.5116280000000  0.4095270000000  0.4808850000000 1.0
C      1  0.5532430000000  0.4373570000000  0.4826400000000 1.0
C      1  0.5891780000000  0.4680020000000  0.4858400000000 1.0
C      1  0.5828210000000  0.5239380000000  0.4754110000000 1.0
C      1  0.5622380000000  0.5761130000000  0.4841110000000 1.0
C      1  0.5499730000000  0.4989170000000  0.5791030000000 1.0
C      1  0.5408140000000  0.5220020000000  0.5912080000000 1.0
C      1  0.5214270000000  0.5402670000000  0.5892280000000 1.0
C      1  0.4968040000000  0.5456830000000  0.5779830000000 1.0
C      1  0.4746600000000  0.5330440000000  0.5888440000000 1.0
C      1  0.4554020000000  0.5150780000000  0.5801780000000 1.0
C      1  0.4570070000000  0.4889330000000  0.5893030000000 1.0
C      1  0.4675310000000  0.4651560000000  0.5796010000000 1.0
C      1  0.4930910000000  0.4586250000000  0.5883080000000 1.0
C      1  0.5186130000000  0.4581210000000  0.5775480000000 1.0
C      1  0.5379320000000  0.4753660000000  0.5871550000000 1.0
C      1  0.5375510000000  0.4664560000000  0.4400590000000 1.0
C      1  0.5461810000000  0.4917210000000  0.4321210000000 1.0
C      1  0.5461410000000  0.5193010000000  0.4359120000000 1.0
C      1  0.5228140000000  0.5319890000000  0.4279810000000 1.0
C      1  0.5068060000000  0.5474930000000  0.4443790000000 1.0
C      1  0.4783320000000  0.5426870000000  0.4457340000000 1.0
C      1  0.4660310000000  0.5208020000000  0.4332880000000 1.0
C      1  0.4532820000000  0.4959220000000  0.4369810000000 1.0
C      1  0.4679080000000  0.4734940000000  0.4285230000000 1.0
C      1  0.4852230000000  0.4531660000000  0.4369530000000 1.0
C      1  0.5125150000000  0.4570100000000  0.4321660000000 1.0
C      1  0.5492900000000  0.5307590000000  0.5416640000000 1.0
C      1  0.5234010000000  0.5445490000000  0.5331020000000 1.0
C      1  0.4953390000000  0.5479380000000  0.5482740000000 1.0
C      1  0.4751680000000  0.5287300000000  0.5374590000000 1.0
C      1  0.4513490000000  0.5162570000000  0.5506730000000 1.0
C      1  0.4482010000000  0.4875140000000  0.5403190000000 1.0
C      1  0.4641970000000  0.4627490000000  0.5498510000000 1.0
C      1  0.4910650000000  0.4636850000000  0.5372920000000 1.0
C      1  0.5180840000000  0.4570510000000  0.5480750000000 1.0
C      1  0.5402850000000  0.4753200000000  0.5351230000000 1.0
C      1  0.5533430000000  0.5015720000000  0.5495610000000 1.0
C      1  0.4584570000000  0.4204350000000  0.5053360000000 1.0
C      1  0.5086900000000  0.4120300000000  0.5089180000000 1.0
C      1  0.5535430000000  0.4342520000000  0.5110190000000 1.0
C      1  0.5855100000000  0.4722160000000  0.5136480000000 1.0
C      1  0.5868110000000  0.5242000000000  0.5042450000000 1.0
C      1  0.5601720000000  0.5703630000000  0.5113210000000 1.0
C      1  0.5119890000000  0.5871120000000  0.5094800000000 1.0
C      1  0.4626130000000  0.5831780000000  0.5092910000000 1.0
C      1  0.4226240000000  0.5496540000000  0.5138540000000 1.0
C      1  0.4099730000000  0.5029510000000  0.5047380000000 1.0
C      1  0.4217780000000  0.4522250000000  0.5115690000000 1.0
C      1  0.4503390000000  0.5198060000000  0.4964340000000 1.0
C      1  0.4513520000000  0.4897120000000  0.5098410000000 1.0
C      1  0.4618300000000  0.4638290000000  0.4962580000000 1.0
C      1  0.4885630000000  0.4514530000000  0.5112660000000 1.0
C      1  0.5165410000000  0.4540830000000  0.4973590000000 1.0
C      1  0.5285370000000  0.4830610000000  0.5080930000000 1.0
C      1  0.5530400000000  0.4970230000000  0.4962100000000 1.0
C      1  0.5447090000000  0.5269730000000  0.4914470000000 1.0
C      1  0.5166970000000  0.5310790000000  0.5063360000000 1.0
C      1  0.4934680000000  0.5496410000000  0.4962680000000 1.0
C      1  0.4673040000000  0.5398820000000  0.5118090000000 1.0
C      1  0.4367370000000  0.4886850000000  0.4603070000000 1.0
C      1  0.4397500000000  0.4609150000000  0.4649570000000 1.0
C      1  0.4825820000000  0.4422580000000  0.4638410000000 1.0
C      1  0.5104090000000  0.4365820000000  0.4718380000000 1.0
C      1  0.5475220000000  0.4603530000000  0.4665650000000 1.0
C      1  0.5663860000000  0.4807620000000  0.4745700000000 1.0
C      1  0.5620390000000  0.5347700000000  0.4566770000000 1.0
C      1  0.5498840000000  0.5610980000000  0.4641960000000 1.0
C      1  0.5211340000000  0.5623590000000  0.4643830000000 1.0
C      1  0.4614770000000  0.5533990000000  0.4660710000000 1.0
C      1  0.4366970000000  0.5399380000000  0.4665080000000 1.0
C      1  0.5067170000000  0.5033140000000  0.5090470000000 1.0
C      1  0.4891180000000  0.4956790000000  0.4633440000000 1.0
C      1  0.4887040000000  0.4984370000000  0.4888280000000 1.0
END
