TITL C-3577081-279-176 1.74165154350244e-06 125000 -1222.84131920161 0 0 193 (C1) n - 1
REM
REM in /home/bkarasulu/work/CARBON/AIRSS/Generating-Clusters/EDIP-Nigel-Params/with-SteepDescent/Higher-Symm/SD-CG/HFTN-CG
REM
REM
REM
REM
REM
REM ./C.cell (12c818d87b63d06a65506943cc24bca4)
REM
REM compiler GCC version 9.2.1 20190827 (Red Hat 9.2.1-1)
REM options -cpp -mtune=generic -march=x86-64 -g -O0 -fpre-include=/usr/include/finclude/math-vector-fortran.h
REM seed -1443257105 -302832310 583120297 1561344591 447296234 -2035014676 -589943451 310933866 973380417 -1738642405 984703404 -723953492 589913039 1462411641 -656935635 433974426 -1475731611 233918010 -518142110 1331609685 -1762986400 1210240691 -541191338 -749419083 340403925 -1155848807 -1701159135 183002425 -1763106013 -4228728 -1910208517 890962528 -738321510
REM
CELL 1.54180   50.00000   50.00000   50.00000   90.00000   90.00000   90.00000
LATT -1
SFAC C  
C      1  0.4345160000000  0.5809920000000  0.4834800000000 1.0
C      1  0.4343940000000  0.4732110000000  0.5783030000000 1.0
C      1  0.4346350000000  0.4450550000000  0.4377190000000 1.0
C      1  0.5661240000000  0.5846240000000  0.4847430000000 1.0
C      1  0.5657570000000  0.4705430000000  0.5807540000000 1.0
C      1  0.5662150000000  0.4445630000000  0.4341680000000 1.0
C      1  0.5153480000000  0.3969540000000  0.4656850000000 1.0
C      1  0.5152600000000  0.5809180000000  0.4277360000000 1.0
C      1  0.5149870000000  0.5214830000000  0.6051890000000 1.0
C      1  0.4854500000000  0.3975360000000  0.4662060000000 1.0
C      1  0.4853550000000  0.5800830000000  0.4280080000000 1.0
C      1  0.4852950000000  0.5216430000000  0.6041370000000 1.0
C      1  0.6012050000000  0.4831150000000  0.4436250000000 1.0
C      1  0.6011030000000  0.5571090000000  0.5135750000000 1.0
C      1  0.6009420000000  0.4594800000000  0.5427350000000 1.0
C      1  0.3988110000000  0.4825480000000  0.4445000000000 1.0
C      1  0.3987580000000  0.5562700000000  0.5127010000000 1.0
C      1  0.3988680000000  0.4601130000000  0.5424690000000 1.0
C      1  0.4725110000000  0.4619060000000  0.5323940000000 1.0
C      1  0.4724200000000  0.4910900000000  0.4512270000000 1.0
C      1  0.4723840000000  0.5464650000000  0.5164670000000 1.0
C      1  0.5269910000000  0.4609380000000  0.5324640000000 1.0
C      1  0.5270680000000  0.4909210000000  0.4493860000000 1.0
C      1  0.5269990000000  0.5482900000000  0.5170880000000 1.0
C      1  0.4272470000000  0.5350010000000  0.4336330000000 1.0
C      1  0.4270060000000  0.5395010000000  0.5635890000000 1.0
C      1  0.4273390000000  0.4247980000000  0.5025840000000 1.0
C      1  0.5747120000000  0.5359660000000  0.4332760000000 1.0
C      1  0.5746150000000  0.5395870000000  0.5645480000000 1.0
C      1  0.5746480000000  0.4242170000000  0.5019880000000 1.0
C      1  0.4135730000000  0.4342020000000  0.5373690000000 1.0
C      1  0.4133040000000  0.5001420000000  0.4247160000000 1.0
C      1  0.4132930000000  0.5646850000000  0.5377600000000 1.0
C      1  0.5860610000000  0.4338830000000  0.5376160000000 1.0
C      1  0.5864000000000  0.5003240000000  0.4239710000000 1.0
C      1  0.5861490000000  0.5654550000000  0.5382510000000 1.0
C      1  0.5657860000000  0.5141750000000  0.5529350000000 1.0
C      1  0.5659730000000  0.4468960000000  0.4856140000000 1.0
C      1  0.5659860000000  0.5388200000000  0.4610550000000 1.0
C      1  0.4370300000000  0.5113280000000  0.5556810000000 1.0
C      1  0.4373510000000  0.4455510000000  0.4818970000000 1.0
C      1  0.4372980000000  0.5424390000000  0.4619480000000 1.0
C      1  0.4438820000000  0.5066390000000  0.5264210000000 1.0
C      1  0.4439120000000  0.4733440000000  0.4926320000000 1.0
C      1  0.4438810000000  0.5192510000000  0.4806760000000 1.0
C      1  0.5567040000000  0.5081270000000  0.5259030000000 1.0
C      1  0.5568380000000  0.4733230000000  0.4938320000000 1.0
C      1  0.5568180000000  0.5184670000000  0.4797620000000 1.0
C      1  0.4843700000000  0.5097580000000  0.5480150000000 1.0
C      1  0.4846070000000  0.4540080000000  0.4842460000000 1.0
C      1  0.4844660000000  0.5363810000000  0.4678530000000 1.0
C      1  0.5151040000000  0.5108160000000  0.5484890000000 1.0
C      1  0.5151700000000  0.4524330000000  0.4845480000000 1.0
C      1  0.5150530000000  0.5368560000000  0.4662390000000 1.0
C      1  0.5221530000000  0.5355130000000  0.4375460000000 1.0
C      1  0.5225160000000  0.5363610000000  0.5615280000000 1.0
C      1  0.5222340000000  0.4281960000000  0.5000440000000 1.0
C      1  0.4702110000000  0.5354960000000  0.4399140000000 1.0
C      1  0.4698740000000  0.5344860000000  0.5604480000000 1.0
C      1  0.4703340000000  0.4302060000000  0.4988180000000 1.0
C      1  0.5569650000000  0.4856410000000  0.4451190000000 1.0
C      1  0.5568880000000  0.5545510000000  0.5147090000000 1.0
C      1  0.5567660000000  0.4596880000000  0.5395540000000 1.0
C      1  0.4430000000000  0.4868400000000  0.4464430000000 1.0
C      1  0.4429450000000  0.5525570000000  0.5152840000000 1.0
C      1  0.4431190000000  0.4597850000000  0.5379440000000 1.0
C      1  0.5987520000000  0.4933870000000  0.4720360000000 1.0
C      1  0.5986990000000  0.5273560000000  0.5082350000000 1.0
C      1  0.5986710000000  0.4789990000000  0.5195960000000 1.0
C      1  0.4016260000000  0.4930160000000  0.4725130000000 1.0
C      1  0.4016090000000  0.5267490000000  0.5078030000000 1.0
C      1  0.4017140000000  0.4791880000000  0.5193940000000 1.0
C      1  0.4088810000000  0.4538260000000  0.4489930000000 1.0
C      1  0.4087980000000  0.5667420000000  0.4855630000000 1.0
C      1  0.4086320000000  0.4784780000000  0.5651190000000 1.0
C      1  0.5917120000000  0.4542810000000  0.4468770000000 1.0
C      1  0.5915770000000  0.5686670000000  0.4869450000000 1.0
C      1  0.5912540000000  0.4767400000000  0.5659750000000 1.0
C      1  0.5138480000000  0.6021670000000  0.5418650000000 1.0
C      1  0.5134810000000  0.4127030000000  0.5669900000000 1.0
C      1  0.5139530000000  0.4853100000000  0.3905070000000 1.0
C      1  0.4847980000000  0.6015790000000  0.5415950000000 1.0
C      1  0.4844140000000  0.4130480000000  0.5664550000000 1.0
C      1  0.4849230000000  0.4853650000000  0.3911830000000 1.0
C      1  0.4049900000000  0.4465110000000  0.4785150000000 1.0
C      1  0.4048850000000  0.5448100000000  0.4645160000000 1.0
C      1  0.4048640000000  0.5076590000000  0.5565970000000 1.0
C      1  0.5947990000000  0.4473690000000  0.4772470000000 1.0
C      1  0.5947760000000  0.5458570000000  0.4657590000000 1.0
C      1  0.5945520000000  0.5064920000000  0.5568270000000 1.0
C      1  0.4439230000000  0.4181990000000  0.4476920000000 1.0
C      1  0.4438050000000  0.5857270000000  0.4551830000000 1.0
C      1  0.4438140000000  0.4951330000000  0.5962170000000 1.0
C      1  0.5573650000000  0.4164950000000  0.4431420000000 1.0
C      1  0.5572770000000  0.5908120000000  0.4559120000000 1.0
C      1  0.5567040000000  0.4921850000000  0.6004630000000 1.0
C      1  0.4840220000000  0.4628020000000  0.4540030000000 1.0
C      1  0.4839240000000  0.5581800000000  0.4905290000000 1.0
C      1  0.4844440000000  0.4787450000000  0.5563810000000 1.0
C      1  0.5152210000000  0.4625420000000  0.4529200000000 1.0
C      1  0.5151180000000  0.5593160000000  0.4907690000000 1.0
C      1  0.5155730000000  0.4785940000000  0.5549470000000 1.0
C      1  0.4705650000000  0.4004560000000  0.4930040000000 1.0
C      1  0.4704970000000  0.5554210000000  0.4170580000000 1.0
C      1  0.4703670000000  0.5439250000000  0.5891320000000 1.0
C      1  0.5293740000000  0.4005020000000  0.4929200000000 1.0
C      1  0.5293610000000  0.5555880000000  0.4171990000000 1.0
C      1  0.5292620000000  0.5436670000000  0.5892330000000 1.0
C      1  0.4302690000000  0.5790350000000  0.4314180000000 1.0
C      1  0.4306600000000  0.5192010000000  0.6027210000000 1.0
C      1  0.4304130000000  0.4010300000000  0.4654380000000 1.0
C      1  0.5689690000000  0.5798890000000  0.4327600000000 1.0
C      1  0.5683930000000  0.5177020000000  0.6026370000000 1.0
C      1  0.5690170000000  0.4018540000000  0.4641660000000 1.0
C      1  0.5156800000000  0.5949860000000  0.4756670000000 1.0
C      1  0.5147480000000  0.4725260000000  0.5936290000000 1.0
C      1  0.5157680000000  0.4315640000000  0.4296510000000 1.0
C      1  0.4848480000000  0.5939990000000  0.4755360000000 1.0
C      1  0.4848580000000  0.4739560000000  0.5880130000000 1.0
C      1  0.4849370000000  0.4318850000000  0.4305000000000 1.0
C      1  0.5605990000000  0.3998600000000  0.4910380000000 1.0
C      1  0.5605990000000  0.5575750000000  0.4176320000000 1.0
C      1  0.5604180000000  0.5421590000000  0.5910470000000 1.0
C      1  0.4396080000000  0.3990740000000  0.4919410000000 1.0
C      1  0.4394700000000  0.5570300000000  0.4164950000000 1.0
C      1  0.4393810000000  0.5433550000000  0.5911990000000 1.0
C      1  0.4319510000000  0.5261120000000  0.5076610000000 1.0
C      1  0.4320480000000  0.4797090000000  0.5189380000000 1.0
C      1  0.4319440000000  0.4932780000000  0.4731730000000 1.0
C      1  0.5681630000000  0.5271950000000  0.5068960000000 1.0
C      1  0.5681480000000  0.4802470000000  0.5199320000000 1.0
C      1  0.5682230000000  0.4924440000000  0.4727500000000 1.0
C      1  0.3932000000000  0.5065420000000  0.5284200000000 1.0
C      1  0.3932730000000  0.4714290000000  0.4916430000000 1.0
C      1  0.3931970000000  0.5209620000000  0.4795830000000 1.0
C      1  0.6072130000000  0.5063520000000  0.5287890000000 1.0
C      1  0.6073030000000  0.4717700000000  0.4911640000000 1.0
C      1  0.6073220000000  0.5216350000000  0.4799710000000 1.0
C      1  0.4713110000000  0.4096190000000  0.4432180000000 1.0
C      1  0.4711690000000  0.5939760000000  0.4499240000000 1.0
C      1  0.4717560000000  0.4955000000000  0.6028190000000 1.0
C      1  0.5291520000000  0.4086750000000  0.4415450000000 1.0
C      1  0.5290580000000  0.5960780000000  0.4498900000000 1.0
C      1  0.5282910000000  0.4945630000000  0.6072440000000 1.0
C      1  0.5138420000000  0.4325830000000  0.5278930000000 1.0
C      1  0.5138510000000  0.5092070000000  0.4273240000000 1.0
C      1  0.5138580000000  0.5583410000000  0.5439830000000 1.0
C      1  0.4827230000000  0.4335310000000  0.5275020000000 1.0
C      1  0.4826630000000  0.5089340000000  0.4283580000000 1.0
C      1  0.4826250000000  0.5576130000000  0.5432730000000 1.0
C      1  0.5664410000000  0.4267890000000  0.5574710000000 1.0
C      1  0.5669970000000  0.4866020000000  0.4077610000000 1.0
C      1  0.5667850000000  0.5863820000000  0.5343690000000 1.0
C      1  0.4330520000000  0.4279610000000  0.5576610000000 1.0
C      1  0.4327330000000  0.4859820000000  0.4090430000000 1.0
C      1  0.4326950000000  0.5853620000000  0.5332650000000 1.0
C      1  0.5147370000000  0.5724130000000  0.5860030000000 1.0
C      1  0.5147360000000  0.3891110000000  0.5194360000000 1.0
C      1  0.5148550000000  0.5383870000000  0.3939840000000 1.0
C      1  0.4844370000000  0.5717780000000  0.5852600000000 1.0
C      1  0.4843920000000  0.3900090000000  0.5190860000000 1.0
C      1  0.4845350000000  0.5380500000000  0.3949630000000 1.0
C      1  0.4439890000000  0.4441400000000  0.5786070000000 1.0
C      1  0.4436080000000  0.4598000000000  0.4124490000000 1.0
C      1  0.4435220000000  0.5955210000000  0.5088630000000 1.0
C      1  0.5557210000000  0.4419490000000  0.5791890000000 1.0
C      1  0.5563760000000  0.4601620000000  0.4099930000000 1.0
C      1  0.5562240000000  0.5977270000000  0.5103440000000 1.0
C      1  0.4748080000000  0.5136410000000  0.5197570000000 1.0
C      1  0.4749180000000  0.4760130000000  0.5023980000000 1.0
C      1  0.4747530000000  0.5098810000000  0.4780270000000 1.0
C      1  0.5260990000000  0.5157260000000  0.5212670000000 1.0
C      1  0.5262560000000  0.4735240000000  0.5024000000000 1.0
C      1  0.5262260000000  0.5108640000000  0.4755320000000 1.0
C      1  0.4716270000000  0.4004490000000  0.5437360000000 1.0
C      1  0.4721290000000  0.5113660000000  0.3913740000000 1.0
C      1  0.4720520000000  0.5883320000000  0.5640100000000 1.0
C      1  0.5265150000000  0.4002700000000  0.5443210000000 1.0
C      1  0.5267610000000  0.5112970000000  0.3912550000000 1.0
C      1  0.5266430000000  0.5884770000000  0.5640000000000 1.0
C      1  0.4711640000000  0.4330120000000  0.5836700000000 1.0
C      1  0.4705850000000  0.4608070000000  0.4000900000000 1.0
C      1  0.4704820000000  0.6058250000000  0.5158050000000 1.0
C      1  0.5285120000000  0.4312080000000  0.5851820000000 1.0
C      1  0.5287480000000  0.4608780000000  0.3989460000000 1.0
C      1  0.5285940000000  0.6069380000000  0.5164300000000 1.0
C      1  0.5154750000000  0.6200650000000  0.4940090000000 1.0
C      1  0.5141570000000  0.4458930000000  0.6059680000000 1.0
C      1  0.5156430000000  0.4348920000000  0.3987710000000 1.0
C      1  0.4834800000000  0.6193610000000  0.4936300000000 1.0
C      1  0.4855070000000  0.4403150000000  0.6071180000000 1.0
C      1  0.4836530000000  0.4348610000000  0.3994660000000 1.0
C      1  0.5119660000000  0.5000070000000  0.4998040000000 1.0
END
