TITL C-3578202-4305-766 -2.25822341520292e-06 125000 -298.398125480181 0 0 49 (C1) n - 1
REM
REM in /home/bkarasulu/work/CARBON/AIRSS/Generating-Clusters/EDIP-Nigel-Params/with-SteepDescent/Higher-Symm/SD-CG/HFTN-CG
REM
REM
REM
REM
REM
REM ./C.cell (12c818d87b63d06a65506943cc24bca4)
REM
REM compiler GCC version 9.2.1 20190827 (Red Hat 9.2.1-1)
REM options -cpp -mtune=generic -march=x86-64 -g -O0 -fpre-include=/usr/include/finclude/math-vector-fortran.h
REM seed -647412087 -1854620614 1104507078 629955632 1353797581 705802066 597609738 -473712873 -947625637 1149043888 -345172006 733489411 1434544055 1765336287 -866593586 -1436106767 1023682823 1442664131 1585481713 -1201790899 -451687835 862168573 966155765 -1205366052 -1412130854 1312090664 1657120655 1780694526 1153492225 -1740429890 -488769421 -786556252 751702692
REM
CELL 1.54180   50.00000   50.00000   50.00000   90.00000   90.00000   90.00000
LATT -1
SFAC C  
C      1  0.4903490000000  0.4852180000000  0.5571370000000 1.0
C      1  0.4617170000000  0.5433250000000  0.5310050000000 1.0
C      1  0.4893140000000  0.5441970000000  0.4631760000000 1.0
C      1  0.4644040000000  0.4886310000000  0.4419680000000 1.0
C      1  0.4750650000000  0.4418490000000  0.4988800000000 1.0
C      1  0.5377920000000  0.4882960000000  0.5488660000000 1.0
C      1  0.5107120000000  0.5506070000000  0.5320680000000 1.0
C      1  0.5374400000000  0.5409790000000  0.4722170000000 1.0
C      1  0.5132830000000  0.4768150000000  0.4494930000000 1.0
C      1  0.5228340000000  0.4426630000000  0.5060990000000 1.0
C      1  0.4455380000000  0.5222260000000  0.4751430000000 1.0
C      1  0.4231630000000  0.4843320000000  0.4690680000000 1.0
C      1  0.4415990000000  0.4756790000000  0.5060790000000 1.0
C      1  0.4467240000000  0.4967820000000  0.5426770000000 1.0
C      1  0.4294490000000  0.5178750000000  0.5006870000000 1.0
C      1  0.5810590000000  0.5232560000000  0.4770630000000 1.0
C      1  0.5571830000000  0.4794090000000  0.4770460000000 1.0
C      1  0.5636570000000  0.4561600000000  0.5213620000000 1.0
C      1  0.5729560000000  0.5026340000000  0.5189930000000 1.0
C      1  0.5591200000000  0.5383890000000  0.5177790000000 1.0
C      1  0.5391590000000  0.4910960000000  0.4563140000000 1.0
C      1  0.5497900000000  0.4495890000000  0.4981340000000 1.0
C      1  0.5636080000000  0.4805450000000  0.5355030000000 1.0
C      1  0.5356960000000  0.5348560000000  0.5351070000000 1.0
C      1  0.5623760000000  0.5414500000000  0.4885910000000 1.0
C      1  0.4417870000000  0.5010380000000  0.4552000000000 1.0
C      1  0.4544410000000  0.4576480000000  0.4852060000000 1.0
C      1  0.4655360000000  0.4751430000000  0.5432890000000 1.0
C      1  0.4396350000000  0.5219850000000  0.5301360000000 1.0
C      1  0.4612470000000  0.5469920000000  0.4714070000000 1.0
C      1  0.5235760000000  0.5074330000000  0.5298880000000 1.0
C      1  0.5032040000000  0.5413230000000  0.5054290000000 1.0
C      1  0.5253470000000  0.5125140000000  0.4733900000000 1.0
C      1  0.5034170000000  0.4719330000000  0.4783800000000 1.0
C      1  0.5108910000000  0.4652450000000  0.5221480000000 1.0
C      1  0.4935150000000  0.5084050000000  0.5366390000000 1.0
C      1  0.4748540000000  0.5344920000000  0.5047170000000 1.0
C      1  0.4977630000000  0.5160780000000  0.4633200000000 1.0
C      1  0.4740350000000  0.4820290000000  0.4790390000000 1.0
C      1  0.4814260000000  0.4642810000000  0.5191050000000 1.0
C      1  0.5157690000000  0.4686760000000  0.5520130000000 1.0
C      1  0.4872250000000  0.5370190000000  0.5468660000000 1.0
C      1  0.4919990000000  0.4973900000000  0.4417600000000 1.0
C      1  0.5120590000000  0.5550530000000  0.4811630000000 1.0
C      1  0.5019430000000  0.4420040000000  0.4852400000000 1.0
C      1  0.4705240000000  0.5019410000000  0.5059130000000 1.0
C      1  0.5241030000000  0.4948480000000  0.5005420000000 1.0
C      1  0.5754790000000  0.4989020000000  0.4903290000000 1.0
C      1  0.4186780000000  0.4905690000000  0.4963460000000 1.0
END
