TITL C-3577083-591-631 -2.27982067663038e-06 125000 -610.973824691987 0 0 95 (C1) n - 1
REM
REM in /home/bkarasulu/work/CARBON/AIRSS/Generating-Clusters/EDIP-Nigel-Params/with-SteepDescent/Higher-Symm/SD-CG/HFTN-CG
REM
REM
REM
REM
REM
REM ./C.cell (12c818d87b63d06a65506943cc24bca4)
REM
REM compiler GCC version 9.2.1 20190827 (Red Hat 9.2.1-1)
REM options -cpp -mtune=generic -march=x86-64 -g -O0 -fpre-include=/usr/include/finclude/math-vector-fortran.h
REM seed 1902436160 -362672717 432156251 340829658 -1994249795 582292708 -1930310961 -1296319610 -1722863110 638189558 -1391071836 2031843107 1779548275 515938907 -821036724 1961983136 -444876977 -410369166 300584306 -490638599 -643935243 845127026 1838277937 -871162608 671218025 -1298775823 -2021978424 -426623245 -947813838 -456803167 489421837 895553824 -1988206523
REM
CELL 1.54180   50.00000   50.00000   50.00000   90.00000   90.00000   90.00000
LATT -1
SFAC C  
C      1  0.5301760000000  0.5583160000000  0.5555300000000 1.0
C      1  0.5694140000000  0.5451010000000  0.4898550000000 1.0
C      1  0.5185250000000  0.5441740000000  0.4312180000000 1.0
C      1  0.4477900000000  0.5568930000000  0.4606570000000 1.0
C      1  0.4549860000000  0.5655980000000  0.5375120000000 1.0
C      1  0.5729620000000  0.4975360000000  0.4487860000000 1.0
C      1  0.4720010000000  0.5058380000000  0.4131380000000 1.0
C      1  0.4084080000000  0.5245290000000  0.4976110000000 1.0
C      1  0.4700460000000  0.5276840000000  0.5854670000000 1.0
C      1  0.5717000000000  0.5110100000000  0.5552960000000 1.0
C      1  0.5023020000000  0.5736640000000  0.4674500000000 1.0
C      1  0.4821170000000  0.5789180000000  0.4886230000000 1.0
C      1  0.4963150000000  0.5803850000000  0.5146930000000 1.0
C      1  0.5252740000000  0.5760440000000  0.5096240000000 1.0
C      1  0.5289680000000  0.5718850000000  0.4804330000000 1.0
C      1  0.4377060000000  0.4849250000000  0.5748120000000 1.0
C      1  0.5428790000000  0.4724310000000  0.5811400000000 1.0
C      1  0.5798300000000  0.4555610000000  0.4829350000000 1.0
C      1  0.4973110000000  0.4575030000000  0.4161780000000 1.0
C      1  0.4094960000000  0.4758400000000  0.4729190000000 1.0
C      1  0.5124840000000  0.5282630000000  0.4091050000000 1.0
C      1  0.4221600000000  0.5460150000000  0.4587780000000 1.0
C      1  0.4428430000000  0.5560970000000  0.5607760000000 1.0
C      1  0.5459280000000  0.5447440000000  0.5741440000000 1.0
C      1  0.5889810000000  0.5276070000000  0.4803950000000 1.0
C      1  0.4605990000000  0.5575380000000  0.4877670000000 1.0
C      1  0.4843080000000  0.5603260000000  0.5340510000000 1.0
C      1  0.5352740000000  0.5528750000000  0.5264820000000 1.0
C      1  0.5430670000000  0.5454580000000  0.4755480000000 1.0
C      1  0.4969310000000  0.5483410000000  0.4516060000000 1.0
C      1  0.5113510000000  0.5043210000000  0.5653770000000 1.0
C      1  0.5615660000000  0.4908620000000  0.5089460000000 1.0
C      1  0.5227490000000  0.4874560000000  0.4428900000000 1.0
C      1  0.4484140000000  0.4989280000000  0.4584130000000 1.0
C      1  0.4414110000000  0.5092760000000  0.5341530000000 1.0
C      1  0.4414390000000  0.5572450000000  0.5126750000000 1.0
C      1  0.5011670000000  0.5556120000000  0.5601410000000 1.0
C      1  0.5638530000000  0.5424480000000  0.5187010000000 1.0
C      1  0.5429030000000  0.5359130000000  0.4456240000000 1.0
C      1  0.4672380000000  0.5450840000000  0.4418760000000 1.0
C      1  0.5090380000000  0.4346790000000  0.5259010000000 1.0
C      1  0.5103340000000  0.4290940000000  0.4961580000000 1.0
C      1  0.4823720000000  0.4331550000000  0.4853060000000 1.0
C      1  0.4643850000000  0.4385570000000  0.5081220000000 1.0
C      1  0.4807090000000  0.4395510000000  0.5330240000000 1.0
C      1  0.4081320000000  0.5245140000000  0.4697190000000 1.0
C      1  0.4441320000000  0.5332860000000  0.5768040000000 1.0
C      1  0.5565580000000  0.5191300000000  0.5772650000000 1.0
C      1  0.5900740000000  0.5015680000000  0.4704380000000 1.0
C      1  0.4983320000000  0.5047600000000  0.4040030000000 1.0
C      1  0.4700770000000  0.4842610000000  0.4980240000000 1.0
C      1  0.4820140000000  0.4862080000000  0.5258300000000 1.0
C      1  0.5119380000000  0.4819560000000  0.5234960000000 1.0
C      1  0.5184290000000  0.4772880000000  0.4942430000000 1.0
C      1  0.4925970000000  0.4787860000000  0.4785430000000 1.0
C      1  0.5172160000000  0.5294500000000  0.5186860000000 1.0
C      1  0.5253230000000  0.5246970000000  0.4893450000000 1.0
C      1  0.4998190000000  0.5258100000000  0.4720970000000 1.0
C      1  0.4759210000000  0.5312430000000  0.4907870000000 1.0
C      1  0.4866770000000  0.5334850000000  0.5195900000000 1.0
C      1  0.5021410000000  0.4476890000000  0.4422350000000 1.0
C      1  0.4331560000000  0.4607650000000  0.4763010000000 1.0
C      1  0.4453950000000  0.4687390000000  0.5529620000000 1.0
C      1  0.5218230000000  0.4607150000000  0.5663800000000 1.0
C      1  0.5570420000000  0.4477690000000  0.4976980000000 1.0
C      1  0.5354260000000  0.4995520000000  0.5829740000000 1.0
C      1  0.5846400000000  0.4819470000000  0.4915890000000 1.0
C      1  0.5121890000000  0.4814270000000  0.4152370000000 1.0
C      1  0.4182250000000  0.4989560000000  0.4593580000000 1.0
C      1  0.4326300000000  0.5100270000000  0.5630340000000 1.0
C      1  0.5298770000000  0.4508520000000  0.4845120000000 1.0
C      1  0.4819200000000  0.4545180000000  0.4638660000000 1.0
C      1  0.4482370000000  0.4637420000000  0.5025210000000 1.0
C      1  0.4751220000000  0.4659060000000  0.5472650000000 1.0
C      1  0.5254450000000  0.4579750000000  0.5363260000000 1.0
C      1  0.5191750000000  0.3899120000000  0.4650540000000 1.0
C      1  0.5370480000000  0.3690150000000  0.4659170000000 1.0
C      1  0.5490270000000  0.3681310000000  0.4905350000000 1.0
C      1  0.5392670000000  0.3884310000000  0.5063360000000 1.0
C      1  0.5200730000000  0.4015420000000  0.4905830000000 1.0
C      1  0.4540730000000  0.4665680000000  0.4558260000000 1.0
C      1  0.4343370000000  0.4779570000000  0.5268210000000 1.0
C      1  0.4959640000000  0.4754400000000  0.5687120000000 1.0
C      1  0.5538740000000  0.4623340000000  0.5235850000000 1.0
C      1  0.5280900000000  0.4568250000000  0.4538240000000 1.0
C      1  0.4989300000000  0.4992710000000  0.4589180000000 1.0
C      1  0.4580190000000  0.5080410000000  0.4864940000000 1.0
C      1  0.4723140000000  0.5122210000000  0.5343910000000 1.0
C      1  0.5220060000000  0.5060690000000  0.5362660000000 1.0
C      1  0.5383270000000  0.4980480000000  0.4896660000000 1.0
C      1  0.4959080000000  0.5299810000000  0.5749660000000 1.0
C      1  0.5706780000000  0.5145330000000  0.5275320000000 1.0
C      1  0.5476410000000  0.5065880000000  0.4409760000000 1.0
C      1  0.4584910000000  0.5171780000000  0.4348880000000 1.0
C      1  0.4265410000000  0.5316160000000  0.5177440000000 1.0
END
