TITL C-3578205-846-78 -8.91172026876484e-07 125000 -1178.03718194709 0 0 188 (C1) n - 1
REM
REM in /home/bkarasulu/work/CARBON/AIRSS/Generating-Clusters/EDIP-Nigel-Params/with-SteepDescent/Higher-Symm/SD-CG/HFTN-CG
REM
REM
REM
REM
REM
REM ./C.cell (12c818d87b63d06a65506943cc24bca4)
REM
REM compiler GCC version 9.2.1 20190827 (Red Hat 9.2.1-1)
REM options -cpp -mtune=generic -march=x86-64 -g -O0 -fpre-include=/usr/include/finclude/math-vector-fortran.h
REM seed -92809088 848077821 1388558890 521963861 2102490449 955651348 -2065679349 149434699 37305900 258827576 2016919792 -1638649806 158100384 153483070 -2079236675 -1725133122 1624443993 411819615 1553569646 -1146613451 -362927698 -1906879162 1596870778 -1566825244 -20157732 -522905182 -22745903 1273077390 -1169434708 561315266 505413526 492106047 709133795
REM
CELL 1.54180   50.00000   50.00000   50.00000   90.00000   90.00000   90.00000
LATT -1
SFAC C  
C      1  0.5076990000000  0.4049490000000  0.5529510000000 1.0
C      1  0.5397270000000  0.5402030000000  0.4009060000000 1.0
C      1  0.5767330000000  0.5607950000000  0.4502220000000 1.0
C      1  0.4325460000000  0.5551160000000  0.4768480000000 1.0
C      1  0.5585550000000  0.5126130000000  0.5256660000000 1.0
C      1  0.5518870000000  0.4012080000000  0.4898480000000 1.0
C      1  0.5881300000000  0.5154720000000  0.4324810000000 1.0
C      1  0.5422510000000  0.5546690000000  0.5453390000000 1.0
C      1  0.5226420000000  0.5086880000000  0.4355430000000 1.0
C      1  0.4063970000000  0.4440810000000  0.4451210000000 1.0
C      1  0.5255290000000  0.5390960000000  0.5767800000000 1.0
C      1  0.4406340000000  0.5539700000000  0.4160380000000 1.0
C      1  0.4529500000000  0.5044060000000  0.5724690000000 1.0
C      1  0.4262610000000  0.5800350000000  0.5443300000000 1.0
C      1  0.5976940000000  0.5585010000000  0.5230360000000 1.0
C      1  0.3747540000000  0.4960980000000  0.5107140000000 1.0
C      1  0.4977730000000  0.4764350000000  0.5281560000000 1.0
C      1  0.4850730000000  0.6005630000000  0.5127300000000 1.0
C      1  0.5029000000000  0.5897830000000  0.4072460000000 1.0
C      1  0.3823070000000  0.5063870000000  0.5360080000000 1.0
C      1  0.3986960000000  0.4308800000000  0.4921430000000 1.0
C      1  0.5292410000000  0.4461270000000  0.4559770000000 1.0
C      1  0.4363720000000  0.5258390000000  0.5211800000000 1.0
C      1  0.4021640000000  0.5086400000000  0.4339860000000 1.0
C      1  0.5535290000000  0.6000650000000  0.5468130000000 1.0
C      1  0.4332410000000  0.4559130000000  0.5670050000000 1.0
C      1  0.5561340000000  0.4426190000000  0.4221140000000 1.0
C      1  0.5049920000000  0.6008510000000  0.5340010000000 1.0
C      1  0.5881860000000  0.4440840000000  0.4615410000000 1.0
C      1  0.4959070000000  0.4512160000000  0.4190080000000 1.0
C      1  0.3964180000000  0.5271030000000  0.4776890000000 1.0
C      1  0.6011600000000  0.4618420000000  0.5552120000000 1.0
C      1  0.5600800000000  0.4575340000000  0.5847880000000 1.0
C      1  0.5662560000000  0.5322680000000  0.4447760000000 1.0
C      1  0.5021660000000  0.4561320000000  0.4486710000000 1.0
C      1  0.3892650000000  0.5340310000000  0.5339220000000 1.0
C      1  0.4514500000000  0.4387360000000  0.4902710000000 1.0
C      1  0.5502600000000  0.4244060000000  0.5110560000000 1.0
C      1  0.5462380000000  0.5783630000000  0.5654950000000 1.0
C      1  0.4690290000000  0.3868130000000  0.5265260000000 1.0
C      1  0.4720400000000  0.5778330000000  0.5641150000000 1.0
C      1  0.4875180000000  0.5207510000000  0.6112330000000 1.0
C      1  0.4509790000000  0.4617440000000  0.4184270000000 1.0
C      1  0.5618920000000  0.4314380000000  0.5412040000000 1.0
C      1  0.5422150000000  0.4700340000000  0.6025630000000 1.0
C      1  0.5569430000000  0.4658980000000  0.4839470000000 1.0
C      1  0.4904560000000  0.4341760000000  0.4637110000000 1.0
C      1  0.5240870000000  0.5139780000000  0.4984440000000 1.0
C      1  0.5371910000000  0.6046100000000  0.4966800000000 1.0
C      1  0.4224690000000  0.4998010000000  0.5182430000000 1.0
C      1  0.5134590000000  0.6108860000000  0.4801810000000 1.0
C      1  0.5008120000000  0.5444640000000  0.4199030000000 1.0
C      1  0.5822270000000  0.4754220000000  0.5730450000000 1.0
C      1  0.4734170000000  0.4632630000000  0.5890800000000 1.0
C      1  0.4401640000000  0.4773300000000  0.5147180000000 1.0
C      1  0.5330080000000  0.6036720000000  0.5257730000000 1.0
C      1  0.4671880000000  0.4255550000000  0.4471520000000 1.0
C      1  0.5359030000000  0.3767520000000  0.4956890000000 1.0
C      1  0.4723400000000  0.5256610000000  0.5590780000000 1.0
C      1  0.4664710000000  0.5261660000000  0.5283280000000 1.0
C      1  0.5571060000000  0.5173190000000  0.4698220000000 1.0
C      1  0.4407090000000  0.3956350000000  0.5212990000000 1.0
C      1  0.3990330000000  0.5009840000000  0.4949800000000 1.0
C      1  0.4816040000000  0.5001870000000  0.5129760000000 1.0
C      1  0.5212770000000  0.4877170000000  0.5978120000000 1.0
C      1  0.5487530000000  0.4700230000000  0.4561340000000 1.0
C      1  0.6118060000000  0.5353300000000  0.4711330000000 1.0
C      1  0.4294740000000  0.4171200000000  0.5391060000000 1.0
C      1  0.4376270000000  0.3968500000000  0.4918000000000 1.0
C      1  0.4135760000000  0.5362280000000  0.5691030000000 1.0
C      1  0.5618250000000  0.5933220000000  0.4838510000000 1.0
C      1  0.5293490000000  0.5774560000000  0.4483260000000 1.0
C      1  0.4466360000000  0.4418730000000  0.4617570000000 1.0
C      1  0.4787410000000  0.5363030000000  0.4849360000000 1.0
C      1  0.4678370000000  0.5558330000000  0.5815910000000 1.0
C      1  0.5881900000000  0.5049050000000  0.5701450000000 1.0
C      1  0.4062520000000  0.4801360000000  0.4747270000000 1.0
C      1  0.4732660000000  0.4625950000000  0.5403990000000 1.0
C      1  0.5710740000000  0.4407480000000  0.4933840000000 1.0
C      1  0.4809930000000  0.4409680000000  0.4916320000000 1.0
C      1  0.4108440000000  0.4622650000000  0.5487970000000 1.0
C      1  0.6011970000000  0.4880680000000  0.4863770000000 1.0
C      1  0.4989300000000  0.4208740000000  0.5052100000000 1.0
C      1  0.5189040000000  0.4765860000000  0.5499170000000 1.0
C      1  0.4905840000000  0.4817970000000  0.4620980000000 1.0
C      1  0.4192110000000  0.4906170000000  0.4492590000000 1.0
C      1  0.4802990000000  0.5746980000000  0.3940480000000 1.0
C      1  0.4991130000000  0.5842800000000  0.5571660000000 1.0
C      1  0.4798030000000  0.3756320000000  0.5008680000000 1.0
C      1  0.4855550000000  0.5441170000000  0.3926160000000 1.0
C      1  0.4279320000000  0.4539490000000  0.5022210000000 1.0
C      1  0.5489900000000  0.4321670000000  0.5693770000000 1.0
C      1  0.4240510000000  0.4658080000000  0.4327750000000 1.0
C      1  0.5085410000000  0.3669880000000  0.4995530000000 1.0
C      1  0.5366160000000  0.4972630000000  0.4603100000000 1.0
C      1  0.5579490000000  0.5294360000000  0.5498900000000 1.0
C      1  0.5095850000000  0.4004790000000  0.4803690000000 1.0
C      1  0.5391080000000  0.4810860000000  0.5016730000000 1.0
C      1  0.4887760000000  0.6180860000000  0.4911220000000 1.0
C      1  0.5178370000000  0.5263670000000  0.5344570000000 1.0
C      1  0.5143110000000  0.5592990000000  0.5960680000000 1.0
C      1  0.4922550000000  0.6036860000000  0.4320340000000 1.0
C      1  0.6036270000000  0.5176790000000  0.4933980000000 1.0
C      1  0.5579750000000  0.5538600000000  0.5038160000000 1.0
C      1  0.4035960000000  0.5320430000000  0.4489020000000 1.0
C      1  0.4703740000000  0.4336490000000  0.5442780000000 1.0
C      1  0.4569520000000  0.5781830000000  0.4130130000000 1.0
C      1  0.5476300000000  0.4135810000000  0.4628060000000 1.0
C      1  0.6061800000000  0.5099470000000  0.5461660000000 1.0
C      1  0.6115520000000  0.4826380000000  0.5358570000000 1.0
C      1  0.4526350000000  0.5073980000000  0.4033840000000 1.0
C      1  0.5929200000000  0.4758210000000  0.5130550000000 1.0
C      1  0.4865640000000  0.5503750000000  0.6027220000000 1.0
C      1  0.4467380000000  0.4284360000000  0.5621770000000 1.0
C      1  0.4673210000000  0.4841090000000  0.4098420000000 1.0
C      1  0.4897610000000  0.5540890000000  0.4656520000000 1.0
C      1  0.5168230000000  0.5113890000000  0.6131130000000 1.0
C      1  0.5194370000000  0.4264470000000  0.5686350000000 1.0
C      1  0.4672410000000  0.5179130000000  0.4379030000000 1.0
C      1  0.5579640000000  0.5827720000000  0.4559120000000 1.0
C      1  0.5661330000000  0.5257880000000  0.4997260000000 1.0
C      1  0.5041400000000  0.5207910000000  0.5620490000000 1.0
C      1  0.4936060000000  0.5055440000000  0.4447050000000 1.0
C      1  0.5478540000000  0.4671980000000  0.5477580000000 1.0
C      1  0.5213810000000  0.5689170000000  0.4189320000000 1.0
C      1  0.4727180000000  0.4336340000000  0.5885440000000 1.0
C      1  0.4226700000000  0.5532140000000  0.4405140000000 1.0
C      1  0.5561480000000  0.4738540000000  0.4187320000000 1.0
C      1  0.4545440000000  0.5762200000000  0.5417650000000 1.0
C      1  0.4138500000000  0.4087120000000  0.4781430000000 1.0
C      1  0.4689760000000  0.5868420000000  0.4376620000000 1.0
C      1  0.3959890000000  0.4531930000000  0.4718680000000 1.0
C      1  0.4128610000000  0.5457900000000  0.5205500000000 1.0
C      1  0.4962100000000  0.5101730000000  0.4883460000000 1.0
C      1  0.4689520000000  0.4383650000000  0.4201170000000 1.0
C      1  0.5821790000000  0.4861600000000  0.4332020000000 1.0
C      1  0.5283830000000  0.5487180000000  0.4951630000000 1.0
C      1  0.4186290000000  0.5830530000000  0.5166480000000 1.0
C      1  0.4572540000000  0.5349500000000  0.3992410000000 1.0
C      1  0.4607880000000  0.5064230000000  0.6018220000000 1.0
C      1  0.5419070000000  0.5313810000000  0.4283660000000 1.0
C      1  0.5177890000000  0.5575380000000  0.4678700000000 1.0
C      1  0.5157340000000  0.4635650000000  0.5076630000000 1.0
C      1  0.4230890000000  0.5098640000000  0.5666340000000 1.0
C      1  0.4476710000000  0.5052070000000  0.4593220000000 1.0
C      1  0.5778070000000  0.5576490000000  0.5704740000000 1.0
C      1  0.4500130000000  0.5297290000000  0.4792160000000 1.0
C      1  0.4069880000000  0.5494220000000  0.4909600000000 1.0
C      1  0.4127640000000  0.4395870000000  0.5267690000000 1.0
C      1  0.6118450000000  0.5227510000000  0.4458370000000 1.0
C      1  0.4978870000000  0.4193020000000  0.5871220000000 1.0
C      1  0.5606980000000  0.4834400000000  0.5243620000000 1.0
C      1  0.4652780000000  0.5774850000000  0.5143050000000 1.0
C      1  0.4774460000000  0.5500220000000  0.4395760000000 1.0
C      1  0.5909390000000  0.4381330000000  0.5392830000000 1.0
C      1  0.5086450000000  0.5502640000000  0.5185140000000 1.0
C      1  0.4961370000000  0.4769860000000  0.4047770000000 1.0
C      1  0.5966310000000  0.5607650000000  0.4717230000000 1.0
C      1  0.5234690000000  0.4924670000000  0.4085120000000 1.0
C      1  0.4798470000000  0.5493980000000  0.5121460000000 1.0
C      1  0.5122210000000  0.4937710000000  0.5708650000000 1.0
C      1  0.5751310000000  0.5284870000000  0.5849450000000 1.0
C      1  0.5187510000000  0.5827120000000  0.5782420000000 1.0
C      1  0.5148210000000  0.6030630000000  0.4519980000000 1.0
C      1  0.5324980000000  0.4269370000000  0.4185630000000 1.0
C      1  0.5174110000000  0.5215400000000  0.3931900000000 1.0
C      1  0.4611410000000  0.3841880000000  0.4783100000000 1.0
C      1  0.5938830000000  0.4466380000000  0.5112990000000 1.0
C      1  0.4088110000000  0.4934940000000  0.5447850000000 1.0
C      1  0.4600630000000  0.4866150000000  0.4979510000000 1.0
C      1  0.5224380000000  0.4360960000000  0.5120130000000 1.0
C      1  0.6037460000000  0.5291750000000  0.5222870000000 1.0
C      1  0.4721690000000  0.3951910000000  0.4519480000000 1.0
C      1  0.5157900000000  0.4098460000000  0.4325250000000 1.0
C      1  0.5460850000000  0.5238390000000  0.5919900000000 1.0
C      1  0.5019830000000  0.3937770000000  0.4514870000000 1.0
C      1  0.4125110000000  0.5621990000000  0.5610070000000 1.0
C      1  0.5926390000000  0.4736600000000  0.4592100000000 1.0
C      1  0.5810200000000  0.5979230000000  0.5416590000000 1.0
C      1  0.4232850000000  0.4212350000000  0.4528880000000 1.0
C      1  0.4866210000000  0.4108820000000  0.5326120000000 1.0
C      1  0.4402630000000  0.5786330000000  0.4965250000000 1.0
C      1  0.4740310000000  0.4830350000000  0.6104950000000 1.0
C      1  0.5681970000000  0.4288240000000  0.4461980000000 1.0
C      1  0.5921070000000  0.5726080000000  0.5479860000000 1.0
C      1  0.4581990000000  0.4734660000000  0.5655950000000 1.0
C      1  0.5823350000000  0.5714480000000  0.4971340000000 1.0
C      1  0.4611910000000  0.4768420000000  0.4695020000000 1.0
END
