TITL C-3577082-504-8 -2.55602141715331e-06 125000 -605.675541438335 0 0 99 (C1) n - 1
REM
REM in /home/bkarasulu/work/CARBON/AIRSS/Generating-Clusters/EDIP-Nigel-Params/with-SteepDescent/Higher-Symm/SD-CG/HFTN-CG
REM
REM
REM
REM
REM
REM ./C.cell (12c818d87b63d06a65506943cc24bca4)
REM
REM compiler GCC version 9.2.1 20190827 (Red Hat 9.2.1-1)
REM options -cpp -mtune=generic -march=x86-64 -g -O0 -fpre-include=/usr/include/finclude/math-vector-fortran.h
REM seed -1692325530 805908856 1396375428 -1192102989 529778242 61989109 1567551548 -1701147256 1348969338 920897905 -590163942 952132382 -1498083472 -696789066 -999466046 1588894746 -16208045 -780603003 329664011 -1535331937 1819660328 1960548193 -1898916368 -422708091 1467973858 1481638916 -1233895868 1615200150 1623992528 1866133943 1811436056 752459928 944287092
REM
CELL 1.54180   50.00000   50.00000   50.00000   90.00000   90.00000   90.00000
LATT -1
SFAC C  
C      1  0.4778350000000  0.5827460000000  0.5424500000000 1.0
C      1  0.4767970000000  0.5793860000000  0.4707300000000 1.0
C      1  0.5494200000000  0.5777010000000  0.4905690000000 1.0
C      1  0.4818510000000  0.4244810000000  0.5471320000000 1.0
C      1  0.4768100000000  0.4214470000000  0.4626150000000 1.0
C      1  0.5461140000000  0.4161780000000  0.4885940000000 1.0
C      1  0.4343460000000  0.5550620000000  0.4556140000000 1.0
C      1  0.5670780000000  0.5483300000000  0.4582020000000 1.0
C      1  0.5009980000000  0.5572440000000  0.5736490000000 1.0
C      1  0.4351090000000  0.4419480000000  0.4555170000000 1.0
C      1  0.5721650000000  0.4475960000000  0.4710690000000 1.0
C      1  0.5074330000000  0.4549590000000  0.5748320000000 1.0
C      1  0.4994450000000  0.4607140000000  0.4798570000000 1.0
C      1  0.5194510000000  0.4414630000000  0.5168330000000 1.0
C      1  0.4866000000000  0.4537760000000  0.5090990000000 1.0
C      1  0.4944510000000  0.5428500000000  0.4935790000000 1.0
C      1  0.5137830000000  0.5370540000000  0.5178520000000 1.0
C      1  0.4707680000000  0.5502060000000  0.5087030000000 1.0
C      1  0.4718960000000  0.5537160000000  0.4529040000000 1.0
C      1  0.5579250000000  0.5493990000000  0.4985580000000 1.0
C      1  0.4672710000000  0.5567400000000  0.5551060000000 1.0
C      1  0.4717300000000  0.4456560000000  0.4424070000000 1.0
C      1  0.5600990000000  0.4416480000000  0.4975510000000 1.0
C      1  0.4711000000000  0.4520670000000  0.5534500000000 1.0
C      1  0.5262100000000  0.5084120000000  0.4816230000000 1.0
C      1  0.4976030000000  0.5205390000000  0.5395910000000 1.0
C      1  0.4503620000000  0.5117670000000  0.4729480000000 1.0
C      1  0.5250590000000  0.4779240000000  0.4827980000000 1.0
C      1  0.4995020000000  0.4901750000000  0.5398070000000 1.0
C      1  0.4550800000000  0.4827860000000  0.4678690000000 1.0
C      1  0.4821000000000  0.4781590000000  0.4139620000000 1.0
C      1  0.5887340000000  0.4705340000000  0.5190540000000 1.0
C      1  0.4423050000000  0.4768990000000  0.5674660000000 1.0
C      1  0.4773300000000  0.5288730000000  0.4158070000000 1.0
C      1  0.5884180000000  0.5261540000000  0.5201140000000 1.0
C      1  0.4402210000000  0.5247130000000  0.5675580000000 1.0
C      1  0.4986150000000  0.4822270000000  0.5694440000000 1.0
C      1  0.4366230000000  0.4700400000000  0.4492860000000 1.0
C      1  0.5730950000000  0.4756900000000  0.4687600000000 1.0
C      1  0.4971270000000  0.5279810000000  0.5701870000000 1.0
C      1  0.4378400000000  0.5258170000000  0.4493400000000 1.0
C      1  0.5664720000000  0.5215630000000  0.4694600000000 1.0
C      1  0.4972000000000  0.5152410000000  0.4459900000000 1.0
C      1  0.5546600000000  0.5116050000000  0.5252350000000 1.0
C      1  0.4470580000000  0.5164080000000  0.5385480000000 1.0
C      1  0.4972060000000  0.4863220000000  0.4393470000000 1.0
C      1  0.5527790000000  0.4819740000000  0.5266490000000 1.0
C      1  0.4504190000000  0.4872230000000  0.5306370000000 1.0
C      1  0.5219910000000  0.5649430000000  0.4576920000000 1.0
C      1  0.5240680000000  0.5638290000000  0.5293280000000 1.0
C      1  0.4344220000000  0.5757240000000  0.5093430000000 1.0
C      1  0.5229500000000  0.4266160000000  0.4483030000000 1.0
C      1  0.5309750000000  0.4291560000000  0.5417610000000 1.0
C      1  0.4506800000000  0.4280870000000  0.5073850000000 1.0
C      1  0.5231510000000  0.5812930000000  0.5033200000000 1.0
C      1  0.4716390000000  0.5790750000000  0.5142490000000 1.0
C      1  0.5043010000000  0.5695290000000  0.4815970000000 1.0
C      1  0.5177790000000  0.4194000000000  0.4960990000000 1.0
C      1  0.4788740000000  0.4239520000000  0.5170180000000 1.0
C      1  0.5044040000000  0.4309840000000  0.4715590000000 1.0
C      1  0.5256180000000  0.4753610000000  0.4387920000000 1.0
C      1  0.5449940000000  0.4746190000000  0.5547810000000 1.0
C      1  0.4337180000000  0.4816060000000  0.5067810000000 1.0
C      1  0.5262610000000  0.5214300000000  0.4534680000000 1.0
C      1  0.5471540000000  0.5234760000000  0.5512750000000 1.0
C      1  0.4278350000000  0.5273130000000  0.5197280000000 1.0
C      1  0.5830870000000  0.4858260000000  0.4943800000000 1.0
C      1  0.4689110000000  0.4880360000000  0.5790580000000 1.0
C      1  0.4540040000000  0.4862950000000  0.4207700000000 1.0
C      1  0.5848790000000  0.5142810000000  0.4930670000000 1.0
C      1  0.4676490000000  0.5174630000000  0.5807270000000 1.0
C      1  0.4519650000000  0.5160820000000  0.4235610000000 1.0
C      1  0.4868200000000  0.5534510000000  0.4268690000000 1.0
C      1  0.5745050000000  0.5521750000000  0.5234860000000 1.0
C      1  0.4361380000000  0.5554570000000  0.5584490000000 1.0
C      1  0.4903700000000  0.4482750000000  0.4172530000000 1.0
C      1  0.5760920000000  0.4444100000000  0.5248520000000 1.0
C      1  0.4407490000000  0.4500700000000  0.5523360000000 1.0
C      1  0.5086620000000  0.4299580000000  0.5609740000000 1.0
C      1  0.4508830000000  0.4284490000000  0.4770930000000 1.0
C      1  0.5488710000000  0.4197870000000  0.4591230000000 1.0
C      1  0.5063910000000  0.5757950000000  0.5512300000000 1.0
C      1  0.4432570000000  0.5706290000000  0.4809960000000 1.0
C      1  0.5497360000000  0.5711980000000  0.4613770000000 1.0
C      1  0.4344210000000  0.4471470000000  0.5234330000000 1.0
C      1  0.5198140000000  0.4476940000000  0.4272880000000 1.0
C      1  0.5555070000000  0.4449420000000  0.5496580000000 1.0
C      1  0.4235720000000  0.5560920000000  0.5292060000000 1.0
C      1  0.5150180000000  0.5527700000000  0.4330590000000 1.0
C      1  0.5509730000000  0.5529300000000  0.5428940000000 1.0
C      1  0.4795440000000  0.5274430000000  0.4688360000000 1.0
C      1  0.5374930000000  0.5250590000000  0.5044030000000 1.0
C      1  0.4706890000000  0.5343900000000  0.5340940000000 1.0
C      1  0.4808230000000  0.4706150000000  0.4588690000000 1.0
C      1  0.5386220000000  0.4633760000000  0.5054310000000 1.0
C      1  0.4777100000000  0.4726700000000  0.5311130000000 1.0
C      1  0.5522850000000  0.4921580000000  0.4511340000000 1.0
C      1  0.5283930000000  0.5058630000000  0.5684110000000 1.0
C      1  0.4288660000000  0.5088570000000  0.4957360000000 1.0
END
