TITL C-3577084-3642-758 -2.55467729824803e-06 125000 -656.207315995581 0 0 105 (C1) n - 1
REM
REM in /home/bkarasulu/work/CARBON/AIRSS/Generating-Clusters/EDIP-Nigel-Params/with-SteepDescent/Higher-Symm/SD-CG/HFTN-CG
REM
REM
REM
REM
REM
REM ./C.cell (12c818d87b63d06a65506943cc24bca4)
REM
REM compiler GCC version 9.2.1 20190827 (Red Hat 9.2.1-1)
REM options -cpp -mtune=generic -march=x86-64 -g -O0 -fpre-include=/usr/include/finclude/math-vector-fortran.h
REM seed -883973940 -1856551448 -385213703 1863085293 661238931 -1997159111 -1095253085 1116441881 -723609073 -312277813 1186428019 -824251809 -78142226 478937421 1589732269 549659926 -1248086265 -1955439234 966316539 -836837160 1314472434 2074702615 1116722685 497610198 -663192310 500392303 -872524018 -1064582989 -1952242033 1456958543 1870007929 2135926913 -1559205665
REM
CELL 1.54180   50.00000   50.00000   50.00000   90.00000   90.00000   90.00000
LATT -1
SFAC C  
C      1  0.5272150000000  0.5870050000000  0.5124050000000 1.0
C      1  0.5325840000000  0.4442190000000  0.5689650000000 1.0
C      1  0.5301220000000  0.4655810000000  0.4185040000000 1.0
C      1  0.4769550000000  0.5734200000000  0.4413080000000 1.0
C      1  0.4796160000000  0.5126160000000  0.5902050000000 1.0
C      1  0.4777450000000  0.4139020000000  0.4682450000000 1.0
C      1  0.4852310000000  0.4444130000000  0.5591660000000 1.0
C      1  0.4831790000000  0.4759830000000  0.4260610000000 1.0
C      1  0.4801160000000  0.5775050000000  0.5163310000000 1.0
C      1  0.5753640000000  0.5281490000000  0.4504650000000 1.0
C      1  0.5739570000000  0.5334020000000  0.5502330000000 1.0
C      1  0.5742040000000  0.4341380000000  0.5031440000000 1.0
C      1  0.5024160000000  0.5177100000000  0.5427160000000 1.0
C      1  0.5016270000000  0.4508880000000  0.4970110000000 1.0
C      1  0.5028270000000  0.5224090000000  0.4614880000000 1.0
C      1  0.4470720000000  0.5335410000000  0.5570940000000 1.0
C      1  0.4509770000000  0.4362440000000  0.5032060000000 1.0
C      1  0.4435510000000  0.5344880000000  0.4392510000000 1.0
C      1  0.5316640000000  0.5093130000000  0.4637850000000 1.0
C      1  0.5297190000000  0.5285130000000  0.5291870000000 1.0
C      1  0.5310640000000  0.4571700000000  0.5108070000000 1.0
C      1  0.4586360000000  0.5154660000000  0.4765930000000 1.0
C      1  0.4612360000000  0.5304460000000  0.5024880000000 1.0
C      1  0.4760570000000  0.4703410000000  0.5154630000000 1.0
C      1  0.5317680000000  0.4781190000000  0.4663730000000 1.0
C      1  0.5268600000000  0.5440170000000  0.5012200000000 1.0
C      1  0.5319120000000  0.4783140000000  0.5334530000000 1.0
C      1  0.4868580000000  0.5579570000000  0.5693370000000 1.0
C      1  0.4875100000000  0.4072910000000  0.5172860000000 1.0
C      1  0.4888700000000  0.5299310000000  0.4201080000000 1.0
C      1  0.5105050000000  0.4351370000000  0.4501390000000 1.0
C      1  0.5105730000000  0.5773570000000  0.4687370000000 1.0
C      1  0.5129130000000  0.4871450000000  0.5799060000000 1.0
C      1  0.4435390000000  0.5682540000000  0.4735830000000 1.0
C      1  0.4540080000000  0.4846870000000  0.5615910000000 1.0
C      1  0.4517300000000  0.4523860000000  0.4580070000000 1.0
C      1  0.5172080000000  0.4588930000000  0.5896720000000 1.0
C      1  0.5136750000000  0.4410880000000  0.4206640000000 1.0
C      1  0.5124850000000  0.5986420000000  0.4897110000000 1.0
C      1  0.5513910000000  0.5732670000000  0.5040500000000 1.0
C      1  0.5543430000000  0.4617050000000  0.5589240000000 1.0
C      1  0.5522650000000  0.4644280000000  0.4379910000000 1.0
C      1  0.4820050000000  0.5156080000000  0.5198820000000 1.0
C      1  0.4902300000000  0.4936890000000  0.5024240000000 1.0
C      1  0.4829160000000  0.5003720000000  0.4734880000000 1.0
C      1  0.5472580000000  0.4718430000000  0.4906940000000 1.0
C      1  0.5455090000000  0.5219640000000  0.4883170000000 1.0
C      1  0.5471700000000  0.5030640000000  0.5223320000000 1.0
C      1  0.4630290000000  0.5581430000000  0.5529800000000 1.0
C      1  0.4637180000000  0.4217300000000  0.5260610000000 1.0
C      1  0.4638230000000  0.5170390000000  0.4253420000000 1.0
C      1  0.4211940000000  0.5488300000000  0.4795530000000 1.0
C      1  0.4339930000000  0.4903020000000  0.5387880000000 1.0
C      1  0.4290020000000  0.4661000000000  0.4719140000000 1.0
C      1  0.5695470000000  0.5066130000000  0.5427840000000 1.0
C      1  0.5691680000000  0.4533660000000  0.4830380000000 1.0
C      1  0.5690060000000  0.5368720000000  0.4764370000000 1.0
C      1  0.4584620000000  0.5799820000000  0.5358330000000 1.0
C      1  0.4626860000000  0.4270270000000  0.5535410000000 1.0
C      1  0.4611670000000  0.4913860000000  0.4146180000000 1.0
C      1  0.4201530000000  0.5274550000000  0.4583380000000 1.0
C      1  0.4285420000000  0.5209740000000  0.5378410000000 1.0
C      1  0.4313900000000  0.4582010000000  0.5003600000000 1.0
C      1  0.4547180000000  0.5118550000000  0.5750510000000 1.0
C      1  0.4539380000000  0.4285070000000  0.4758190000000 1.0
C      1  0.4501030000000  0.5627380000000  0.4454880000000 1.0
C      1  0.4329550000000  0.5032890000000  0.4689710000000 1.0
C      1  0.4329270000000  0.5338410000000  0.5118210000000 1.0
C      1  0.4457360000000  0.4792220000000  0.5137630000000 1.0
C      1  0.5351410000000  0.4227630000000  0.4617680000000 1.0
C      1  0.5369640000000  0.5709280000000  0.4559700000000 1.0
C      1  0.5374570000000  0.5040890000000  0.5823890000000 1.0
C      1  0.4807460000000  0.4719350000000  0.5460190000000 1.0
C      1  0.4792750000000  0.4732940000000  0.4566540000000 1.0
C      1  0.4740300000000  0.5564600000000  0.4942250000000 1.0
C      1  0.4972830000000  0.5517060000000  0.4364570000000 1.0
C      1  0.4973390000000  0.5303450000000  0.5727290000000 1.0
C      1  0.4969280000000  0.4192960000000  0.4917610000000 1.0
C      1  0.5103910000000  0.5716040000000  0.5578880000000 1.0
C      1  0.5122330000000  0.4096770000000  0.5342400000000 1.0
C      1  0.5127120000000  0.5148510000000  0.4138340000000 1.0
C      1  0.4773070000000  0.4787160000000  0.5926290000000 1.0
C      1  0.4745840000000  0.4282580000000  0.4372640000000 1.0
C      1  0.4742960000000  0.5917380000000  0.4682920000000 1.0
C      1  0.5492530000000  0.5459300000000  0.5449690000000 1.0
C      1  0.5501520000000  0.4337700000000  0.5179670000000 1.0
C      1  0.5516210000000  0.5157240000000  0.4415920000000 1.0
C      1  0.5244000000000  0.4083080000000  0.4867160000000 1.0
C      1  0.5336200000000  0.5588010000000  0.4289880000000 1.0
C      1  0.5253010000000  0.5325320000000  0.5837360000000 1.0
C      1  0.5597720000000  0.4902400000000  0.5659770000000 1.0
C      1  0.5586780000000  0.4422010000000  0.4571080000000 1.0
C      1  0.5579300000000  0.5644450000000  0.4769650000000 1.0
C      1  0.5378450000000  0.5304600000000  0.4203840000000 1.0
C      1  0.5354010000000  0.5568810000000  0.5683240000000 1.0
C      1  0.5359930000000  0.4081780000000  0.5151240000000 1.0
C      1  0.4850210000000  0.4474710000000  0.4160280000000 1.0
C      1  0.4837010000000  0.6005450000000  0.4966420000000 1.0
C      1  0.4886970000000  0.4509850000000  0.5883720000000 1.0
C      1  0.5068650000000  0.4880630000000  0.5498340000000 1.0
C      1  0.5053260000000  0.4602690000000  0.4673620000000 1.0
C      1  0.5022280000000  0.5492910000000  0.4809560000000 1.0
C      1  0.5117710000000  0.4348160000000  0.5496470000000 1.0
C      1  0.5103990000000  0.4871820000000  0.4222310000000 1.0
C      1  0.5074480000000  0.5727580000000  0.5286060000000 1.0
END
