TITL C-3578200-9634-379 -4.13643290054072e-07 125000 -358.914625426536 0 0 58 (C1) n - 1
REM
REM in /home/bkarasulu/work/CARBON/AIRSS/Generating-Clusters/EDIP-Nigel-Params/with-SteepDescent/Higher-Symm/SD-CG/HFTN-CG
REM
REM
REM
REM
REM
REM ./C.cell (12c818d87b63d06a65506943cc24bca4)
REM
REM compiler GCC version 9.2.1 20190827 (Red Hat 9.2.1-1)
REM options -cpp -mtune=generic -march=x86-64 -g -O0 -fpre-include=/usr/include/finclude/math-vector-fortran.h
REM seed 2009628687 -339815772 853923860 1771336211 405136787 -1196355433 142249246 -105771014 -519564481 2116192395 -433649008 -356356447 2074572731 -1254776924 386398982 1742487021 951546237 881626300 -115042371 -834740836 1269205372 1920054359 -363293784 747961294 2038058809 -1259976248 -1266146085 1660876298 -639690287 1774626876 -29524540 795850312 1021412964
REM
CELL 1.54180   50.00000   50.00000   50.00000   90.00000   90.00000   90.00000
LATT -1
SFAC C  
C      1  0.4822910000000  0.4449590000000  0.5125810000000 1.0
C      1  0.5156290000000  0.4769940000000  0.4445310000000 1.0
C      1  0.4437970000000  0.5158850000000  0.4788110000000 1.0
C      1  0.4795670000000  0.5550230000000  0.4847140000000 1.0
C      1  0.5159230000000  0.5587960000000  0.5157010000000 1.0
C      1  0.5233880000000  0.4437850000000  0.4864400000000 1.0
C      1  0.5157150000000  0.5181290000000  0.5567250000000 1.0
C      1  0.4895060000000  0.5174750000000  0.4439220000000 1.0
C      1  0.4831790000000  0.4835530000000  0.5550610000000 1.0
C      1  0.4452160000000  0.4885780000000  0.5178020000000 1.0
C      1  0.5561640000000  0.4858680000000  0.4781880000000 1.0
C      1  0.5558120000000  0.5125970000000  0.5185520000000 1.0
C      1  0.5012670000000  0.5448410000000  0.4474600000000 1.0
C      1  0.4459280000000  0.5042930000000  0.5427380000000 1.0
C      1  0.5504540000000  0.4464200000000  0.4976260000000 1.0
C      1  0.4959130000000  0.4580700000000  0.5604270000000 1.0
C      1  0.5043180000000  0.4498010000000  0.4469300000000 1.0
C      1  0.5027680000000  0.5435880000000  0.5612840000000 1.0
C      1  0.4411700000000  0.5018180000000  0.4537190000000 1.0
C      1  0.5541490000000  0.4993630000000  0.5454910000000 1.0
C      1  0.5545330000000  0.4971050000000  0.4510700000000 1.0
C      1  0.5424420000000  0.5606860000000  0.5039900000000 1.0
C      1  0.4521520000000  0.5561920000000  0.4952130000000 1.0
C      1  0.4554700000000  0.4492290000000  0.5002510000000 1.0
C      1  0.4543840000000  0.4531330000000  0.4702720000000 1.0
C      1  0.4778960000000  0.4478360000000  0.4561010000000 1.0
C      1  0.4396030000000  0.4742360000000  0.4590460000000 1.0
C      1  0.4485120000000  0.5501560000000  0.5222000000000 1.0
C      1  0.5396990000000  0.5616740000000  0.4759010000000 1.0
C      1  0.5516910000000  0.4550980000000  0.5240970000000 1.0
C      1  0.4751010000000  0.5408680000000  0.5597600000000 1.0
C      1  0.5308180000000  0.5469330000000  0.4535140000000 1.0
C      1  0.5239440000000  0.4617440000000  0.5614840000000 1.0
C      1  0.4618930000000  0.5298720000000  0.5368700000000 1.0
C      1  0.5454740000000  0.5235210000000  0.4493040000000 1.0
C      1  0.5470040000000  0.4699430000000  0.5471980000000 1.0
C      1  0.5582770000000  0.5404120000000  0.5153430000000 1.0
C      1  0.5137360000000  0.5618040000000  0.5434760000000 1.0
C      1  0.5426270000000  0.5155960000000  0.5653680000000 1.0
C      1  0.5678680000000  0.4601870000000  0.4805920000000 1.0
C      1  0.4362120000000  0.4617740000000  0.5167660000000 1.0
C      1  0.4342980000000  0.5427640000000  0.4785670000000 1.0
C      1  0.5216430000000  0.4324450000000  0.4604620000000 1.0
C      1  0.4857100000000  0.4415800000000  0.5403200000000 1.0
C      1  0.4842260000000  0.5643470000000  0.4584490000000 1.0
C      1  0.5416020000000  0.4795850000000  0.4333570000000 1.0
C      1  0.4564690000000  0.4888000000000  0.5635720000000 1.0
C      1  0.4623710000000  0.5121580000000  0.4385670000000 1.0
C      1  0.5029970000000  0.4986920000000  0.4627070000000 1.0
C      1  0.5005980000000  0.5002070000000  0.5362630000000 1.0
C      1  0.4643720000000  0.5010800000000  0.4977700000000 1.0
C      1  0.5019910000000  0.4628120000000  0.4987070000000 1.0
C      1  0.5376660000000  0.4989200000000  0.4992840000000 1.0
C      1  0.4997580000000  0.5380480000000  0.5002550000000 1.0
C      1  0.5177060000000  0.4820660000000  0.5166220000000 1.0
C      1  0.5186590000000  0.5171080000000  0.4834610000000 1.0
C      1  0.4826100000000  0.5184000000000  0.5177660000000 1.0
C      1  0.4847510000000  0.4830210000000  0.4814180000000 1.0
END
