TITL C-3577089-586-130 -1.57870654755723e-06 125000 -1085.08044754738 0 0 170 (C1) n - 1
REM
REM in /home/bkarasulu/work/CARBON/AIRSS/Generating-Clusters/EDIP-Nigel-Params/with-SteepDescent/Higher-Symm/SD-CG/HFTN-CG
REM
REM
REM
REM
REM
REM ./C.cell (12c818d87b63d06a65506943cc24bca4)
REM
REM compiler GCC version 9.2.1 20190827 (Red Hat 9.2.1-1)
REM options -cpp -mtune=generic -march=x86-64 -g -O0 -fpre-include=/usr/include/finclude/math-vector-fortran.h
REM seed -991029376 -1497949074 -809086997 1788710515 1371960847 26898090 -1302425699 -972815186 -735102350 268197430 -1944087458 1110770293 -660393472 82809307 -1219258792 -398558001 98513793 -2040404426 1191271389 -275418842 -440151776 1461398129 873569681 1925917576 -560330010 601666375 -1579082721 -753062526 -824911201 1740498915 1763022427 -338030151 141450978
REM
CELL 1.54180   50.00000   50.00000   50.00000   90.00000   90.00000   90.00000
LATT -1
SFAC C  
C      1  0.5080470000000  0.3935140000000  0.4746230000000 1.0
C      1  0.4569400000000  0.5490390000000  0.4994350000000 1.0
C      1  0.5445590000000  0.4086860000000  0.5189050000000 1.0
C      1  0.5504640000000  0.5476750000000  0.5863030000000 1.0
C      1  0.5190650000000  0.5043280000000  0.5366730000000 1.0
C      1  0.4494200000000  0.5224070000000  0.5119940000000 1.0
C      1  0.5835160000000  0.4606010000000  0.5522620000000 1.0
C      1  0.3979520000000  0.5340530000000  0.5110960000000 1.0
C      1  0.4025670000000  0.4767170000000  0.4580540000000 1.0
C      1  0.5556130000000  0.4588720000000  0.4416660000000 1.0
C      1  0.4145080000000  0.5643950000000  0.4756040000000 1.0
C      1  0.4864720000000  0.4564840000000  0.4526340000000 1.0
C      1  0.5932440000000  0.5537380000000  0.5574440000000 1.0
C      1  0.5518110000000  0.4274040000000  0.4372920000000 1.0
C      1  0.5138960000000  0.5797080000000  0.5657240000000 1.0
C      1  0.5824710000000  0.4391790000000  0.5319030000000 1.0
C      1  0.4483210000000  0.5238010000000  0.4102150000000 1.0
C      1  0.4694580000000  0.4584190000000  0.4778340000000 1.0
C      1  0.5692200000000  0.5278880000000  0.5162970000000 1.0
C      1  0.5130940000000  0.4455100000000  0.5276690000000 1.0
C      1  0.5815990000000  0.5333900000000  0.4385250000000 1.0
C      1  0.4535720000000  0.4353600000000  0.4913360000000 1.0
C      1  0.5343930000000  0.4652560000000  0.6110100000000 1.0
C      1  0.5941400000000  0.5557520000000  0.5067240000000 1.0
C      1  0.4984400000000  0.4839560000000  0.4490810000000 1.0
C      1  0.4218730000000  0.4998870000000  0.5542330000000 1.0
C      1  0.5559110000000  0.4744100000000  0.5951860000000 1.0
C      1  0.5963380000000  0.4837010000000  0.4564830000000 1.0
C      1  0.4622720000000  0.4879530000000  0.4792650000000 1.0
C      1  0.6088720000000  0.4922190000000  0.5236810000000 1.0
C      1  0.4546130000000  0.6108880000000  0.5186070000000 1.0
C      1  0.5709330000000  0.5581860000000  0.4859300000000 1.0
C      1  0.4433080000000  0.4443590000000  0.5208030000000 1.0
C      1  0.4685130000000  0.4074160000000  0.4464900000000 1.0
C      1  0.4876480000000  0.5571360000000  0.4106850000000 1.0
C      1  0.5205360000000  0.5854590000000  0.5384760000000 1.0
C      1  0.5288830000000  0.4969470000000  0.5108040000000 1.0
C      1  0.6018670000000  0.5221440000000  0.5240770000000 1.0
C      1  0.5467850000000  0.5737680000000  0.5279320000000 1.0
C      1  0.5662220000000  0.5403830000000  0.5620990000000 1.0
C      1  0.5311790000000  0.5236240000000  0.4696760000000 1.0
C      1  0.3986670000000  0.5413340000000  0.5567510000000 1.0
C      1  0.5495730000000  0.4753320000000  0.5124580000000 1.0
C      1  0.4911630000000  0.5464970000000  0.5910220000000 1.0
C      1  0.4288640000000  0.5331830000000  0.4320630000000 1.0
C      1  0.4817750000000  0.4604060000000  0.4018000000000 1.0
C      1  0.4216910000000  0.5723650000000  0.5284900000000 1.0
C      1  0.5970030000000  0.4775310000000  0.5005180000000 1.0
C      1  0.5197800000000  0.4818870000000  0.4682420000000 1.0
C      1  0.6098540000000  0.5298860000000  0.5519910000000 1.0
C      1  0.4280720000000  0.4347460000000  0.4454360000000 1.0
C      1  0.4473630000000  0.4940980000000  0.4046980000000 1.0
C      1  0.4283320000000  0.4284070000000  0.4751850000000 1.0
C      1  0.5464230000000  0.3959970000000  0.4766520000000 1.0
C      1  0.4203090000000  0.4710070000000  0.5548310000000 1.0
C      1  0.4179760000000  0.5152300000000  0.4742890000000 1.0
C      1  0.4775840000000  0.4108770000000  0.5440020000000 1.0
C      1  0.5423110000000  0.5505640000000  0.4447640000000 1.0
C      1  0.4732990000000  0.5999630000000  0.5361780000000 1.0
C      1  0.4040660000000  0.5178730000000  0.4294570000000 1.0
C      1  0.5284460000000  0.4677370000000  0.3858690000000 1.0
C      1  0.4699340000000  0.5194000000000  0.5637130000000 1.0
C      1  0.5085150000000  0.5233290000000  0.5833190000000 1.0
C      1  0.4976250000000  0.4522660000000  0.5824820000000 1.0
C      1  0.5613120000000  0.4175280000000  0.4634540000000 1.0
C      1  0.4863050000000  0.5572740000000  0.5157680000000 1.0
C      1  0.5832290000000  0.4574380000000  0.4528220000000 1.0
C      1  0.5854470000000  0.4480810000000  0.5025450000000 1.0
C      1  0.4469050000000  0.4777880000000  0.4307970000000 1.0
C      1  0.5761140000000  0.5067230000000  0.4534640000000 1.0
C      1  0.5363210000000  0.4609900000000  0.5412700000000 1.0
C      1  0.5638390000000  0.5305160000000  0.4118210000000 1.0
C      1  0.5629540000000  0.4998910000000  0.4059330000000 1.0
C      1  0.4136320000000  0.4372970000000  0.5202700000000 1.0
C      1  0.3892140000000  0.5079610000000  0.5210060000000 1.0
C      1  0.5085000000000  0.5494550000000  0.4977620000000 1.0
C      1  0.4775310000000  0.5744450000000  0.4321280000000 1.0
C      1  0.4933840000000  0.4647540000000  0.5143290000000 1.0
C      1  0.4263210000000  0.5455460000000  0.5684890000000 1.0
C      1  0.4028470000000  0.5386060000000  0.4833300000000 1.0
C      1  0.5049500000000  0.4157890000000  0.5502260000000 1.0
C      1  0.5493840000000  0.5745150000000  0.4977550000000 1.0
C      1  0.5547810000000  0.4936930000000  0.4348440000000 1.0
C      1  0.4024340000000  0.4613990000000  0.5329110000000 1.0
C      1  0.5701460000000  0.4892860000000  0.4970340000000 1.0
C      1  0.4563420000000  0.4973870000000  0.4521910000000 1.0
C      1  0.5214770000000  0.5152520000000  0.3898050000000 1.0
C      1  0.5987710000000  0.5056040000000  0.5660440000000 1.0
C      1  0.3957890000000  0.5119530000000  0.5497030000000 1.0
C      1  0.3975180000000  0.5556820000000  0.5305040000000 1.0
C      1  0.5311890000000  0.5137200000000  0.4398660000000 1.0
C      1  0.3985890000000  0.4667320000000  0.4858100000000 1.0
C      1  0.4540120000000  0.4272630000000  0.4325040000000 1.0
C      1  0.5259200000000  0.5748430000000  0.4349110000000 1.0
C      1  0.4722940000000  0.4837060000000  0.5289890000000 1.0
C      1  0.4459030000000  0.5969670000000  0.4960720000000 1.0
C      1  0.4333770000000  0.5709100000000  0.5003270000000 1.0
C      1  0.4268140000000  0.5642150000000  0.4468840000000 1.0
C      1  0.5068530000000  0.5972930000000  0.4947090000000 1.0
C      1  0.5170180000000  0.4306620000000  0.5717820000000 1.0
C      1  0.4730270000000  0.3988240000000  0.5195170000000 1.0
C      1  0.4432230000000  0.4757650000000  0.5234950000000 1.0
C      1  0.5621060000000  0.5152060000000  0.4821200000000 1.0
C      1  0.5009610000000  0.4770190000000  0.5664840000000 1.0
C      1  0.4704590000000  0.5054900000000  0.6079950000000 1.0
C      1  0.5107700000000  0.4216100000000  0.4827910000000 1.0
C      1  0.5226310000000  0.5731100000000  0.4856800000000 1.0
C      1  0.6141340000000  0.4826810000000  0.4777030000000 1.0
C      1  0.3985250000000  0.4812680000000  0.5116190000000 1.0
C      1  0.5235030000000  0.4217330000000  0.4341870000000 1.0
C      1  0.4726150000000  0.4859530000000  0.3904100000000 1.0
C      1  0.5063710000000  0.4666380000000  0.6088970000000 1.0
C      1  0.5268510000000  0.4852000000000  0.5564680000000 1.0
C      1  0.4974780000000  0.4948220000000  0.6066080000000 1.0
C      1  0.4402860000000  0.5641660000000  0.5499490000000 1.0
C      1  0.4423350000000  0.5230130000000  0.4573350000000 1.0
C      1  0.5192620000000  0.5310200000000  0.5471180000000 1.0
C      1  0.5914200000000  0.5712270000000  0.5333320000000 1.0
C      1  0.5344100000000  0.5374460000000  0.4036530000000 1.0
C      1  0.5351580000000  0.4577240000000  0.4654640000000 1.0
C      1  0.4901560000000  0.5425080000000  0.5445410000000 1.0
C      1  0.5341080000000  0.5698230000000  0.5820930000000 1.0
C      1  0.4753660000000  0.5109340000000  0.5173260000000 1.0
C      1  0.4605380000000  0.4334350000000  0.5488750000000 1.0
C      1  0.4915840000000  0.5098140000000  0.3930850000000 1.0
C      1  0.4886330000000  0.5642770000000  0.5665430000000 1.0
C      1  0.6046380000000  0.4809550000000  0.5506890000000 1.0
C      1  0.5401040000000  0.4932500000000  0.3873210000000 1.0
C      1  0.4560770000000  0.5694880000000  0.4539370000000 1.0
C      1  0.4208290000000  0.4632390000000  0.4387200000000 1.0
C      1  0.4054680000000  0.4385510000000  0.4912010000000 1.0
C      1  0.4676110000000  0.4539740000000  0.4281400000000 1.0
C      1  0.4754280000000  0.4890760000000  0.5581630000000 1.0
C      1  0.5362120000000  0.5223090000000  0.5931120000000 1.0
C      1  0.5084430000000  0.4510160000000  0.3955920000000 1.0
C      1  0.5130010000000  0.4379510000000  0.4579130000000 1.0
C      1  0.4614690000000  0.5440150000000  0.4697490000000 1.0
C      1  0.5473730000000  0.4509540000000  0.4932240000000 1.0
C      1  0.4781740000000  0.3948810000000  0.4700140000000 1.0
C      1  0.5607260000000  0.4202960000000  0.5409660000000 1.0
C      1  0.4377570000000  0.4965860000000  0.4982360000000 1.0
C      1  0.3993930000000  0.5052320000000  0.4542140000000 1.0
C      1  0.4668760000000  0.4469470000000  0.5753300000000 1.0
C      1  0.5830760000000  0.4357730000000  0.4736650000000 1.0
C      1  0.5176280000000  0.5611920000000  0.4098010000000 1.0
C      1  0.5021130000000  0.5289400000000  0.4791300000000 1.0
C      1  0.5149540000000  0.4279150000000  0.4087930000000 1.0
C      1  0.4639860000000  0.5806030000000  0.5572690000000 1.0
C      1  0.4682070000000  0.5329160000000  0.5999390000000 1.0
C      1  0.5696260000000  0.5886720000000  0.5372100000000 1.0
C      1  0.4868870000000  0.5052260000000  0.4907450000000 1.0
C      1  0.5453680000000  0.4388530000000  0.5609590000000 1.0
C      1  0.4957770000000  0.5866620000000  0.5213090000000 1.0
C      1  0.5488080000000  0.5437350000000  0.5372310000000 1.0
C      1  0.4696130000000  0.4099170000000  0.4941660000000 1.0
C      1  0.5480010000000  0.4979790000000  0.5781380000000 1.0
C      1  0.4490180000000  0.4895750000000  0.5976810000000 1.0
C      1  0.4539620000000  0.4738380000000  0.5732490000000 1.0
C      1  0.5559010000000  0.3893180000000  0.5019390000000 1.0
C      1  0.5705120000000  0.5112670000000  0.5638640000000 1.0
C      1  0.4778420000000  0.5291540000000  0.4121670000000 1.0
C      1  0.5700640000000  0.5559890000000  0.4557070000000 1.0
C      1  0.4615140000000  0.5937680000000  0.4719950000000 1.0
C      1  0.5671800000000  0.4536760000000  0.5769800000000 1.0
C      1  0.5039630000000  0.5052200000000  0.4294410000000 1.0
C      1  0.5004340000000  0.5821570000000  0.4482810000000 1.0
C      1  0.5287570000000  0.4305000000000  0.5056600000000 1.0
C      1  0.4383740000000  0.5172600000000  0.5722250000000 1.0
C      1  0.4905890000000  0.5998790000000  0.4702420000000 1.0
C      1  0.5077830000000  0.4848980000000  0.4954020000000 1.0
END
