TITL C-3578197-9521-67 -1.721092508283e-06 125000 -1008.48448020836 0 0 160 (C1) n - 1
REM
REM in /home/bkarasulu/work/CARBON/AIRSS/Generating-Clusters/EDIP-Nigel-Params/with-SteepDescent/Higher-Symm/SD-CG/HFTN-CG
REM
REM
REM
REM
REM
REM ./C.cell (12c818d87b63d06a65506943cc24bca4)
REM
REM compiler GCC version 9.2.1 20190827 (Red Hat 9.2.1-1)
REM options -cpp -mtune=generic -march=x86-64 -g -O0 -fpre-include=/usr/include/finclude/math-vector-fortran.h
REM seed 949204619 1046684045 900722118 -1077561039 454663135 -1170037879 765879392 1706312271 -1690044879 -769032895 -1727726416 1501877677 876126395 -1945672591 -1798822367 1220948620 699709507 -1098288265 -243372259 -494162223 1218344179 -522003789 415119168 129976295 -17612006 717349276 857013398 -651570387 -852664350 913901114 -683591179 -273732973 -118754116
REM
CELL 1.54180   50.00000   50.00000   50.00000   90.00000   90.00000   90.00000
LATT -1
SFAC C  
C      1  0.4486610000000  0.5840530000000  0.4666060000000 1.0
C      1  0.5972990000000  0.4457660000000  0.4459650000000 1.0
C      1  0.4683010000000  0.4472120000000  0.5769430000000 1.0
C      1  0.5562450000000  0.5729500000000  0.5303260000000 1.0
C      1  0.5718470000000  0.4132590000000  0.4718410000000 1.0
C      1  0.4419990000000  0.4182960000000  0.5420140000000 1.0
C      1  0.4283100000000  0.4663310000000  0.5546680000000 1.0
C      1  0.4285900000000  0.5496550000000  0.4359010000000 1.0
C      1  0.5793080000000  0.5348790000000  0.5511270000000 1.0
C      1  0.5547010000000  0.4271370000000  0.4332920000000 1.0
C      1  0.5442890000000  0.5588400000000  0.5760050000000 1.0
C      1  0.4721750000000  0.5771800000000  0.4231570000000 1.0
C      1  0.4737480000000  0.5820490000000  0.4518600000000 1.0
C      1  0.4478940000000  0.4676620000000  0.5754980000000 1.0
C      1  0.5877610000000  0.4377320000000  0.4714040000000 1.0
C      1  0.5411020000000  0.5759990000000  0.5545340000000 1.0
C      1  0.4654970000000  0.4219090000000  0.5624700000000 1.0
C      1  0.5660800000000  0.4035730000000  0.4461680000000 1.0
C      1  0.5737520000000  0.4499040000000  0.4310790000000 1.0
C      1  0.4523180000000  0.5541180000000  0.4178740000000 1.0
C      1  0.5569540000000  0.5341610000000  0.5690320000000 1.0
C      1  0.4258010000000  0.4430390000000  0.5370560000000 1.0
C      1  0.5781960000000  0.5542790000000  0.5291650000000 1.0
C      1  0.4304030000000  0.5617360000000  0.4637740000000 1.0
C      1  0.5261560000000  0.4297210000000  0.4770520000000 1.0
C      1  0.3980820000000  0.4915030000000  0.5245990000000 1.0
C      1  0.4954500000000  0.5360980000000  0.4205770000000 1.0
C      1  0.4753830000000  0.4011520000000  0.5071140000000 1.0
C      1  0.4745870000000  0.5962710000000  0.5077620000000 1.0
C      1  0.5225050000000  0.6021660000000  0.5085870000000 1.0
C      1  0.6007800000000  0.4959670000000  0.4651830000000 1.0
C      1  0.5525700000000  0.5111440000000  0.5255970000000 1.0
C      1  0.4173440000000  0.5040870000000  0.4585130000000 1.0
C      1  0.5072690000000  0.5350790000000  0.5988790000000 1.0
C      1  0.5152110000000  0.4617740000000  0.4145490000000 1.0
C      1  0.4994460000000  0.4787860000000  0.6008190000000 1.0
C      1  0.4860870000000  0.4246570000000  0.5229990000000 1.0
C      1  0.5322640000000  0.4846460000000  0.4254230000000 1.0
C      1  0.4102800000000  0.5214370000000  0.4815920000000 1.0
C      1  0.5039630000000  0.4111080000000  0.4704720000000 1.0
C      1  0.5004350000000  0.5855900000000  0.4923030000000 1.0
C      1  0.5138160000000  0.6066170000000  0.5371810000000 1.0
C      1  0.4783010000000  0.5019880000000  0.5988390000000 1.0
C      1  0.5289560000000  0.5111070000000  0.5990120000000 1.0
C      1  0.4609820000000  0.5040350000000  0.4189340000000 1.0
C      1  0.5696770000000  0.5145400000000  0.5005760000000 1.0
C      1  0.4094960000000  0.4748030000000  0.5021350000000 1.0
C      1  0.5909350000000  0.4851060000000  0.4915140000000 1.0
C      1  0.4812010000000  0.5084910000000  0.6288850000000 1.0
C      1  0.4938030000000  0.6386190000000  0.4926120000000 1.0
C      1  0.6142430000000  0.4839550000000  0.5094850000000 1.0
C      1  0.5327850000000  0.5071270000000  0.4054290000000 1.0
C      1  0.5251880000000  0.5070960000000  0.6285060000000 1.0
C      1  0.4830230000000  0.4952080000000  0.3989040000000 1.0
C      1  0.4960970000000  0.6281680000000  0.5349540000000 1.0
C      1  0.5102660000000  0.3828220000000  0.4784820000000 1.0
C      1  0.5194300000000  0.3796560000000  0.5160280000000 1.0
C      1  0.3908540000000  0.4758070000000  0.4783140000000 1.0
C      1  0.3835620000000  0.5174390000000  0.4917340000000 1.0
C      1  0.6115310000000  0.5295810000000  0.5002540000000 1.0
C      1  0.6153670000000  0.5189800000000  0.4738460000000 1.0
C      1  0.4781510000000  0.6259590000000  0.5131530000000 1.0
C      1  0.5042080000000  0.4856370000000  0.6309060000000 1.0
C      1  0.3821060000000  0.5144200000000  0.5195530000000 1.0
C      1  0.6116780000000  0.5088230000000  0.5221030000000 1.0
C      1  0.3718280000000  0.4965990000000  0.4770260000000 1.0
C      1  0.5194440000000  0.6303330000000  0.5002720000000 1.0
C      1  0.4921810000000  0.3771870000000  0.5042700000000 1.0
C      1  0.5376630000000  0.3852370000000  0.4936970000000 1.0
C      1  0.4931650000000  0.4691620000000  0.3994000000000 1.0
C      1  0.5044170000000  0.5161850000000  0.3998280000000 1.0
C      1  0.5026600000000  0.5297350000000  0.6293370000000 1.0
C      1  0.4625440000000  0.4863820000000  0.4443960000000 1.0
C      1  0.4891260000000  0.4642020000000  0.4791630000000 1.0
C      1  0.4431060000000  0.4809710000000  0.4927490000000 1.0
C      1  0.5200170000000  0.4817880000000  0.5462500000000 1.0
C      1  0.5162010000000  0.4974770000000  0.4502330000000 1.0
C      1  0.4855960000000  0.4963190000000  0.5195900000000 1.0
C      1  0.5088900000000  0.4470060000000  0.5206280000000 1.0
C      1  0.5056260000000  0.5492020000000  0.4791550000000 1.0
C      1  0.4918570000000  0.5461580000000  0.5239790000000 1.0
C      1  0.5327280000000  0.4769310000000  0.4954260000000 1.0
C      1  0.5484290000000  0.5211770000000  0.4802260000000 1.0
C      1  0.4585750000000  0.5275310000000  0.4886070000000 1.0
C      1  0.4454510000000  0.4979890000000  0.4670560000000 1.0
C      1  0.4620140000000  0.4555750000000  0.4893150000000 1.0
C      1  0.4904270000000  0.4812250000000  0.4558110000000 1.0
C      1  0.5411470000000  0.4835180000000  0.5246210000000 1.0
C      1  0.4573970000000  0.5035170000000  0.5097860000000 1.0
C      1  0.5345460000000  0.4960470000000  0.4735700000000 1.0
C      1  0.5144080000000  0.4542200000000  0.4922400000000 1.0
C      1  0.4814070000000  0.5461110000000  0.4959390000000 1.0
C      1  0.5285250000000  0.5378520000000  0.4942030000000 1.0
C      1  0.4956010000000  0.4720600000000  0.5335540000000 1.0
C      1  0.4999080000000  0.5185320000000  0.5321500000000 1.0
C      1  0.5107370000000  0.5303990000000  0.4472380000000 1.0
C      1  0.4915540000000  0.4135100000000  0.5511880000000 1.0
C      1  0.4309410000000  0.5425780000000  0.4879630000000 1.0
C      1  0.5618570000000  0.4767210000000  0.4331700000000 1.0
C      1  0.4939900000000  0.4184920000000  0.4440060000000 1.0
C      1  0.5141860000000  0.5881500000000  0.5609250000000 1.0
C      1  0.4977220000000  0.5938030000000  0.4634040000000 1.0
C      1  0.5847410000000  0.5421610000000  0.5022030000000 1.0
C      1  0.5798240000000  0.4572190000000  0.4912300000000 1.0
C      1  0.4109490000000  0.4469260000000  0.5118960000000 1.0
C      1  0.4506380000000  0.4925790000000  0.5908630000000 1.0
C      1  0.4307080000000  0.5029620000000  0.4129890000000 1.0
C      1  0.5555700000000  0.5129940000000  0.5882090000000 1.0
C      1  0.5485230000000  0.4130510000000  0.4910870000000 1.0
C      1  0.4984840000000  0.5655600000000  0.4129180000000 1.0
C      1  0.4129020000000  0.4906160000000  0.5495920000000 1.0
C      1  0.4469410000000  0.3997200000000  0.5161270000000 1.0
C      1  0.5497040000000  0.5895630000000  0.5080430000000 1.0
C      1  0.4495400000000  0.5923740000000  0.4937730000000 1.0
C      1  0.5186650000000  0.5628760000000  0.5903870000000 1.0
C      1  0.4913580000000  0.4502240000000  0.5945290000000 1.0
C      1  0.5168380000000  0.4354440000000  0.4291700000000 1.0
C      1  0.5808260000000  0.4977800000000  0.4424970000000 1.0
C      1  0.4178280000000  0.5207190000000  0.4332560000000 1.0
C      1  0.5880940000000  0.5082720000000  0.5416320000000 1.0
C      1  0.5243770000000  0.5734370000000  0.4261650000000 1.0
C      1  0.5549420000000  0.4241990000000  0.5184500000000 1.0
C      1  0.4253260000000  0.5172000000000  0.5551990000000 1.0
C      1  0.4792690000000  0.5594340000000  0.5873580000000 1.0
C      1  0.4567810000000  0.4409270000000  0.4224440000000 1.0
C      1  0.5188480000000  0.4432630000000  0.5835230000000 1.0
C      1  0.4316010000000  0.4069010000000  0.4925400000000 1.0
C      1  0.4506600000000  0.5722510000000  0.5268430000000 1.0
C      1  0.5612780000000  0.5843920000000  0.4821070000000 1.0
C      1  0.5742710000000  0.5253020000000  0.4352300000000 1.0
C      1  0.5777810000000  0.4818860000000  0.5556270000000 1.0
C      1  0.4059680000000  0.4674340000000  0.4542270000000 1.0
C      1  0.4306600000000  0.5521040000000  0.5171800000000 1.0
C      1  0.5193020000000  0.4240360000000  0.5607720000000 1.0
C      1  0.5499700000000  0.5301130000000  0.4153910000000 1.0
C      1  0.5765900000000  0.5593900000000  0.4773880000000 1.0
C      1  0.4115870000000  0.4278040000000  0.4893130000000 1.0
C      1  0.5739490000000  0.4464360000000  0.5173550000000 1.0
C      1  0.4656430000000  0.4261870000000  0.4444290000000 1.0
C      1  0.5227970000000  0.5938770000000  0.4473420000000 1.0
C      1  0.4857150000000  0.5760310000000  0.5640790000000 1.0
C      1  0.4432050000000  0.5189460000000  0.5786590000000 1.0
C      1  0.5589890000000  0.4851260000000  0.5790530000000 1.0
C      1  0.4225840000000  0.4759040000000  0.4202790000000 1.0
C      1  0.4450320000000  0.4637480000000  0.4341490000000 1.0
C      1  0.4499300000000  0.4327120000000  0.4704650000000 1.0
C      1  0.4196980000000  0.4415520000000  0.4629180000000 1.0
C      1  0.5281020000000  0.4748050000000  0.5755410000000 1.0
C      1  0.5355150000000  0.5467830000000  0.4375310000000 1.0
C      1  0.4705250000000  0.5330160000000  0.5752760000000 1.0
C      1  0.5334000000000  0.4374840000000  0.5366190000000 1.0
C      1  0.5470600000000  0.5959370000000  0.4611640000000 1.0
C      1  0.4719110000000  0.5570760000000  0.5443330000000 1.0
C      1  0.5603800000000  0.4641060000000  0.5374440000000 1.0
C      1  0.5608950000000  0.5402300000000  0.4591560000000 1.0
C      1  0.4375160000000  0.5281530000000  0.5314960000000 1.0
C      1  0.5277230000000  0.5314090000000  0.5232400000000 1.0
C      1  0.4678730000000  0.5312350000000  0.4260070000000 1.0
C      1  0.4649390000000  0.4449460000000  0.5161040000000 1.0
C      1  0.5353810000000  0.4410010000000  0.4516290000000 1.0
END
