TITL C-3577079-311-789 0.324795621793071 125000 -212.873142145215 0 0 36 (C1) n - 1
REM
REM in /home/bkarasulu/work/CARBON/AIRSS/Generating-Clusters/EDIP-Nigel-Params/with-SteepDescent/Higher-Symm/SD-CG/HFTN-CG
REM
REM
REM
REM
REM
REM ./C.cell (12c818d87b63d06a65506943cc24bca4)
REM
REM compiler GCC version 9.2.1 20190827 (Red Hat 9.2.1-1)
REM options -cpp -mtune=generic -march=x86-64 -g -O0 -fpre-include=/usr/include/finclude/math-vector-fortran.h
REM seed 195867694 -374657927 -362626077 -90176355 -1844214943 -1412402979 -538956273 480741524 50460988 -1589420564 279335741 -2126695748 -409514555 2078360328 930501775 1141897491 521091419 -511828203 923832924 -1372341741 851325234 -1839884282 -722290098 1038548894 -479622969 610169374 1652392100 479093674 1064704670 820333101 -1211000947 -1030339039 1797611220
REM
CELL 1.54180   50.00000   50.00000   50.00000   90.00000   90.00000   90.00000
LATT -1
SFAC C  
C      1  0.5094320000000  0.5779660000000  0.5250020000000 1.0
C      1  0.5271170000000  0.5891570000000  0.5070210000000 1.0
C      1  0.5439260000000  0.5767180000000  0.4882990000000 1.0
C      1  0.5352070000000  0.5779180000000  0.4585880000000 1.0
C      1  0.5097940000000  0.5897590000000  0.4546680000000 1.0
C      1  0.4842240000000  0.5791560000000  0.4570230000000 1.0
C      1  0.4624410000000  0.5925370000000  0.4681110000000 1.0
C      1  0.4472360000000  0.5810660000000  0.4886510000000 1.0
C      1  0.4467060000000  0.5926470000000  0.5142360000000 1.0
C      1  0.4627200000000  0.5815060000000  0.5346050000000 1.0
C      1  0.4888000000000  0.5917920000000  0.5378800000000 1.0
C      1  0.4829790000000  0.3676770000000  0.5441420000000 1.0
C      1  0.4868440000000  0.3424420000000  0.5370620000000 1.0
C      1  0.4987270000000  0.3258830000000  0.5201110000000 1.0
C      1  0.5146890000000  0.3244790000000  0.4989840000000 1.0
C      1  0.5287340000000  0.3387570000000  0.4816170000000 1.0
C      1  0.5360700000000  0.3630070000000  0.4738700000000 1.0
C      1  0.5351400000000  0.3892560000000  0.4771640000000 1.0
C      1  0.5271010000000  0.4112830000000  0.4894850000000 1.0
C      1  0.5137950000000  0.4262750000000  0.5081830000000 1.0
C      1  0.4985660000000  0.4137930000000  0.5272550000000 1.0
C      1  0.4875560000000  0.3934410000000  0.5401470000000 1.0
C      1  0.4464220000000  0.5519690000000  0.4890020000000 1.0
C      1  0.4453170000000  0.5411570000000  0.5149190000000 1.0
C      1  0.4613950000000  0.5520080000000  0.5354200000000 1.0
C      1  0.4863170000000  0.5397590000000  0.5405090000000 1.0
C      1  0.5086340000000  0.5494320000000  0.5266310000000 1.0
C      1  0.5204700000000  0.5336880000000  0.5054930000000 1.0
C      1  0.5413680000000  0.5454940000000  0.4879740000000 1.0
C      1  0.5338220000000  0.5466230000000  0.4575350000000 1.0
C      1  0.5073110000000  0.5378670000000  0.4525770000000 1.0
C      1  0.4829080000000  0.5506570000000  0.4565950000000 1.0
C      1  0.4603940000000  0.5391060000000  0.4683390000000 1.0
C      1  0.5175410000000  0.4799220000000  0.5073350000000 1.0
C      1  0.5157200000000  0.4535670000000  0.5078240000000 1.0
C      1  0.5200080000000  0.5062350000000  0.5076390000000 1.0
END
