TITL C-3577083-591-204 -1.12035150900674e-06 125000 -1178.23434577942 0 0 192 (C1) n - 1
REM
REM in /home/bkarasulu/work/CARBON/AIRSS/Generating-Clusters/EDIP-Nigel-Params/with-SteepDescent/Higher-Symm/SD-CG/HFTN-CG
REM
REM
REM
REM
REM
REM ./C.cell (12c818d87b63d06a65506943cc24bca4)
REM
REM compiler GCC version 9.2.1 20190827 (Red Hat 9.2.1-1)
REM options -cpp -mtune=generic -march=x86-64 -g -O0 -fpre-include=/usr/include/finclude/math-vector-fortran.h
REM seed 478583881 -1332930441 1904800956 -239681815 -1079176596 -1850150535 -105523775 -1789413396 -1454196677 1080444777 1603656390 -990845247 1030141045 -1164190235 -934161350 -236217301 1862350875 1212468637 1761715503 255780322 76582621 885114260 -457758030 -111396865 1208453348 -809940389 -1936403157 1581307925 1807910355 1129653330 -15014339 900111423 -1873198779
REM
CELL 1.54180   50.00000   50.00000   50.00000   90.00000   90.00000   90.00000
LATT -1
SFAC C  
C      1  0.5736520000000  0.4504570000000  0.5736230000000 1.0
C      1  0.4476670000000  0.4286700000000  0.5686560000000 1.0
C      1  0.4226050000000  0.5477170000000  0.5656650000000 1.0
C      1  0.5530500000000  0.5704700000000  0.5708150000000 1.0
C      1  0.4281970000000  0.4493180000000  0.5725120000000 1.0
C      1  0.5537710000000  0.4301120000000  0.5693890000000 1.0
C      1  0.5742190000000  0.5495370000000  0.5694730000000 1.0
C      1  0.4420350000000  0.5682410000000  0.5711090000000 1.0
C      1  0.4479310000000  0.5238130000000  0.6006380000000 1.0
C      1  0.5298330000000  0.5656440000000  0.5880260000000 1.0
C      1  0.5707530000000  0.4750120000000  0.5879950000000 1.0
C      1  0.4740980000000  0.4306470000000  0.5820640000000 1.0
C      1  0.5669070000000  0.5306550000000  0.6026940000000 1.0
C      1  0.4700940000000  0.5639900000000  0.5754960000000 1.0
C      1  0.4342270000000  0.4737640000000  0.5856240000000 1.0
C      1  0.5302740000000  0.4297620000000  0.5873150000000 1.0
C      1  0.6184590000000  0.5190060000000  0.5477070000000 1.0
C      1  0.5177220000000  0.3841850000000  0.5524040000000 1.0
C      1  0.3968880000000  0.4923340000000  0.5524490000000 1.0
C      1  0.4860130000000  0.6102390000000  0.5543110000000 1.0
C      1  0.3832260000000  0.5163620000000  0.5476520000000 1.0
C      1  0.4888340000000  0.3874750000000  0.5546980000000 1.0
C      1  0.6067410000000  0.4942750000000  0.5539250000000 1.0
C      1  0.5151880000000  0.6143160000000  0.5537830000000 1.0
C      1  0.5332240000000  0.5202770000000  0.4308010000000 1.0
C      1  0.5155680000000  0.4552330000000  0.4308940000000 1.0
C      1  0.4690120000000  0.4825400000000  0.4292000000000 1.0
C      1  0.4829810000000  0.5459290000000  0.4301500000000 1.0
C      1  0.4652080000000  0.5215510000000  0.4309390000000 1.0
C      1  0.4843720000000  0.4563750000000  0.4296970000000 1.0
C      1  0.5299900000000  0.4812480000000  0.4315920000000 1.0
C      1  0.5145970000000  0.5437310000000  0.4303460000000 1.0
C      1  0.4303390000000  0.5893130000000  0.5011600000000 1.0
C      1  0.5883030000000  0.5641660000000  0.5034580000000 1.0
C      1  0.5639560000000  0.4117860000000  0.5041520000000 1.0
C      1  0.4096760000000  0.4331700000000  0.5038070000000 1.0
C      1  0.5679310000000  0.5840300000000  0.5075940000000 1.0
C      1  0.4121890000000  0.5666820000000  0.5031460000000 1.0
C      1  0.4301900000000  0.4133730000000  0.5077770000000 1.0
C      1  0.5830330000000  0.4332790000000  0.5084990000000 1.0
C      1  0.5932550000000  0.4447540000000  0.4821120000000 1.0
C      1  0.4409180000000  0.4018080000000  0.4827570000000 1.0
C      1  0.4069620000000  0.5545860000000  0.4762410000000 1.0
C      1  0.5589870000000  0.5964270000000  0.4819150000000 1.0
C      1  0.4025780000000  0.4433860000000  0.4767950000000 1.0
C      1  0.5554700000000  0.4031550000000  0.4769930000000 1.0
C      1  0.5965620000000  0.5555390000000  0.4760410000000 1.0
C      1  0.4432510000000  0.5973900000000  0.4753870000000 1.0
C      1  0.5577820000000  0.5794630000000  0.4571950000000 1.0
C      1  0.5732180000000  0.4457470000000  0.4611510000000 1.0
C      1  0.4411080000000  0.4186190000000  0.4595130000000 1.0
C      1  0.4314670000000  0.5517370000000  0.4599710000000 1.0
C      1  0.4471240000000  0.5749860000000  0.4535510000000 1.0
C      1  0.4212460000000  0.4378350000000  0.4534370000000 1.0
C      1  0.5533260000000  0.4255320000000  0.4553530000000 1.0
C      1  0.5764190000000  0.5568000000000  0.4537290000000 1.0
C      1  0.5589400000000  0.4757220000000  0.5280770000000 1.0
C      1  0.4736250000000  0.4387450000000  0.5275510000000 1.0
C      1  0.4371690000000  0.5232690000000  0.5277630000000 1.0
C      1  0.5231240000000  0.5633450000000  0.5288440000000 1.0
C      1  0.4402690000000  0.4739910000000  0.5238020000000 1.0
C      1  0.5242760000000  0.4395200000000  0.5276680000000 1.0
C      1  0.5584990000000  0.5255060000000  0.5261350000000 1.0
C      1  0.4698230000000  0.5611610000000  0.5244430000000 1.0
C      1  0.5595200000000  0.5787190000000  0.4191830000000 1.0
C      1  0.5668670000000  0.4427750000000  0.4121840000000 1.0
C      1  0.4435340000000  0.4240890000000  0.4117950000000 1.0
C      1  0.4317470000000  0.5563780000000  0.4111370000000 1.0
C      1  0.4438140000000  0.5796010000000  0.4232000000000 1.0
C      1  0.4244290000000  0.4417280000000  0.4234160000000 1.0
C      1  0.5555580000000  0.4199420000000  0.4251040000000 1.0
C      1  0.5779130000000  0.5559460000000  0.4153670000000 1.0
C      1  0.5267830000000  0.4894700000000  0.5783490000000 1.0
C      1  0.4891040000000  0.4662490000000  0.5607830000000 1.0
C      1  0.4664160000000  0.5143280000000  0.5674350000000 1.0
C      1  0.5107370000000  0.5348350000000  0.5629180000000 1.0
C      1  0.4780290000000  0.4882130000000  0.5760870000000 1.0
C      1  0.5182580000000  0.4647660000000  0.5637880000000 1.0
C      1  0.5293070000000  0.5149260000000  0.5684430000000 1.0
C      1  0.4846720000000  0.5367440000000  0.5780940000000 1.0
C      1  0.4762210000000  0.5645480000000  0.4544450000000 1.0
C      1  0.5530930000000  0.5262660000000  0.4533070000000 1.0
C      1  0.5239300000000  0.4377290000000  0.4558450000000 1.0
C      1  0.4507180000000  0.4789220000000  0.4521120000000 1.0
C      1  0.5238730000000  0.5601380000000  0.4545150000000 1.0
C      1  0.4438360000000  0.5252150000000  0.4542830000000 1.0
C      1  0.4728030000000  0.4402300000000  0.4540570000000 1.0
C      1  0.5494860000000  0.4753150000000  0.4542610000000 1.0
C      1  0.4846100000000  0.5624730000000  0.4028870000000 1.0
C      1  0.5493490000000  0.5165010000000  0.4049010000000 1.0
C      1  0.5162070000000  0.4380220000000  0.4040250000000 1.0
C      1  0.4504250000000  0.4831760000000  0.4041710000000 1.0
C      1  0.5161840000000  0.5607670000000  0.4040970000000 1.0
C      1  0.4513410000000  0.5140320000000  0.4039590000000 1.0
C      1  0.4849200000000  0.4390840000000  0.4029220000000 1.0
C      1  0.5464480000000  0.4861730000000  0.4059740000000 1.0
C      1  0.5112240000000  0.5366730000000  0.5340700000000 1.0
C      1  0.5319600000000  0.4865710000000  0.5350540000000 1.0
C      1  0.4844740000000  0.4660810000000  0.5327850000000 1.0
C      1  0.4644360000000  0.5149730000000  0.5363080000000 1.0
C      1  0.4827430000000  0.5347640000000  0.5243190000000 1.0
C      1  0.4665050000000  0.4873500000000  0.5239110000000 1.0
C      1  0.5127720000000  0.4671430000000  0.5223230000000 1.0
C      1  0.5305750000000  0.5155600000000  0.5240030000000 1.0
C      1  0.4668810000000  0.3870590000000  0.4835910000000 1.0
C      1  0.3913330000000  0.5288000000000  0.4757520000000 1.0
C      1  0.5337710000000  0.6124730000000  0.4823870000000 1.0
C      1  0.6089440000000  0.4704430000000  0.4824650000000 1.0
C      1  0.5302850000000  0.3873290000000  0.4798410000000 1.0
C      1  0.6094230000000  0.5286880000000  0.4768720000000 1.0
C      1  0.4685670000000  0.6134380000000  0.4796590000000 1.0
C      1  0.3887430000000  0.4697340000000  0.4783000000000 1.0
C      1  0.4914550000000  0.5287090000000  0.6064800000000 1.0
C      1  0.5433450000000  0.5153960000000  0.6102130000000 1.0
C      1  0.5168930000000  0.4539990000000  0.6012930000000 1.0
C      1  0.4631700000000  0.4778590000000  0.5988960000000 1.0
C      1  0.5208100000000  0.5357270000000  0.6060820000000 1.0
C      1  0.4644730000000  0.5045440000000  0.6148400000000 1.0
C      1  0.4837710000000  0.4518120000000  0.6021260000000 1.0
C      1  0.5430890000000  0.4824690000000  0.6013930000000 1.0
C      1  0.5161310000000  0.5458940000000  0.4816320000000 1.0
C      1  0.5400050000000  0.4856050000000  0.4820330000000 1.0
C      1  0.4825880000000  0.4544100000000  0.4808380000000 1.0
C      1  0.4586070000000  0.5170340000000  0.4817450000000 1.0
C      1  0.4833560000000  0.5452590000000  0.4815480000000 1.0
C      1  0.4594910000000  0.4833550000000  0.4804500000000 1.0
C      1  0.5153400000000  0.4551740000000  0.4817730000000 1.0
C      1  0.5416510000000  0.5187220000000  0.4813270000000 1.0
C      1  0.4216660000000  0.5471100000000  0.5355210000000 1.0
C      1  0.5493120000000  0.5742590000000  0.5393100000000 1.0
C      1  0.5730780000000  0.4498170000000  0.5350980000000 1.0
C      1  0.4487520000000  0.4258500000000  0.5383150000000 1.0
C      1  0.5713580000000  0.5512940000000  0.5355140000000 1.0
C      1  0.4418270000000  0.5705350000000  0.5322610000000 1.0
C      1  0.4270030000000  0.4477520000000  0.5343010000000 1.0
C      1  0.5502380000000  0.4267870000000  0.5372640000000 1.0
C      1  0.4266970000000  0.5223550000000  0.5813410000000 1.0
C      1  0.5139340000000  0.5889200000000  0.5818250000000 1.0
C      1  0.5866610000000  0.4962660000000  0.5752220000000 1.0
C      1  0.4889200000000  0.4055530000000  0.5784650000000 1.0
C      1  0.5891770000000  0.5203450000000  0.5894730000000 1.0
C      1  0.4861370000000  0.5882130000000  0.5745010000000 1.0
C      1  0.4201030000000  0.4955960000000  0.5712910000000 1.0
C      1  0.5168520000000  0.4046560000000  0.5844620000000 1.0
C      1  0.3876070000000  0.4843850000000  0.4534850000000 1.0
C      1  0.4842390000000  0.6165050000000  0.4553150000000 1.0
C      1  0.6064030000000  0.5123520000000  0.4524300000000 1.0
C      1  0.5149900000000  0.3845390000000  0.4554100000000 1.0
C      1  0.6102000000000  0.4832740000000  0.4565890000000 1.0
C      1  0.5215410000000  0.6149440000000  0.4561780000000 1.0
C      1  0.3926120000000  0.5136230000000  0.4502590000000 1.0
C      1  0.4782080000000  0.3852650000000  0.4565740000000 1.0
C      1  0.4261950000000  0.5282140000000  0.4102610000000 1.0
C      1  0.5309290000000  0.5848240000000  0.4136430000000 1.0
C      1  0.5714620000000  0.4708680000000  0.4115230000000 1.0
C      1  0.4702930000000  0.4153120000000  0.4123020000000 1.0
C      1  0.5767980000000  0.5265370000000  0.4120120000000 1.0
C      1  0.4718310000000  0.5871430000000  0.4136250000000 1.0
C      1  0.4240510000000  0.4705320000000  0.4134760000000 1.0
C      1  0.5276790000000  0.4131640000000  0.4154480000000 1.0
C      1  0.4040650000000  0.4838840000000  0.5000030000000 1.0
C      1  0.4838940000000  0.5987020000000  0.5014680000000 1.0
C      1  0.5949920000000  0.5168270000000  0.5001350000000 1.0
C      1  0.5159180000000  0.4024050000000  0.5017300000000 1.0
C      1  0.5939820000000  0.4862360000000  0.5027000000000 1.0
C      1  0.5160730000000  0.5983090000000  0.5021150000000 1.0
C      1  0.4036900000000  0.5146100000000  0.4987320000000 1.0
C      1  0.4840740000000  0.4027820000000  0.5029850000000 1.0
C      1  0.6076050000000  0.5269440000000  0.5240430000000 1.0
C      1  0.5264120000000  0.3926490000000  0.5272060000000 1.0
C      1  0.3963080000000  0.4765870000000  0.5281220000000 1.0
C      1  0.4754330000000  0.6073290000000  0.5280650000000 1.0
C      1  0.3888030000000  0.5234970000000  0.5219720000000 1.0
C      1  0.4771280000000  0.3942630000000  0.5298910000000 1.0
C      1  0.6031770000000  0.4799210000000  0.5298690000000 1.0
C      1  0.5244300000000  0.6079290000000  0.5282480000000 1.0
C      1  0.4811020000000  0.4119670000000  0.4407520000000 1.0
C      1  0.4203790000000  0.5142830000000  0.4376820000000 1.0
C      1  0.5175780000000  0.5887990000000  0.4409050000000 1.0
C      1  0.5757810000000  0.4830760000000  0.4391930000000 1.0
C      1  0.5116380000000  0.4106610000000  0.4414580000000 1.0
C      1  0.5787670000000  0.5138820000000  0.4397320000000 1.0
C      1  0.4875350000000  0.5908500000000  0.4401480000000 1.0
C      1  0.4233910000000  0.4837330000000  0.4402390000000 1.0
C      1  0.4338900000000  0.4754650000000  0.4962150000000 1.0
C      1  0.4748140000000  0.5699460000000  0.4984830000000 1.0
C      1  0.5658530000000  0.5262900000000  0.4990680000000 1.0
C      1  0.5246170000000  0.4315520000000  0.5000830000000 1.0
C      1  0.5640420000000  0.4781200000000  0.5001450000000 1.0
C      1  0.5237020000000  0.5686870000000  0.5009090000000 1.0
C      1  0.4335700000000  0.5229890000000  0.4997600000000 1.0
C      1  0.4753070000000  0.4319860000000  0.5002410000000 1.0
END
