TITL C-3577082-504-779 1.39006525175246e-06 125000 -260.975906786821 0 0 44 (S4) n - 1
REM
REM in /home/bkarasulu/work/CARBON/AIRSS/Generating-Clusters/EDIP-Nigel-Params/with-SteepDescent/Higher-Symm/SD-CG/HFTN-CG
REM
REM
REM
REM
REM
REM ./C.cell (12c818d87b63d06a65506943cc24bca4)
REM
REM compiler GCC version 9.2.1 20190827 (Red Hat 9.2.1-1)
REM options -cpp -mtune=generic -march=x86-64 -g -O0 -fpre-include=/usr/include/finclude/math-vector-fortran.h
REM seed -1940440853 -74059074 -496814242 514200677 -1070176842 -1816477952 -1062450869 751560978 -1683199566 613355833 1781597218 -2097129310 -2011555792 899485884 1199725013 1736747977 1019389713 739180926 1607900304 -1742656850 1451472820 836197432 -1179437232 -662463386 16551569 1304800196 748186889 1332954325 -452767862 200463504 -566467930 -339923608 984514358
REM
CELL 1.54180   50.00000   50.00000   50.00000   90.00000   90.00000   90.00000
LATT -1
SFAC C  
C      1  0.5095500000000  0.4689030000000  0.4341200000000 1.0
C      1  0.4341200000000  0.5310970000000  0.4904500000000 1.0
C      1  0.4904500000000  0.4689030000000  0.5658800000000 1.0
C      1  0.5658800000000  0.5310970000000  0.5095500000000 1.0
C      1  0.4728030000000  0.5304110000000  0.4480840000000 1.0
C      1  0.4480840000000  0.4695890000000  0.5271970000000 1.0
C      1  0.5271970000000  0.5304110000000  0.5519160000000 1.0
C      1  0.5519160000000  0.4695880000000  0.4728030000000 1.0
C      1  0.5463350000000  0.5511530000000  0.5088830000000 1.0
C      1  0.5088830000000  0.4488470000000  0.4536650000000 1.0
C      1  0.4536650000000  0.5511530000000  0.4911170000000 1.0
C      1  0.4911170000000  0.4488470000000  0.5463350000000 1.0
C      1  0.5114760000000  0.5041910000000  0.4642290000000 1.0
C      1  0.4642290000000  0.4958090000000  0.4885240000000 1.0
C      1  0.4885240000000  0.5041920000000  0.5357710000000 1.0
C      1  0.5357710000000  0.4958080000000  0.5114760000000 1.0
C      1  0.5180920000000  0.4506620000000  0.5328380000000 1.0
C      1  0.5328380000000  0.5493370000000  0.4819070000000 1.0
C      1  0.4819070000000  0.4506620000000  0.4671620000000 1.0
C      1  0.4671630000000  0.5493380000000  0.5180920000000 1.0
C      1  0.4626770000000  0.5178870000000  0.5275150000000 1.0
C      1  0.5275150000000  0.4821130000000  0.5373230000000 1.0
C      1  0.5373230000000  0.5178860000000  0.4724840000000 1.0
C      1  0.4724840000000  0.4821130000000  0.4626770000000 1.0
C      1  0.4764210000000  0.5490060000000  0.4706000000000 1.0
C      1  0.4706000000000  0.4509940000000  0.5235800000000 1.0
C      1  0.5235800000000  0.5490060000000  0.5294000000000 1.0
C      1  0.5294000000000  0.4509940000000  0.4764210000000 1.0
C      1  0.4834330000000  0.5189700000000  0.4949100000000 1.0
C      1  0.4949100000000  0.4810310000000  0.5165670000000 1.0
C      1  0.5165670000000  0.5189690000000  0.5050900000000 1.0
C      1  0.5050900000000  0.4810300000000  0.4834330000000 1.0
C      1  0.4753970000000  0.5036100000000  0.4388300000000 1.0
C      1  0.4388300000000  0.4963900000000  0.5246030000000 1.0
C      1  0.5246030000000  0.5036100000000  0.5611700000000 1.0
C      1  0.5611700000000  0.4963890000000  0.4753970000000 1.0
C      1  0.5635450000000  0.5035230000000  0.5043170000000 1.0
C      1  0.5043170000000  0.4964760000000  0.4364550000000 1.0
C      1  0.4364550000000  0.5035240000000  0.4956830000000 1.0
C      1  0.4956830000000  0.4964770000000  0.5635450000000 1.0
C      1  0.4968000000000  0.5571690000000  0.5144370000000 1.0
C      1  0.5144370000000  0.4428310000000  0.5032010000000 1.0
C      1  0.5032010000000  0.5571690000000  0.4855620000000 1.0
C      1  0.4855620000000  0.4428310000000  0.4968000000000 1.0
END
