TITL C-3578209-2550-20 -1.61733145828659e-05 125000 -317.928141425749 0 0 51 (C1) n - 1
REM
REM in /home/bkarasulu/work/CARBON/AIRSS/Generating-Clusters/EDIP-Nigel-Params/with-SteepDescent/Higher-Symm/SD-CG/HFTN-CG
REM
REM
REM
REM
REM
REM ./C.cell (12c818d87b63d06a65506943cc24bca4)
REM
REM compiler GCC version 9.2.1 20190827 (Red Hat 9.2.1-1)
REM options -cpp -mtune=generic -march=x86-64 -g -O0 -fpre-include=/usr/include/finclude/math-vector-fortran.h
REM seed -1963547438 1400995834 -1343856314 -1396239506 -455740333 -1762358969 -908577284 2127029801 306915866 -666448325 -449194819 374153101 224653467 2039434226 -1098041033 1567957010 -759872980 1980592306 -1958313193 -1621917330 1415305821 -315913258 -372707433 -1067673015 -26295781 1216569164 2065083278 1696758965 -1260130715 1562894496 1582406453 -1590979605 -134957293
REM
CELL 1.54180   50.00000   50.00000   50.00000   90.00000   90.00000   90.00000
LATT -1
SFAC C  
C      1  0.4527540000000  0.4682510000000  0.5265570000000 1.0
C      1  0.4482880000000  0.5164390000000  0.5293930000000 1.0
C      1  0.4769900000000  0.5544910000000  0.5334960000000 1.0
C      1  0.5241240000000  0.5455310000000  0.5293740000000 1.0
C      1  0.5564290000000  0.5096490000000  0.5294950000000 1.0
C      1  0.5386550000000  0.4656410000000  0.5249810000000 1.0
C      1  0.4952320000000  0.4443480000000  0.5245940000000 1.0
C      1  0.5171470000000  0.5404210000000  0.4467820000000 1.0
C      1  0.5322210000000  0.5136280000000  0.4466540000000 1.0
C      1  0.5219250000000  0.4844670000000  0.4447780000000 1.0
C      1  0.4952980000000  0.4682520000000  0.4401490000000 1.0
C      1  0.4700860000000  0.4851000000000  0.4437550000000 1.0
C      1  0.4701620000000  0.5149460000000  0.4499980000000 1.0
C      1  0.4865260000000  0.5410440000000  0.4474790000000 1.0
C      1  0.5012440000000  0.5567910000000  0.5162520000000 1.0
C      1  0.5447870000000  0.5325480000000  0.5143110000000 1.0
C      1  0.5568080000000  0.4853980000000  0.5117040000000 1.0
C      1  0.5209470000000  0.4469160000000  0.5091200000000 1.0
C      1  0.4725410000000  0.4549660000000  0.5088930000000 1.0
C      1  0.4402890000000  0.4921920000000  0.5130150000000 1.0
C      1  0.4546350000000  0.5430590000000  0.5169630000000 1.0
C      1  0.5218350000000  0.4796860000000  0.5437370000000 1.0
C      1  0.4978250000000  0.4632500000000  0.5496530000000 1.0
C      1  0.4692970000000  0.4793260000000  0.5509510000000 1.0
C      1  0.4704540000000  0.5086020000000  0.5460950000000 1.0
C      1  0.4864590000000  0.5309880000000  0.5581050000000 1.0
C      1  0.5156690000000  0.5285350000000  0.5507990000000 1.0
C      1  0.5334050000000  0.5045900000000  0.5559200000000 1.0
C      1  0.4535460000000  0.4722550000000  0.4657130000000 1.0
C      1  0.4507180000000  0.5195820000000  0.4713920000000 1.0
C      1  0.4785910000000  0.5586020000000  0.4715920000000 1.0
C      1  0.5271830000000  0.5561890000000  0.4709720000000 1.0
C      1  0.5532800000000  0.5152560000000  0.4683140000000 1.0
C      1  0.5361030000000  0.4707850000000  0.4667450000000 1.0
C      1  0.4942520000000  0.4477970000000  0.4635510000000 1.0
C      1  0.5031190000000  0.5652520000000  0.4874080000000 1.0
C      1  0.5483460000000  0.5393160000000  0.4852070000000 1.0
C      1  0.5492730000000  0.4904320000000  0.4833390000000 1.0
C      1  0.5171700000000  0.4542300000000  0.4806430000000 1.0
C      1  0.4687910000000  0.4502160000000  0.4792220000000 1.0
C      1  0.4474530000000  0.4942110000000  0.4843930000000 1.0
C      1  0.4604700000000  0.5413670000000  0.4876480000000 1.0
C      1  0.4698070000000  0.4754260000000  0.5821950000000 1.0
C      1  0.4723170000000  0.5008590000000  0.5942250000000 1.0
C      1  0.4869610000000  0.5241660000000  0.5882300000000 1.0
C      1  0.5137020000000  0.5212500000000  0.5966700000000 1.0
C      1  0.5294300000000  0.5002990000000  0.5862550000000 1.0
C      1  0.5175990000000  0.4754260000000  0.5921520000000 1.0
C      1  0.4963860000000  0.4604840000000  0.5810000000000 1.0
C      1  0.4953930000000  0.4550930000000  0.4149930000000 1.0
C      1  0.4965130000000  0.4441220000000  0.3918610000000 1.0
END
