TITL C-3577079-311-418 -1.80427597865221e-06 125000 -241.870994913785 0 0 41 (C3) n - 1
REM
REM in /home/bkarasulu/work/CARBON/AIRSS/Generating-Clusters/EDIP-Nigel-Params/with-SteepDescent/Higher-Symm/SD-CG/HFTN-CG
REM
REM
REM
REM
REM
REM ./C.cell (12c818d87b63d06a65506943cc24bca4)
REM
REM compiler GCC version 9.2.1 20190827 (Red Hat 9.2.1-1)
REM options -cpp -mtune=generic -march=x86-64 -g -O0 -fpre-include=/usr/include/finclude/math-vector-fortran.h
REM seed 955360588 -504811055 -1222202790 -1051813774 271484918 1968210313 751648561 -1289171422 -1297976868 -501045859 1988933661 1649197135 1329350711 -870904480 1004626943 -1424151712 -1225899 440023044 -1647387243 1614980975 -1697511753 -471685057 2140323527 -286038449 642452669 1253884673 -1903519475 -170295541 -1063621581 -1901189302 462165017 -1047397268 -350593159
REM
CELL 1.54180   50.00000   50.00000   50.00000   90.00000   90.00000   90.00000
LATT -1
SFAC C  
C      1  0.4787910000000  0.5356260000000  0.4647280000000 1.0
C      1  0.4787810000000  0.5161160000000  0.5492440000000 1.0
C      1  0.4788220000000  0.4526780000000  0.4900900000000 1.0
C      1  0.4687690000000  0.4713130000000  0.5357150000000 1.0
C      1  0.4687790000000  0.4867870000000  0.4580540000000 1.0
C      1  0.4687410000000  0.5463070000000  0.5102860000000 1.0
C      1  0.5241870000000  0.5081870000000  0.5543250000000 1.0
C      1  0.5242280000000  0.4522820000000  0.4806800000000 1.0
C      1  0.5241900000000  0.5440130000000  0.4690870000000 1.0
C      1  0.4424700000000  0.5307780000000  0.4993830000000 1.0
C      1  0.4424820000000  0.4884970000000  0.5277200000000 1.0
C      1  0.4424950000000  0.4850970000000  0.4769350000000 1.0
C      1  0.5620960000000  0.4910670000000  0.5282170000000 1.0
C      1  0.5621100000000  0.4834850000000  0.4789060000000 1.0
C      1  0.5620860000000  0.5299800000000  0.4969950000000 1.0
C      1  0.4954960000000  0.4708800000000  0.4491410000000 1.0
C      1  0.4954440000000  0.5620020000000  0.5009650000000 1.0
C      1  0.4954730000000  0.4715610000000  0.5539670000000 1.0
C      1  0.5447900000000  0.5007130000000  0.4596660000000 1.0
C      1  0.5447590000000  0.5380140000000  0.5215360000000 1.0
C      1  0.5447910000000  0.4657820000000  0.5229040000000 1.0
C      1  0.4527250000000  0.5421540000000  0.4751490000000 1.0
C      1  0.4527250000000  0.5038060000000  0.5496880000000 1.0
C      1  0.4527610000000  0.4584270000000  0.4792080000000 1.0
C      1  0.4882270000000  0.4724110000000  0.5112810000000 1.0
C      1  0.4882200000000  0.5074160000000  0.4712210000000 1.0
C      1  0.4882010000000  0.5246060000000  0.5215660000000 1.0
C      1  0.5175270000000  0.5495250000000  0.5170950000000 1.0
C      1  0.5175610000000  0.4638490000000  0.5350960000000 1.0
C      1  0.5175670000000  0.4910980000000  0.4518980000000 1.0
C      1  0.5379680000000  0.5216330000000  0.4804380000000 1.0
C      1  0.5379620000000  0.5095580000000  0.5292680000000 1.0
C      1  0.5379860000000  0.4733080000000  0.4943960000000 1.0
C      1  0.4992610000000  0.5554940000000  0.4722860000000 1.0
C      1  0.4992660000000  0.4996540000000  0.5626700000000 1.0
C      1  0.4993090000000  0.4492990000000  0.4691190000000 1.0
C      1  0.5742160000000  0.5015160000000  0.5013750000000 1.0
C      1  0.4065100000000  0.5014410000000  0.5013380000000 1.0
C      1  0.5240420000000  0.5014940000000  0.5013640000000 1.0
C      1  0.4337710000000  0.5014540000000  0.5013440000000 1.0
C      1  0.4940670000000  0.5014800000000  0.5013570000000 1.0
END
