TITL C-3577089-586-256 0.107962723111408 125000 -74.0099116549986 0 0 14 (C3v) n - 1
REM
REM in /home/bkarasulu/work/CARBON/AIRSS/Generating-Clusters/EDIP-Nigel-Params/with-SteepDescent/Higher-Symm/SD-CG/HFTN-CG
REM
REM
REM
REM
REM
REM ./C.cell (12c818d87b63d06a65506943cc24bca4)
REM
REM compiler GCC version 9.2.1 20190827 (Red Hat 9.2.1-1)
REM options -cpp -mtune=generic -march=x86-64 -g -O0 -fpre-include=/usr/include/finclude/math-vector-fortran.h
REM seed 597876074 -1935195446 1974418018 260857226 170428179 -1666454391 -1636873429 -457379626 1698083865 -1547270123 -1771067103 -273287832 -1251741311 -1070365143 594232993 542251438 -1926721409 -442388889 -407965277 -378727666 1813850848 -890131838 1276929982 -518324983 237472650 495902048 2028515781 -1989764107 1896593918 -946655125 -1206777683 -1977365641 -1950081500
REM
CELL 1.54180   50.00000   50.00000   50.00000   90.00000   90.00000   90.00000
LATT -1
SFAC C  
C      1  0.5303890000000  0.4363290000000  0.4932950000000 1.0
C      1  0.4257770000000  0.5085340000000  0.4932150000000 1.0
C      1  0.5405990000000  0.5629900000000  0.4931360000000 1.0
C      1  0.4328630000000  0.5345450000000  0.4936600000000 1.0
C      1  0.5595850000000  0.5438520000000  0.4936580000000 1.0
C      1  0.5043250000000  0.4294450000000  0.4938310000000 1.0
C      1  0.4472640000000  0.5169370000000  0.4767630000000 1.0
C      1  0.5371630000000  0.5401390000000  0.4767340000000 1.0
C      1  0.5123130000000  0.4506830000000  0.4768580000000 1.0
C      1  0.5180450000000  0.5213380000000  0.4828080000000 1.0
C      1  0.5055780000000  0.4766520000000  0.4828700000000 1.0
C      1  0.4731130000000  0.5097920000000  0.4828220000000 1.0
C      1  0.4989110000000  0.5026070000000  0.4923040000000 1.0
C      1  0.4989100000000  0.5026450000000  0.5195300000000 1.0
END
