TITL C-3578203-1966-819 9.29427092836458e-08 125000 -152.374926148404 0 0 27 (C1) n - 1
REM
REM in /home/bkarasulu/work/CARBON/AIRSS/Generating-Clusters/EDIP-Nigel-Params/with-SteepDescent/Higher-Symm/SD-CG/HFTN-CG
REM
REM
REM
REM
REM
REM ./C.cell (12c818d87b63d06a65506943cc24bca4)
REM
REM compiler GCC version 9.2.1 20190827 (Red Hat 9.2.1-1)
REM options -cpp -mtune=generic -march=x86-64 -g -O0 -fpre-include=/usr/include/finclude/math-vector-fortran.h
REM seed 753990385 -1541661977 129186277 -1580333283 2096139441 -1459718464 148582448 -1768260306 -1713355883 1446011778 -781043862 -1202469501 -1802065579 -1400866622 -1615328303 -2070622121 -1060209043 -1995828967 -1559022136 -1752430605 714652050 574149013 -752354199 710788662 -2124562714 -947286493 -674768102 -1799939904 -226474756 -1307147740 -397902472 -462138074 427773234
REM
CELL 1.54180   50.00000   50.00000   50.00000   90.00000   90.00000   90.00000
LATT -1
SFAC C  
C      1  0.4624440000000  0.5070810000000  0.5443880000000 1.0
C      1  0.4780980000000  0.5402770000000  0.4984080000000 1.0
C      1  0.5057640000000  0.4891360000000  0.4530930000000 1.0
C      1  0.5103480000000  0.4979830000000  0.5004630000000 1.0
C      1  0.4646890000000  0.5235790000000  0.4798020000000 1.0
C      1  0.5057050000000  0.4407740000000  0.5107260000000 1.0
C      1  0.5262230000000  0.4547750000000  0.5225930000000 1.0
C      1  0.4429740000000  0.5348180000000  0.5254460000000 1.0
C      1  0.4889590000000  0.5177810000000  0.5419150000000 1.0
C      1  0.5255970000000  0.5078360000000  0.4605970000000 1.0
C      1  0.5396010000000  0.4921080000000  0.5022440000000 1.0
C      1  0.4596850000000  0.5002700000000  0.4950600000000 1.0
C      1  0.5167850000000  0.5296720000000  0.4799650000000 1.0
C      1  0.5474150000000  0.4701440000000  0.5172910000000 1.0
C      1  0.5386110000000  0.5472860000000  0.4850070000000 1.0
C      1  0.5063640000000  0.5144630000000  0.5616160000000 1.0
C      1  0.5632640000000  0.5380200000000  0.4791020000000 1.0
C      1  0.4969800000000  0.4498760000000  0.4824570000000 1.0
C      1  0.5493570000000  0.4961460000000  0.4747480000000 1.0
C      1  0.4953620000000  0.4809310000000  0.4785040000000 1.0
C      1  0.4567040000000  0.4756960000000  0.4810370000000 1.0
C      1  0.4658020000000  0.4492420000000  0.4879730000000 1.0
C      1  0.4600490000000  0.5540190000000  0.5148630000000 1.0
C      1  0.4453040000000  0.5055470000000  0.5204680000000 1.0
C      1  0.4991500000000  0.5249700000000  0.5143550000000 1.0
C      1  0.4768440000000  0.4444270000000  0.5153170000000 1.0
C      1  0.5719240000000  0.5131420000000  0.4725600000000 1.0
END
