TITL C-3577086-586-83 -5.85401554071786e-07 125000 -630.964781405625 0 0 100 (C1) n - 1
REM
REM in /home/bkarasulu/work/CARBON/AIRSS/Generating-Clusters/EDIP-Nigel-Params/with-SteepDescent/Higher-Symm/SD-CG/HFTN-CG
REM
REM
REM
REM
REM
REM ./C.cell (12c818d87b63d06a65506943cc24bca4)
REM
REM compiler GCC version 9.2.1 20190827 (Red Hat 9.2.1-1)
REM options -cpp -mtune=generic -march=x86-64 -g -O0 -fpre-include=/usr/include/finclude/math-vector-fortran.h
REM seed -450236605 1608694407 1994625388 -1818393232 -106397447 665057579 1651404533 1435073450 -1048912518 1149902352 -2089423492 -1562644855 29662636 -1429163681 -1564990555 -1862204477 -961851449 24381048 1642233540 835096213 1124929487 257594754 398764102 1150856174 810457088 -1260428787 -2044586822 -436958268 -380929631 -1959262490 -1233551793 -2141318967 -1246487596
REM
CELL 1.54180   50.00000   50.00000   50.00000   90.00000   90.00000   90.00000
LATT -1
SFAC C  
C      1  0.5104040000000  0.5512720000000  0.5711590000000 1.0
C      1  0.4605700000000  0.5479920000000  0.5648190000000 1.0
C      1  0.4315630000000  0.5492630000000  0.5217350000000 1.0
C      1  0.4261980000000  0.5480110000000  0.4694120000000 1.0
C      1  0.4638800000000  0.5487260000000  0.4332950000000 1.0
C      1  0.5139430000000  0.5466980000000  0.4258170000000 1.0
C      1  0.5590590000000  0.5503450000000  0.4526950000000 1.0
C      1  0.5786160000000  0.5513790000000  0.5010210000000 1.0
C      1  0.5566700000000  0.5504070000000  0.5487170000000 1.0
C      1  0.4600840000000  0.4132900000000  0.5004560000000 1.0
C      1  0.4713450000000  0.4026900000000  0.4777220000000 1.0
C      1  0.4915020000000  0.4128270000000  0.4620450000000 1.0
C      1  0.5166740000000  0.4016940000000  0.4645030000000 1.0
C      1  0.5358820000000  0.4076880000000  0.4834590000000 1.0
C      1  0.5312410000000  0.3951550000000  0.5078930000000 1.0
C      1  0.5156530000000  0.3994170000000  0.5294420000000 1.0
C      1  0.4923210000000  0.4116760000000  0.5381480000000 1.0
C      1  0.4698090000000  0.4035380000000  0.5243960000000 1.0
C      1  0.4925630000000  0.4414890000000  0.5417650000000 1.0
C      1  0.4687660000000  0.4550990000000  0.5265610000000 1.0
C      1  0.4571350000000  0.4429070000000  0.5001850000000 1.0
C      1  0.4675740000000  0.4565640000000  0.4739990000000 1.0
C      1  0.4916970000000  0.4424170000000  0.4602680000000 1.0
C      1  0.5182820000000  0.4545390000000  0.4702210000000 1.0
C      1  0.5392910000000  0.4371570000000  0.4880520000000 1.0
C      1  0.5400500000000  0.4400450000000  0.5181750000000 1.0
C      1  0.5201930000000  0.4544520000000  0.5350930000000 1.0
C      1  0.5792550000000  0.4950070000000  0.5018730000000 1.0
C      1  0.5589910000000  0.4966140000000  0.5526240000000 1.0
C      1  0.5136560000000  0.4962260000000  0.5812490000000 1.0
C      1  0.4601830000000  0.4954360000000  0.5671570000000 1.0
C      1  0.4291570000000  0.4944350000000  0.5241800000000 1.0
C      1  0.4230250000000  0.4934550000000  0.4716520000000 1.0
C      1  0.4608280000000  0.4929280000000  0.4298040000000 1.0
C      1  0.5144320000000  0.4941170000000  0.4263300000000 1.0
C      1  0.5595700000000  0.4942060000000  0.4520320000000 1.0
C      1  0.5043990000000  0.5320740000000  0.5387120000000 1.0
C      1  0.4865420000000  0.5479590000000  0.5222220000000 1.0
C      1  0.4645280000000  0.5346040000000  0.5081270000000 1.0
C      1  0.4620000000000  0.5496320000000  0.4822980000000 1.0
C      1  0.4839160000000  0.5375930000000  0.4638100000000 1.0
C      1  0.5077930000000  0.5534790000000  0.4694630000000 1.0
C      1  0.5330270000000  0.5412990000000  0.4787050000000 1.0
C      1  0.5418280000000  0.5545620000000  0.5043210000000 1.0
C      1  0.5316980000000  0.5331550000000  0.5249160000000 1.0
C      1  0.5354260000000  0.5105020000000  0.4846480000000 1.0
C      1  0.5385520000000  0.5055590000000  0.5146260000000 1.0
C      1  0.5166860000000  0.4848550000000  0.5242830000000 1.0
C      1  0.4963400000000  0.5011860000000  0.5423620000000 1.0
C      1  0.4724550000000  0.4868180000000  0.5262550000000 1.0
C      1  0.4660490000000  0.5032420000000  0.5018790000000 1.0
C      1  0.4665030000000  0.4905520000000  0.4734110000000 1.0
C      1  0.4894020000000  0.5060490000000  0.4603640000000 1.0
C      1  0.5130090000000  0.4919310000000  0.4747270000000 1.0
C      1  0.4884390000000  0.4510230000000  0.4311740000000 1.0
C      1  0.5335190000000  0.4524990000000  0.4440600000000 1.0
C      1  0.5654490000000  0.4507420000000  0.4783940000000 1.0
C      1  0.5652640000000  0.4532910000000  0.5267220000000 1.0
C      1  0.5337340000000  0.4546370000000  0.5618220000000 1.0
C      1  0.4868600000000  0.4521720000000  0.5705850000000 1.0
C      1  0.4450330000000  0.4521210000000  0.5457990000000 1.0
C      1  0.4276560000000  0.4508570000000  0.5002930000000 1.0
C      1  0.4449680000000  0.4510720000000  0.4538490000000 1.0
C      1  0.4643970000000  0.5796140000000  0.4855810000000 1.0
C      1  0.4803390000000  0.5932660000000  0.4670590000000 1.0
C      1  0.5057960000000  0.5822680000000  0.4697120000000 1.0
C      1  0.5255200000000  0.5957480000000  0.4838230000000 1.0
C      1  0.5356970000000  0.5838230000000  0.5067740000000 1.0
C      1  0.5275460000000  0.5937320000000  0.5313520000000 1.0
C      1  0.5026250000000  0.5900080000000  0.5405670000000 1.0
C      1  0.4815680000000  0.5755930000000  0.5296130000000 1.0
C      1  0.4648160000000  0.5889790000000  0.5119060000000 1.0
C      1  0.5747410000000  0.5090180000000  0.5288520000000 1.0
C      1  0.5368350000000  0.5098290000000  0.5675110000000 1.0
C      1  0.4851320000000  0.5093020000000  0.5792710000000 1.0
C      1  0.4408390000000  0.5082640000000  0.5478420000000 1.0
C      1  0.4224220000000  0.5074580000000  0.4980450000000 1.0
C      1  0.4402560000000  0.5058770000000  0.4484040000000 1.0
C      1  0.4872510000000  0.5069450000000  0.4214730000000 1.0
C      1  0.5386160000000  0.5077290000000  0.4364200000000 1.0
C      1  0.5733200000000  0.5084330000000  0.4753470000000 1.0
C      1  0.4223070000000  0.5364600000000  0.4966330000000 1.0
C      1  0.4408010000000  0.5353780000000  0.4469920000000 1.0
C      1  0.4875480000000  0.5367870000000  0.4202530000000 1.0
C      1  0.5390080000000  0.5364310000000  0.4352880000000 1.0
C      1  0.5767790000000  0.5381610000000  0.4737750000000 1.0
C      1  0.5753180000000  0.5388660000000  0.5284520000000 1.0
C      1  0.5370110000000  0.5388100000000  0.5678570000000 1.0
C      1  0.4845320000000  0.5388590000000  0.5772520000000 1.0
C      1  0.4423110000000  0.5368000000000  0.5460420000000 1.0
C      1  0.4228010000000  0.4637630000000  0.4723500000000 1.0
C      1  0.4603850000000  0.4636770000000  0.4294170000000 1.0
C      1  0.5146920000000  0.4651700000000  0.4243380000000 1.0
C      1  0.5596580000000  0.4648070000000  0.4520680000000 1.0
C      1  0.5761980000000  0.4660930000000  0.5020110000000 1.0
C      1  0.5599230000000  0.4674950000000  0.5537170000000 1.0
C      1  0.5128290000000  0.4664850000000  0.5800690000000 1.0
C      1  0.4592500000000  0.4660230000000  0.5695610000000 1.0
C      1  0.4244660000000  0.4657010000000  0.5268820000000 1.0
C      1  0.4997580000000  0.4812860000000  0.4994810000000 1.0
END
