TITL C-3577091-527-748 -2.8955695461842e-06 125000 -775.541094660903 0 0 124 (C1) n - 1
REM
REM in /home/bkarasulu/work/CARBON/AIRSS/Generating-Clusters/EDIP-Nigel-Params/with-SteepDescent/Higher-Symm/SD-CG/HFTN-CG
REM
REM
REM
REM
REM
REM ./C.cell (12c818d87b63d06a65506943cc24bca4)
REM
REM compiler GCC version 9.2.1 20190827 (Red Hat 9.2.1-1)
REM options -cpp -mtune=generic -march=x86-64 -g -O0 -fpre-include=/usr/include/finclude/math-vector-fortran.h
REM seed -1171846944 -661600971 1704251043 -41656372 -1031861684 1953080440 -742149139 352394682 1418561436 -1108271757 -1747604471 -938777369 92378120 595609002 1933710429 -1744883508 1951666469 1679428415 1561659366 -229743357 -948221518 -1763711029 -1303621259 -1132409619 -1933152133 746291669 1515413251 324614104 -426003816 -191271858 1059945016 1400661517 1501840013
REM
CELL 1.54180   50.00000   50.00000   50.00000   90.00000   90.00000   90.00000
LATT -1
SFAC C  
C      1  0.4527750000000  0.4253720000000  0.5471360000000 1.0
C      1  0.5645040000000  0.4253030000000  0.5168750000000 1.0
C      1  0.4827620000000  0.4253610000000  0.4351910000000 1.0
C      1  0.5163500000000  0.5220500000000  0.5482130000000 1.0
C      1  0.5332590000000  0.5225370000000  0.4617150000000 1.0
C      1  0.4496140000000  0.5215290000000  0.4898160000000 1.0
C      1  0.5704830000000  0.4439470000000  0.4945950000000 1.0
C      1  0.4603500000000  0.4437880000000  0.4411450000000 1.0
C      1  0.4689550000000  0.4440210000000  0.5634560000000 1.0
C      1  0.4980910000000  0.4427960000000  0.5669490000000 1.0
C      1  0.5590990000000  0.4429560000000  0.4675340000000 1.0
C      1  0.4427520000000  0.4425360000000  0.4646720000000 1.0
C      1  0.4421520000000  0.5029310000000  0.4483620000000 1.0
C      1  0.4842210000000  0.5034920000000  0.5753090000000 1.0
C      1  0.5730200000000  0.5035340000000  0.4755240000000 1.0
C      1  0.5691210000000  0.5303660000000  0.5189960000000 1.0
C      1  0.4816340000000  0.5303040000000  0.4302760000000 1.0
C      1  0.4488260000000  0.5307500000000  0.5500020000000 1.0
C      1  0.5685160000000  0.4399280000000  0.5426850000000 1.0
C      1  0.5029850000000  0.4401140000000  0.4187880000000 1.0
C      1  0.4283660000000  0.4398550000000  0.5377590000000 1.0
C      1  0.5903450000000  0.4969770000000  0.5453950000000 1.0
C      1  0.4944020000000  0.4973220000000  0.3987190000000 1.0
C      1  0.4152140000000  0.4974820000000  0.5550580000000 1.0
C      1  0.4232790000000  0.5528710000000  0.5050740000000 1.0
C      1  0.5436440000000  0.5525510000000  0.5634600000000 1.0
C      1  0.5325310000000  0.5537050000000  0.4312020000000 1.0
C      1  0.4646340000000  0.4064280000000  0.5285220000000 1.0
C      1  0.5423900000000  0.4064030000000  0.5160750000000 1.0
C      1  0.4931350000000  0.4064410000000  0.4546970000000 1.0
C      1  0.5498140000000  0.5705040000000  0.4899700000000 1.0
C      1  0.4657940000000  0.5702550000000  0.4609400000000 1.0
C      1  0.4844980000000  0.5709230000000  0.5478950000000 1.0
C      1  0.5748140000000  0.4707530000000  0.5361170000000 1.0
C      1  0.4940940000000  0.4708910000000  0.4166700000000 1.0
C      1  0.4307290000000  0.4708060000000  0.5465150000000 1.0
C      1  0.5072940000000  0.4848550000000  0.4414260000000 1.0
C      1  0.4454450000000  0.4846000000000  0.5225840000000 1.0
C      1  0.5467950000000  0.4846960000000  0.5354860000000 1.0
C      1  0.4568560000000  0.4931500000000  0.5801760000000 1.0
C      1  0.5910220000000  0.4929850000000  0.4966450000000 1.0
C      1  0.4516440000000  0.4926960000000  0.4221710000000 1.0
C      1  0.4876550000000  0.5329660000000  0.5801370000000 1.0
C      1  0.5754870000000  0.5329430000000  0.4701760000000 1.0
C      1  0.4362190000000  0.5323010000000  0.4489690000000 1.0
C      1  0.5057900000000  0.4899060000000  0.5901920000000 1.0
C      1  0.5750800000000  0.4902490000000  0.4493280000000 1.0
C      1  0.4184800000000  0.4894030000000  0.4596230000000 1.0
C      1  0.4553330000000  0.4637370000000  0.5012230000000 1.0
C      1  0.5233660000000  0.4638670000000  0.5376450000000 1.0
C      1  0.5210210000000  0.4639870000000  0.4605040000000 1.0
C      1  0.4702410000000  0.5118760000000  0.4091760000000 1.0
C      1  0.4363280000000  0.5123070000000  0.5705410000000 1.0
C      1  0.5931250000000  0.5119300000000  0.5193730000000 1.0
C      1  0.4097460000000  0.5151110000000  0.5309700000000 1.0
C      1  0.5724620000000  0.5146430000000  0.5623890000000 1.0
C      1  0.5177600000000  0.5153200000000  0.4061070000000 1.0
C      1  0.4597220000000  0.5490250000000  0.4414240000000 1.0
C      1  0.4698050000000  0.5499390000000  0.5632020000000 1.0
C      1  0.5699530000000  0.5493570000000  0.4942730000000 1.0
C      1  0.4215560000000  0.4363380000000  0.5090340000000 1.0
C      1  0.5470470000000  0.4365000000000  0.5630020000000 1.0
C      1  0.5312940000000  0.4368600000000  0.4271660000000 1.0
C      1  0.5425860000000  0.5019750000000  0.4847220000000 1.0
C      1  0.4652580000000  0.5014590000000  0.4702090000000 1.0
C      1  0.4915710000000  0.5018060000000  0.5443780000000 1.0
C      1  0.5208380000000  0.4060510000000  0.5347550000000 1.0
C      1  0.5200900000000  0.4061720000000  0.4639540000000 1.0
C      1  0.4592450000000  0.4059330000000  0.5005300000000 1.0
C      1  0.4165570000000  0.5360250000000  0.4715620000000 1.0
C      1  0.5170520000000  0.5364940000000  0.5858750000000 1.0
C      1  0.5652000000000  0.5369790000000  0.4421020000000 1.0
C      1  0.4869000000000  0.5901350000000  0.4590370000000 1.0
C      1  0.4735550000000  0.5910370000000  0.5296380000000 1.0
C      1  0.5421400000000  0.5892750000000  0.5108970000000 1.0
C      1  0.5202120000000  0.4243560000000  0.5572590000000 1.0
C      1  0.5397460000000  0.4245750000000  0.4531900000000 1.0
C      1  0.4400330000000  0.4241830000000  0.4887220000000 1.0
C      1  0.5033660000000  0.4401350000000  0.4705310000000 1.0
C      1  0.4730710000000  0.4400550000000  0.5115250000000 1.0
C      1  0.5236150000000  0.4401230000000  0.5172150000000 1.0
C      1  0.4519270000000  0.4678150000000  0.5668600000000 1.0
C      1  0.5818380000000  0.4677360000000  0.5076110000000 1.0
C      1  0.4658620000000  0.4675550000000  0.4246510000000 1.0
C      1  0.5181340000000  0.4803400000000  0.4871480000000 1.0
C      1  0.4797730000000  0.4801250000000  0.4902420000000 1.0
C      1  0.5016750000000  0.4802420000000  0.5218780000000 1.0
C      1  0.5132820000000  0.4636850000000  0.5801540000000 1.0
C      1  0.5628280000000  0.4639740000000  0.4478240000000 1.0
C      1  0.4235610000000  0.4632840000000  0.4712160000000 1.0
C      1  0.4459670000000  0.5922030000000  0.5256420000000 1.0
C      1  0.5551020000000  0.5915640000000  0.5356360000000 1.0
C      1  0.5027410000000  0.5935540000000  0.4363550000000 1.0
C      1  0.5308700000000  0.5043810000000  0.4312630000000 1.0
C      1  0.4247490000000  0.5038590000000  0.5070260000000 1.0
C      1  0.5439290000000  0.5039280000000  0.5612660000000 1.0
C      1  0.4651000000000  0.5113250000000  0.5320890000000 1.0
C      1  0.5452360000000  0.5112530000000  0.5138570000000 1.0
C      1  0.4891300000000  0.5113380000000  0.4536140000000 1.0
C      1  0.5402210000000  0.4616720000000  0.5732690000000 1.0
C      1  0.5433300000000  0.4621680000000  0.4280060000000 1.0
C      1  0.4160840000000  0.4615020000000  0.4979990000000 1.0
C      1  0.4806760000000  0.5537610000000  0.5072450000000 1.0
C      1  0.5161430000000  0.5537740000000  0.5128430000000 1.0
C      1  0.5023250000000  0.5542760000000  0.4797430000000 1.0
C      1  0.4084330000000  0.5083740000000  0.4802330000000 1.0
C      1  0.5286350000000  0.5088610000000  0.5886020000000 1.0
C      1  0.5619730000000  0.5093260000000  0.4306330000000 1.0
C      1  0.5294250000000  0.5644770000000  0.4686180000000 1.0
C      1  0.4573000000000  0.5633080000000  0.4886120000000 1.0
C      1  0.5129930000000  0.5639910000000  0.5419400000000 1.0
C      1  0.5192700000000  0.6057030000000  0.5064880000000 1.0
C      1  0.4894140000000  0.6078540000000  0.4814560000000 1.0
C      1  0.4922890000000  0.5966210000000  0.5074570000000 1.0
C      1  0.5062690000000  0.5267280000000  0.4709960000000 1.0
C      1  0.4713900000000  0.5261130000000  0.5082710000000 1.0
C      1  0.5215150000000  0.5262370000000  0.5202120000000 1.0
C      1  0.5086240000000  0.5406140000000  0.4179110000000 1.0
C      1  0.4243820000000  0.5404470000000  0.5326930000000 1.0
C      1  0.5668510000000  0.5399940000000  0.5488340000000 1.0
C      1  0.5369550000000  0.5803890000000  0.5539600000000 1.0
C      1  0.5272560000000  0.5815010000000  0.4425690000000 1.0
C      1  0.4360340000000  0.5803630000000  0.5026580000000 1.0
C      1  0.5000140000000  0.4420790000000  0.4997360000000 1.0
END
