TITL C-3578198-8939-109 -1.09164609295114e-06 125000 -1101.19478257628 0 0 175 (C1) n - 1
REM
REM in /home/bkarasulu/work/CARBON/AIRSS/Generating-Clusters/EDIP-Nigel-Params/with-SteepDescent/Higher-Symm/SD-CG/HFTN-CG
REM
REM
REM
REM
REM
REM ./C.cell (12c818d87b63d06a65506943cc24bca4)
REM
REM compiler GCC version 9.2.1 20190827 (Red Hat 9.2.1-1)
REM options -cpp -mtune=generic -march=x86-64 -g -O0 -fpre-include=/usr/include/finclude/math-vector-fortran.h
REM seed -1488590009 1463466619 1706405027 -1140228677 -441639797 -355408556 -453852329 164547439 322098497 188447947 -725708544 -125278367 -1495565918 -1101781009 -116033586 -181319689 -35123841 -451294649 258520440 -898293396 -1174930524 -516194471 172431104 -38489684 -1031206411 -841652316 1776240646 -2096205738 -1754755635 -1193613065 -275167675 -2093354171 -335445718
REM
CELL 1.54180   50.00000   50.00000   50.00000   90.00000   90.00000   90.00000
LATT -1
SFAC C  
C      1  0.5059280000000  0.5168380000000  0.5226550000000 1.0
C      1  0.5246580000000  0.5144780000000  0.5011380000000 1.0
C      1  0.5087770000000  0.5182560000000  0.4776430000000 1.0
C      1  0.4811100000000  0.5134700000000  0.4838650000000 1.0
C      1  0.4789810000000  0.5145270000000  0.5124940000000 1.0
C      1  0.4323590000000  0.5036700000000  0.4740460000000 1.0
C      1  0.4550720000000  0.5053020000000  0.5573360000000 1.0
C      1  0.5387620000000  0.5057040000000  0.5609740000000 1.0
C      1  0.5700850000000  0.5034230000000  0.4801650000000 1.0
C      1  0.5039490000000  0.5045050000000  0.4277500000000 1.0
C      1  0.4826650000000  0.4522240000000  0.5944680000000 1.0
C      1  0.5845120000000  0.4522840000000  0.5458930000000 1.0
C      1  0.5695640000000  0.4523290000000  0.4341230000000 1.0
C      1  0.4587070000000  0.4520580000000  0.4133800000000 1.0
C      1  0.4049100000000  0.4525900000000  0.5125430000000 1.0
C      1  0.4260390000000  0.5855000000000  0.4589580000000 1.0
C      1  0.4403580000000  0.5850500000000  0.5593740000000 1.0
C      1  0.5371410000000  0.5842990000000  0.5731350000000 1.0
C      1  0.5836920000000  0.5850330000000  0.4900200000000 1.0
C      1  0.5121370000000  0.5848110000000  0.4172850000000 1.0
C      1  0.5288060000000  0.4363290000000  0.5649490000000 1.0
C      1  0.5705560000000  0.4359680000000  0.4930030000000 1.0
C      1  0.5149980000000  0.4356740000000  0.4304510000000 1.0
C      1  0.4387600000000  0.4355600000000  0.4641700000000 1.0
C      1  0.4475400000000  0.4366310000000  0.5469680000000 1.0
C      1  0.5210220000000  0.5168630000000  0.4511430000000 1.0
C      1  0.4589030000000  0.5165130000000  0.4645360000000 1.0
C      1  0.4527450000000  0.5156910000000  0.5273800000000 1.0
C      1  0.5111780000000  0.5173210000000  0.5514460000000 1.0
C      1  0.5543120000000  0.5161840000000  0.5035140000000 1.0
C      1  0.4812390000000  0.4108120000000  0.4748580000000 1.0
C      1  0.4712990000000  0.4139190000000  0.5096280000000 1.0
C      1  0.5014200000000  0.4127030000000  0.5302670000000 1.0
C      1  0.5298620000000  0.4120530000000  0.5084300000000 1.0
C      1  0.5171920000000  0.4113810000000  0.4736610000000 1.0
C      1  0.5021550000000  0.3815750000000  0.5244730000000 1.0
C      1  0.5249620000000  0.3809620000000  0.5048230000000 1.0
C      1  0.5133080000000  0.3801990000000  0.4770980000000 1.0
C      1  0.4833460000000  0.3792030000000  0.4796040000000 1.0
C      1  0.4766960000000  0.3828450000000  0.5087520000000 1.0
C      1  0.4338170000000  0.4612630000000  0.5833810000000 1.0
C      1  0.5589610000000  0.4611540000000  0.5890290000000 1.0
C      1  0.6028410000000  0.4611100000000  0.4716680000000 1.0
C      1  0.5047210000000  0.4609800000000  0.3934770000000 1.0
C      1  0.4002980000000  0.4611200000000  0.4626540000000 1.0
C      1  0.4546260000000  0.4607970000000  0.4754830000000 1.0
C      1  0.4627500000000  0.4626320000000  0.5358370000000 1.0
C      1  0.5228680000000  0.4624070000000  0.5471350000000 1.0
C      1  0.5513320000000  0.4615380000000  0.4933190000000 1.0
C      1  0.5091830000000  0.4610270000000  0.4490590000000 1.0
C      1  0.5915100000000  0.4687090000000  0.4464130000000 1.0
C      1  0.4772570000000  0.4685770000000  0.3966820000000 1.0
C      1  0.3945840000000  0.4689450000000  0.4896880000000 1.0
C      1  0.4577670000000  0.4686340000000  0.5973870000000 1.0
C      1  0.5795150000000  0.4687480000000  0.5704930000000 1.0
C      1  0.5030730000000  0.5438470000000  0.5607420000000 1.0
C      1  0.5567380000000  0.5469600000000  0.5003630000000 1.0
C      1  0.5314430000000  0.5436590000000  0.4471360000000 1.0
C      1  0.4552670000000  0.5479490000000  0.4641410000000 1.0
C      1  0.4529930000000  0.5476860000000  0.5264330000000 1.0
C      1  0.5520390000000  0.4187550000000  0.5622600000000 1.0
C      1  0.5749420000000  0.4185460000000  0.4699580000000 1.0
C      1  0.4945210000000  0.4182720000000  0.4189660000000 1.0
C      1  0.4214710000000  0.4184240000000  0.4803070000000 1.0
C      1  0.4572490000000  0.4188960000000  0.5680940000000 1.0
C      1  0.4887910000000  0.4794780000000  0.4380360000000 1.0
C      1  0.4376910000000  0.4790660000000  0.4916050000000 1.0
C      1  0.4728780000000  0.4802930000000  0.5574280000000 1.0
C      1  0.5461650000000  0.4807330000000  0.5440500000000 1.0
C      1  0.5552110000000  0.4788860000000  0.4696490000000 1.0
C      1  0.4788390000000  0.5902980000000  0.5206880000000 1.0
C      1  0.5114290000000  0.5910960000000  0.5256500000000 1.0
C      1  0.5285390000000  0.5908270000000  0.4938830000000 1.0
C      1  0.5053910000000  0.5916620000000  0.4708640000000 1.0
C      1  0.4726930000000  0.5921530000000  0.4868970000000 1.0
C      1  0.5325360000000  0.4507500000000  0.5907080000000 1.0
C      1  0.5960690000000  0.4506420000000  0.4972120000000 1.0
C      1  0.5270300000000  0.4504670000000  0.4075970000000 1.0
C      1  0.4206480000000  0.4504460000000  0.4458930000000 1.0
C      1  0.4243230000000  0.4510120000000  0.5586130000000 1.0
C      1  0.5251630000000  0.5384230000000  0.6003380000000 1.0
C      1  0.6025430000000  0.5383710000000  0.5070900000000 1.0
C      1  0.5383270000000  0.5383750000000  0.4035640000000 1.0
C      1  0.4207960000000  0.5386920000000  0.4338390000000 1.0
C      1  0.4142840000000  0.5381810000000  0.5555960000000 1.0
C      1  0.5493240000000  0.5657600000000  0.4513100000000 1.0
C      1  0.4709470000000  0.5643210000000  0.4420470000000 1.0
C      1  0.4342570000000  0.5665770000000  0.5118360000000 1.0
C      1  0.4865620000000  0.5659270000000  0.5690520000000 1.0
C      1  0.5545510000000  0.5621190000000  0.5274530000000 1.0
C      1  0.5894410000000  0.4687420000000  0.5206250000000 1.0
C      1  0.5471260000000  0.4685400000000  0.4213670000000 1.0
C      1  0.4398590000000  0.4684540000000  0.4309260000000 1.0
C      1  0.4159340000000  0.4690970000000  0.5357730000000 1.0
C      1  0.5081330000000  0.4687370000000  0.5917350000000 1.0
C      1  0.5040760000000  0.4535490000000  0.4767570000000 1.0
C      1  0.4788640000000  0.4524940000000  0.4893110000000 1.0
C      1  0.4834100000000  0.4557420000000  0.5168620000000 1.0
C      1  0.5108630000000  0.4551990000000  0.5218230000000 1.0
C      1  0.5236080000000  0.4542930000000  0.4969570000000 1.0
C      1  0.6040070000000  0.5100260000000  0.4975030000000 1.0
C      1  0.5300160000000  0.5097920000000  0.3997470000000 1.0
C      1  0.4140650000000  0.5102030000000  0.4406570000000 1.0
C      1  0.4173930000000  0.5097490000000  0.5641040000000 1.0
C      1  0.5344990000000  0.5100950000000  0.5990330000000 1.0
C      1  0.4715400000000  0.4972420000000  0.3986190000000 1.0
C      1  0.3943950000000  0.4977630000000  0.4957540000000 1.0
C      1  0.4633460000000  0.4973830000000  0.6000300000000 1.0
C      1  0.5817660000000  0.4974330000000  0.5646980000000 1.0
C      1  0.5891150000000  0.4975310000000  0.4408160000000 1.0
C      1  0.4004130000000  0.4921310000000  0.5457780000000 1.0
C      1  0.5125060000000  0.4919580000000  0.6096310000000 1.0
C      1  0.6077270000000  0.4920270000000  0.5215930000000 1.0
C      1  0.5540810000000  0.4919500000000  0.4046390000000 1.0
C      1  0.4256190000000  0.4918060000000  0.4193710000000 1.0
C      1  0.4607720000000  0.4192000000000  0.4527860000000 1.0
C      1  0.4437820000000  0.4206450000000  0.5223980000000 1.0
C      1  0.5043930000000  0.4201990000000  0.5605080000000 1.0
C      1  0.5593550000000  0.4197360000000  0.5150270000000 1.0
C      1  0.5325110000000  0.4194400000000  0.4478750000000 1.0
C      1  0.5145800000000  0.5568850000000  0.4084030000000 1.0
C      1  0.4258680000000  0.5554700000000  0.4591390000000 1.0
C      1  0.4355020000000  0.5566390000000  0.5658430000000 1.0
C      1  0.5403440000000  0.5562540000000  0.5812130000000 1.0
C      1  0.5843230000000  0.5550490000000  0.4889460000000 1.0
C      1  0.5155590000000  0.6003050000000  0.4429560000000 1.0
C      1  0.4506530000000  0.6012130000000  0.4667080000000 1.0
C      1  0.4549340000000  0.6011600000000  0.5378420000000 1.0
C      1  0.5194800000000  0.5998170000000  0.5542420000000 1.0
C      1  0.5583890000000  0.5999780000000  0.4972680000000 1.0
C      1  0.5718190000000  0.5470160000000  0.5460480000000 1.0
C      1  0.5737870000000  0.5547260000000  0.4396610000000 1.0
C      1  0.4670940000000  0.5503220000000  0.4164470000000 1.0
C      1  0.4093220000000  0.5529150000000  0.5070480000000 1.0
C      1  0.4754620000000  0.5548830000000  0.5941240000000 1.0
C      1  0.6013880000000  0.5080550000000  0.5453040000000 1.0
C      1  0.5745060000000  0.5081370000000  0.4178250000000 1.0
C      1  0.4446990000000  0.5077280000000  0.4041680000000 1.0
C      1  0.3930760000000  0.5085780000000  0.5229140000000 1.0
C      1  0.4880880000000  0.5079860000000  0.6112710000000 1.0
C      1  0.4712980000000  0.5603700000000  0.4886830000000 1.0
C      1  0.4812530000000  0.5589970000000  0.5257750000000 1.0
C      1  0.5185810000000  0.5592430000000  0.5225900000000 1.0
C      1  0.5272260000000  0.5573360000000  0.4890370000000 1.0
C      1  0.4977950000000  0.5603740000000  0.4699490000000 1.0
C      1  0.4427660000000  0.5347570000000  0.4146550000000 1.0
C      1  0.4066080000000  0.5332940000000  0.5279060000000 1.0
C      1  0.4956890000000  0.5350180000000  0.6037060000000 1.0
C      1  0.5962610000000  0.5354340000000  0.5357970000000 1.0
C      1  0.5644530000000  0.5355360000000  0.4184550000000 1.0
C      1  0.4605280000000  0.4802880000000  0.4511250000000 1.0
C      1  0.4414410000000  0.4815400000000  0.5222800000000 1.0
C      1  0.5035100000000  0.4811250000000  0.5635240000000 1.0
C      1  0.5610450000000  0.4810330000000  0.5164210000000 1.0
C      1  0.5339210000000  0.4803130000000  0.4469640000000 1.0
C      1  0.3957460000000  0.5172550000000  0.4735420000000 1.0
C      1  0.4421800000000  0.5163970000000  0.5923970000000 1.0
C      1  0.5688780000000  0.5164220000000  0.5836040000000 1.0
C      1  0.6008850000000  0.5166220000000  0.4601450000000 1.0
C      1  0.4932470000000  0.5160560000000  0.3919230000000 1.0
C      1  0.5658030000000  0.4299230000000  0.5412580000000 1.0
C      1  0.5593000000000  0.4299360000000  0.4504390000000 1.0
C      1  0.4710660000000  0.4295000000000  0.4278840000000 1.0
C      1  0.4226440000000  0.4300860000000  0.5052150000000 1.0
C      1  0.4814060000000  0.4300580000000  0.5749400000000 1.0
C      1  0.5655020000000  0.5440180000000  0.5738090000000 1.0
C      1  0.5906740000000  0.5445020000000  0.4610990000000 1.0
C      1  0.4899210000000  0.5442120000000  0.3998170000000 1.0
C      1  0.4067460000000  0.5441040000000  0.4795370000000 1.0
C      1  0.4476380000000  0.5455710000000  0.5901380000000 1.0
C      1  0.5653060000000  0.5892560000000  0.5234080000000 1.0
C      1  0.5428410000000  0.5912760000000  0.4401060000000 1.0
C      1  0.4593710000000  0.5912520000000  0.4407720000000 1.0
C      1  0.4314940000000  0.5931600000000  0.5225860000000 1.0
C      1  0.4990330000000  0.5915290000000  0.5730430000000 1.0
END
