TITL C-3578200-9634-729 3.32265570109102e-07 125000 -1084.60164576863 0 0 176 (C2) n - 1
REM
REM in /home/bkarasulu/work/CARBON/AIRSS/Generating-Clusters/EDIP-Nigel-Params/with-SteepDescent/Higher-Symm/SD-CG/HFTN-CG
REM
REM
REM
REM
REM
REM ./C.cell (12c818d87b63d06a65506943cc24bca4)
REM
REM compiler GCC version 9.2.1 20190827 (Red Hat 9.2.1-1)
REM options -cpp -mtune=generic -march=x86-64 -g -O0 -fpre-include=/usr/include/finclude/math-vector-fortran.h
REM seed 1785166401 -265777389 -74500378 2020030228 2144702604 -2070119681 -1712728048 -962577014 -612641472 -1529020786 -194630577 145845725 -1589454078 -1828519908 -1204240194 2057864930 -107366551 45239526 169556773 1731558322 -1843274852 1049265001 1536683562 -682137150 87336542 493784772 -569911898 355660588 1667611864 -1418881216 -210907987 -690036468 -1824652066
REM
CELL 1.54180   50.00000   50.00000   50.00000   90.00000   90.00000   90.00000
LATT -1
SFAC C  
C      1  0.4726510000000  0.3814530000000  0.5080720000000 1.0
C      1  0.5671710000000  0.3950710000000  0.5117590000000 1.0
C      1  0.6200430000000  0.4717030000000  0.5109730000000 1.0
C      1  0.6025130000000  0.5714970000000  0.5110800000000 1.0
C      1  0.5273520000000  0.6185480000000  0.5080450000000 1.0
C      1  0.4328340000000  0.6049310000000  0.5117710000000 1.0
C      1  0.3799610000000  0.5282980000000  0.5110170000000 1.0
C      1  0.3974910000000  0.4285050000000  0.5111300000000 1.0
C      1  0.5163290000000  0.5883100000000  0.4764490000000 1.0
C      1  0.4433350000000  0.5814180000000  0.4753240000000 1.0
C      1  0.4092770000000  0.5171780000000  0.4790730000000 1.0
C      1  0.4188570000000  0.4444520000000  0.4742420000000 1.0
C      1  0.4836610000000  0.4116870000000  0.4764670000000 1.0
C      1  0.5566560000000  0.4185780000000  0.4753130000000 1.0
C      1  0.5907150000000  0.4828190000000  0.4790400000000 1.0
C      1  0.5811330000000  0.5555450000000  0.4742020000000 1.0
C      1  0.4290790000000  0.4926510000000  0.4023630000000 1.0
C      1  0.4823100000000  0.4444490000000  0.4056690000000 1.0
C      1  0.5104390000000  0.4378320000000  0.4018610000000 1.0
C      1  0.5613040000000  0.4801920000000  0.4081640000000 1.0
C      1  0.5708820000000  0.5073360000000  0.4023350000000 1.0
C      1  0.5176530000000  0.5555380000000  0.4056550000000 1.0
C      1  0.4895230000000  0.5621540000000  0.4018570000000 1.0
C      1  0.4386600000000  0.5197950000000  0.4081860000000 1.0
C      1  0.5261520000000  0.5608760000000  0.5778630000000 1.0
C      1  0.4777340000000  0.5622750000000  0.5793910000000 1.0
C      1  0.4396990000000  0.5262120000000  0.5780900000000 1.0
C      1  0.4375530000000  0.4773080000000  0.5794090000000 1.0
C      1  0.4738790000000  0.4391350000000  0.5778820000000 1.0
C      1  0.5222970000000  0.4377360000000  0.5793910000000 1.0
C      1  0.5603320000000  0.4737990000000  0.5780700000000 1.0
C      1  0.5624780000000  0.5227030000000  0.5793810000000 1.0
C      1  0.4354240000000  0.5281570000000  0.4367230000000 1.0
C      1  0.4221060000000  0.4762120000000  0.4247200000000 1.0
C      1  0.4726000000000  0.4398130000000  0.4341370000000 1.0
C      1  0.5253850000000  0.4272920000000  0.4246050000000 1.0
C      1  0.5645510000000  0.4718350000000  0.4367010000000 1.0
C      1  0.5778640000000  0.5237780000000  0.4246860000000 1.0
C      1  0.5273740000000  0.5601780000000  0.4341180000000 1.0
C      1  0.4745850000000  0.5726980000000  0.4246060000000 1.0
C      1  0.5528540000000  0.4262500000000  0.4232170000000 1.0
C      1  0.5886180000000  0.4833600000000  0.4481780000000 1.0
C      1  0.5746950000000  0.5509440000000  0.4222280000000 1.0
C      1  0.5168970000000  0.5850080000000  0.4449840000000 1.0
C      1  0.4471150000000  0.5737400000000  0.4232270000000 1.0
C      1  0.4113610000000  0.5166330000000  0.4482110000000 1.0
C      1  0.4252740000000  0.4490450000000  0.4222640000000 1.0
C      1  0.4830820000000  0.4149840000000  0.4450020000000 1.0
C      1  0.3822980000000  0.4682520000000  0.4891130000000 1.0
C      1  0.4408230000000  0.3992790000000  0.4746780000000 1.0
C      1  0.5295560000000  0.3825930000000  0.4845660000000 1.0
C      1  0.6020180000000  0.4396160000000  0.4775870000000 1.0
C      1  0.6176980000000  0.5317470000000  0.4890620000000 1.0
C      1  0.5591670000000  0.6007170000000  0.4746410000000 1.0
C      1  0.4704380000000  0.6174050000000  0.4845620000000 1.0
C      1  0.3979730000000  0.5603810000000  0.4776190000000 1.0
C      1  0.5342840000000  0.6105670000000  0.4825380000000 1.0
C      1  0.4444030000000  0.6071970000000  0.4868660000000 1.0
C      1  0.3876160000000  0.5356790000000  0.4855320000000 1.0
C      1  0.3939780000000  0.4427700000000  0.4877500000000 1.0
C      1  0.4657090000000  0.3894310000000  0.4825660000000 1.0
C      1  0.5555910000000  0.3928010000000  0.4868580000000 1.0
C      1  0.6123790000000  0.4643190000000  0.4854920000000 1.0
C      1  0.6060170000000  0.5572280000000  0.4877010000000 1.0
C      1  0.4542280000000  0.5650910000000  0.5635210000000 1.0
C      1  0.4224770000000  0.5135310000000  0.5594890000000 1.0
C      1  0.4351280000000  0.4538970000000  0.5631820000000 1.0
C      1  0.4865970000000  0.4220980000000  0.5589950000000 1.0
C      1  0.5457970000000  0.4349170000000  0.5635120000000 1.0
C      1  0.5775460000000  0.4864770000000  0.5594600000000 1.0
C      1  0.5648970000000  0.5461110000000  0.5631510000000 1.0
C      1  0.5134260000000  0.5779100000000  0.5589800000000 1.0
C      1  0.4431260000000  0.4324390000000  0.4355530000000 1.0
C      1  0.5120980000000  0.4088360000000  0.4425420000000 1.0
C      1  0.5704850000000  0.4422080000000  0.4375840000000 1.0
C      1  0.5938220000000  0.5124180000000  0.4461300000000 1.0
C      1  0.5568480000000  0.5675530000000  0.4355210000000 1.0
C      1  0.4878790000000  0.5911560000000  0.4425350000000 1.0
C      1  0.4294910000000  0.5577840000000  0.4376030000000 1.0
C      1  0.4061570000000  0.4875750000000  0.4461690000000 1.0
C      1  0.4196740000000  0.4956240000000  0.5166990000000 1.0
C      1  0.4453160000000  0.4428910000000  0.5168800000000 1.0
C      1  0.5043140000000  0.4207530000000  0.5161240000000 1.0
C      1  0.5569330000000  0.4441700000000  0.5171460000000 1.0
C      1  0.5803330000000  0.5043780000000  0.5166670000000 1.0
C      1  0.5546910000000  0.5571110000000  0.5168510000000 1.0
C      1  0.4956920000000  0.5792490000000  0.5161150000000 1.0
C      1  0.4430740000000  0.5558330000000  0.5171610000000 1.0
C      1  0.4329740000000  0.5214870000000  0.5014550000000 1.0
C      1  0.4359420000000  0.4681410000000  0.4990270000000 1.0
C      1  0.4793480000000  0.4338970000000  0.5002340000000 1.0
C      1  0.5316520000000  0.4359020000000  0.4986980000000 1.0
C      1  0.5670270000000  0.4785130000000  0.5014310000000 1.0
C      1  0.5640580000000  0.5318590000000  0.4989980000000 1.0
C      1  0.5206520000000  0.5661030000000  0.5002170000000 1.0
C      1  0.4683480000000  0.5640970000000  0.4987020000000 1.0
C      1  0.4660640000000  0.4871400000000  0.6229810000000 1.0
C      1  0.4863770000000  0.4698660000000  0.6316370000000 1.0
C      1  0.5127710000000  0.4661170000000  0.6229690000000 1.0
C      1  0.5300810000000  0.4864550000000  0.6315180000000 1.0
C      1  0.5339840000000  0.5128760000000  0.6229660000000 1.0
C      1  0.5136750000000  0.5301520000000  0.6316280000000 1.0
C      1  0.4872770000000  0.5338990000000  0.6229700000000 1.0
C      1  0.4699710000000  0.5135620000000  0.6315280000000 1.0
C      1  0.6044360000000  0.4816530000000  0.5532770000000 1.0
C      1  0.5883100000000  0.5574250000000  0.5531950000000 1.0
C      1  0.5189430000000  0.6043140000000  0.5513780000000 1.0
C      1  0.4434690000000  0.5889440000000  0.5540970000000 1.0
C      1  0.3955850000000  0.5183540000000  0.5533160000000 1.0
C      1  0.4117110000000  0.4425820000000  0.5532370000000 1.0
C      1  0.4810770000000  0.3956930000000  0.5513990000000 1.0
C      1  0.5565530000000  0.4110630000000  0.5540870000000 1.0
C      1  0.5188400000000  0.4616260000000  0.3867510000000 1.0
C      1  0.5341220000000  0.4831470000000  0.3980610000000 1.0
C      1  0.5373410000000  0.5096810000000  0.3857220000000 1.0
C      1  0.5184340000000  0.5305960000000  0.3902730000000 1.0
C      1  0.4811150000000  0.5383590000000  0.3867530000000 1.0
C      1  0.4658380000000  0.5168390000000  0.3980720000000 1.0
C      1  0.4626140000000  0.4903040000000  0.3857380000000 1.0
C      1  0.4815230000000  0.4693890000000  0.3902840000000 1.0
C      1  0.4909110000000  0.3938200000000  0.5251880000000 1.0
C      1  0.5666630000000  0.4171300000000  0.5286280000000 1.0
C      1  0.6071320000000  0.4907750000000  0.5268560000000 1.0
C      1  0.5810240000000  0.5684490000000  0.5283720000000 1.0
C      1  0.5090990000000  0.6061840000000  0.5251700000000 1.0
C      1  0.4333480000000  0.5828740000000  0.5286430000000 1.0
C      1  0.3928790000000  0.5092290000000  0.5268970000000 1.0
C      1  0.4189880000000  0.4315550000000  0.5284130000000 1.0
C      1  0.5164260000000  0.5364170000000  0.4528240000000 1.0
C      1  0.4848680000000  0.5361470000000  0.4571920000000 1.0
C      1  0.4608860000000  0.5167390000000  0.4534170000000 1.0
C      1  0.4623990000000  0.4857320000000  0.4574050000000 1.0
C      1  0.4835550000000  0.4635760000000  0.4528350000000 1.0
C      1  0.5151150000000  0.4638470000000  0.4571910000000 1.0
C      1  0.5390960000000  0.4832550000000  0.4534040000000 1.0
C      1  0.5375840000000  0.5142620000000  0.4573880000000 1.0
C      1  0.5077250000000  0.4358720000000  0.5432360000000 1.0
C      1  0.5494600000000  0.4575080000000  0.5444780000000 1.0
C      1  0.5643950000000  0.5077330000000  0.5434430000000 1.0
C      1  0.5420560000000  0.5493140000000  0.5443420000000 1.0
C      1  0.4922920000000  0.5641330000000  0.5432310000000 1.0
C      1  0.4505580000000  0.5424980000000  0.5444920000000 1.0
C      1  0.4356220000000  0.4922730000000  0.5434700000000 1.0
C      1  0.4579620000000  0.4506920000000  0.5443650000000 1.0
C      1  0.4635470000000  0.4979700000000  0.5334980000000 1.0
C      1  0.4761600000000  0.4736440000000  0.5408160000000 1.0
C      1  0.5020430000000  0.4639490000000  0.5332320000000 1.0
C      1  0.5266850000000  0.4760760000000  0.5407170000000 1.0
C      1  0.5364670000000  0.5020340000000  0.5334830000000 1.0
C      1  0.5238560000000  0.5263610000000  0.5408030000000 1.0
C      1  0.4979700000000  0.5360560000000  0.5332280000000 1.0
C      1  0.4733310000000  0.5239300000000  0.5407240000000 1.0
C      1  0.4604560000000  0.5130170000000  0.4920450000000 1.0
C      1  0.4618590000000  0.4814630000000  0.4871020000000 1.0
C      1  0.4874520000000  0.4616920000000  0.4914840000000 1.0
C      1  0.5191750000000  0.4623970000000  0.4870100000000 1.0
C      1  0.5395410000000  0.4869820000000  0.4920320000000 1.0
C      1  0.5381360000000  0.5185350000000  0.4870840000000 1.0
C      1  0.5125440000000  0.5383070000000  0.4914740000000 1.0
C      1  0.4808200000000  0.5376010000000  0.4870120000000 1.0
C      1  0.5797570000000  0.4300890000000  0.4628090000000 1.0
C      1  0.5980350000000  0.5150150000000  0.4772390000000 1.0
C      1  0.5681610000000  0.5775230000000  0.4609650000000 1.0
C      1  0.4848920000000  0.5958120000000  0.4731800000000 1.0
C      1  0.4202280000000  0.5699060000000  0.4628310000000 1.0
C      1  0.4019560000000  0.4849820000000  0.4772800000000 1.0
C      1  0.4318230000000  0.4224720000000  0.4610020000000 1.0
C      1  0.5150970000000  0.4041840000000  0.4731870000000 1.0
C      1  0.5136750000000  0.4637310000000  0.5927660000000 1.0
C      1  0.5339230000000  0.4849180000000  0.5833300000000 1.0
C      1  0.5364270000000  0.5139560000000  0.5927430000000 1.0
C      1  0.5153570000000  0.5342850000000  0.5833700000000 1.0
C      1  0.4863620000000  0.5362820000000  0.5927670000000 1.0
C      1  0.4661100000000  0.5150930000000  0.5833420000000 1.0
C      1  0.4636090000000  0.4860560000000  0.5927590000000 1.0
C      1  0.4846760000000  0.4657260000000  0.5833810000000 1.0
END
