TITL C-3578204-4308-714 -5.60752598998564e-06 125000 -949.161802687826 0 0 153 (C1) n - 1
REM
REM in /home/bkarasulu/work/CARBON/AIRSS/Generating-Clusters/EDIP-Nigel-Params/with-SteepDescent/Higher-Symm/SD-CG/HFTN-CG
REM
REM
REM
REM
REM
REM ./C.cell (12c818d87b63d06a65506943cc24bca4)
REM
REM compiler GCC version 9.2.1 20190827 (Red Hat 9.2.1-1)
REM options -cpp -mtune=generic -march=x86-64 -g -O0 -fpre-include=/usr/include/finclude/math-vector-fortran.h
REM seed 1213460886 -769874994 -1164589288 1379479352 -1026534635 -412970479 2065076293 1141671569 1790621432 -122971283 -583034499 -1165033577 1276315533 1337485700 -189719298 -1723645946 2000661443 1235821179 -1250076727 -332724511 -1321602048 1260680802 211343460 -46122410 1611392147 -1690752108 90660982 -724895943 -1323564503 -1822694748 806542602 -872305281 918170264
REM
CELL 1.54180   50.00000   50.00000   50.00000   90.00000   90.00000   90.00000
LATT -1
SFAC C  
C      1  0.5070660000000  0.5464190000000  0.5219160000000 1.0
C      1  0.4777670000000  0.5530090000000  0.5197960000000 1.0
C      1  0.4737360000000  0.5526940000000  0.4894830000000 1.0
C      1  0.5030930000000  0.5509580000000  0.4763350000000 1.0
C      1  0.5240280000000  0.5519450000000  0.4981550000000 1.0
C      1  0.5136270000000  0.4447260000000  0.5244140000000 1.0
C      1  0.4848770000000  0.4404690000000  0.5176470000000 1.0
C      1  0.4763260000000  0.4472560000000  0.4879480000000 1.0
C      1  0.5038510000000  0.4501680000000  0.4741090000000 1.0
C      1  0.5252290000000  0.4497210000000  0.4965410000000 1.0
C      1  0.5089950000000  0.4761060000000  0.4594010000000 1.0
C      1  0.5292420000000  0.4802500000000  0.4983610000000 1.0
C      1  0.5211300000000  0.4680810000000  0.5402100000000 1.0
C      1  0.4782870000000  0.4901880000000  0.5020330000000 1.0
C      1  0.4611200000000  0.4744510000000  0.4833450000000 1.0
C      1  0.5072270000000  0.5218560000000  0.4656470000000 1.0
C      1  0.5466990000000  0.5323610000000  0.4941130000000 1.0
C      1  0.5094480000000  0.5179010000000  0.5229870000000 1.0
C      1  0.4633260000000  0.5317400000000  0.5335770000000 1.0
C      1  0.4535990000000  0.5295790000000  0.4807270000000 1.0
C      1  0.4216890000000  0.4419530000000  0.4700970000000 1.0
C      1  0.5061720000000  0.4496340000000  0.4120220000000 1.0
C      1  0.5761510000000  0.4419360000000  0.4866970000000 1.0
C      1  0.5461510000000  0.4464580000000  0.5786360000000 1.0
C      1  0.4480510000000  0.4466680000000  0.5536270000000 1.0
C      1  0.4186590000000  0.5555900000000  0.4730250000000 1.0
C      1  0.5071470000000  0.5531660000000  0.4285780000000 1.0
C      1  0.5858190000000  0.5518170000000  0.4865830000000 1.0
C      1  0.5370370000000  0.5596680000000  0.5672160000000 1.0
C      1  0.4419240000000  0.5605890000000  0.5712600000000 1.0
C      1  0.5139490000000  0.4910530000000  0.3865780000000 1.0
C      1  0.6114990000000  0.4821820000000  0.4948180000000 1.0
C      1  0.5585170000000  0.4912300000000  0.5977750000000 1.0
C      1  0.4193290000000  0.4975080000000  0.5722290000000 1.0
C      1  0.3986620000000  0.4843320000000  0.4602890000000 1.0
C      1  0.5231730000000  0.5134410000000  0.4002650000000 1.0
C      1  0.6133130000000  0.5096030000000  0.4947220000000 1.0
C      1  0.5451010000000  0.5143460000000  0.6045610000000 1.0
C      1  0.4328890000000  0.5164300000000  0.5884730000000 1.0
C      1  0.4014920000000  0.5099110000000  0.4514610000000 1.0
C      1  0.4782500000000  0.5442440000000  0.6008060000000 1.0
C      1  0.4016510000000  0.5208850000000  0.4945640000000 1.0
C      1  0.4781380000000  0.5257260000000  0.4057710000000 1.0
C      1  0.5941540000000  0.5245250000000  0.4523510000000 1.0
C      1  0.5650190000000  0.5215550000000  0.5659530000000 1.0
C      1  0.4558580000000  0.4786800000000  0.5874280000000 1.0
C      1  0.3994570000000  0.4579490000000  0.5054600000000 1.0
C      1  0.4685700000000  0.4733380000000  0.3943130000000 1.0
C      1  0.5921480000000  0.4731060000000  0.4547110000000 1.0
C      1  0.5851470000000  0.4597490000000  0.5590850000000 1.0
C      1  0.4341600000000  0.4400720000000  0.4447200000000 1.0
C      1  0.5339280000000  0.4464710000000  0.4202790000000 1.0
C      1  0.5687770000000  0.4292940000000  0.5143190000000 1.0
C      1  0.5186010000000  0.4463130000000  0.5858500000000 1.0
C      1  0.4397710000000  0.4310250000000  0.5292030000000 1.0
C      1  0.4316040000000  0.5665740000000  0.4495650000000 1.0
C      1  0.5345520000000  0.5588830000000  0.4369910000000 1.0
C      1  0.5851350000000  0.5648950000000  0.5118470000000 1.0
C      1  0.5090580000000  0.5708880000000  0.5624330000000 1.0
C      1  0.4243570000000  0.5602070000000  0.5479280000000 1.0
C      1  0.5623220000000  0.4905880000000  0.4089840000000 1.0
C      1  0.5943030000000  0.4782840000000  0.5352940000000 1.0
C      1  0.5034630000000  0.4982280000000  0.6039960000000 1.0
C      1  0.4041510000000  0.4857040000000  0.5319280000000 1.0
C      1  0.4358670000000  0.4868070000000  0.4093130000000 1.0
C      1  0.5499530000000  0.5157370000000  0.4088700000000 1.0
C      1  0.6015230000000  0.5058310000000  0.5346960000000 1.0
C      1  0.5029980000000  0.5260540000000  0.5971520000000 1.0
C      1  0.4027350000000  0.5075480000000  0.5506880000000 1.0
C      1  0.4285410000000  0.5128300000000  0.4160130000000 1.0
C      1  0.5047230000000  0.5338840000000  0.4071690000000 1.0
C      1  0.6038400000000  0.5305600000000  0.4784250000000 1.0
C      1  0.5442990000000  0.5341800000000  0.5831980000000 1.0
C      1  0.4543230000000  0.5350820000000  0.5817770000000 1.0
C      1  0.3998990000000  0.5326620000000  0.4680020000000 1.0
C      1  0.4973210000000  0.4695270000000  0.3924640000000 1.0
C      1  0.5965670000000  0.4629880000000  0.4808220000000 1.0
C      1  0.5662490000000  0.4672030000000  0.5842930000000 1.0
C      1  0.4359870000000  0.4716320000000  0.5672020000000 1.0
C      1  0.4006100000000  0.4607570000000  0.4755370000000 1.0
C      1  0.4862590000000  0.5699210000000  0.5837000000000 1.0
C      1  0.4002530000000  0.5428240000000  0.5138160000000 1.0
C      1  0.4621510000000  0.5453700000000  0.4179540000000 1.0
C      1  0.5812630000000  0.5468590000000  0.4397440000000 1.0
C      1  0.5769390000000  0.5423020000000  0.5490050000000 1.0
C      1  0.4770740000000  0.4610220000000  0.5882100000000 1.0
C      1  0.4149110000000  0.4332470000000  0.5138070000000 1.0
C      1  0.4620150000000  0.4517690000000  0.4125940000000 1.0
C      1  0.5725650000000  0.4569540000000  0.4420320000000 1.0
C      1  0.5765020000000  0.4328680000000  0.5451490000000 1.0
C      1  0.4614370000000  0.4879370000000  0.5286550000000 1.0
C      1  0.4602280000000  0.4824840000000  0.4531830000000 1.0
C      1  0.5372750000000  0.4856310000000  0.4514660000000 1.0
C      1  0.5571460000000  0.4885720000000  0.5012950000000 1.0
C      1  0.5036160000000  0.4847780000000  0.5580100000000 1.0
C      1  0.4381220000000  0.5177940000000  0.5262540000000 1.0
C      1  0.4560130000000  0.5186320000000  0.4533390000000 1.0
C      1  0.5342330000000  0.5166140000000  0.4500130000000 1.0
C      1  0.5578040000000  0.5155380000000  0.5163030000000 1.0
C      1  0.5178490000000  0.5112890000000  0.5505210000000 1.0
C      1  0.5587680000000  0.5225540000000  0.4675530000000 1.0
C      1  0.5482170000000  0.5062150000000  0.5458840000000 1.0
C      1  0.4730260000000  0.5233100000000  0.5598260000000 1.0
C      1  0.4320970000000  0.5131620000000  0.4970650000000 1.0
C      1  0.4856330000000  0.5169890000000  0.4426750000000 1.0
C      1  0.5636780000000  0.4913670000000  0.4717120000000 1.0
C      1  0.5506820000000  0.4750210000000  0.5454060000000 1.0
C      1  0.4734650000000  0.4925220000000  0.5569410000000 1.0
C      1  0.4341800000000  0.4824400000000  0.4942410000000 1.0
C      1  0.4878040000000  0.4871760000000  0.4436010000000 1.0
C      1  0.4540450000000  0.4092040000000  0.5135020000000 1.0
C      1  0.4586390000000  0.4237820000000  0.4468750000000 1.0
C      1  0.5357860000000  0.4295970000000  0.4449500000000 1.0
C      1  0.5432530000000  0.4132940000000  0.5145000000000 1.0
C      1  0.5024570000000  0.4293720000000  0.5673070000000 1.0
C      1  0.4329050000000  0.5763170000000  0.5247950000000 1.0
C      1  0.4590760000000  0.5771990000000  0.4526170000000 1.0
C      1  0.5452040000000  0.5744010000000  0.4618950000000 1.0
C      1  0.5599420000000  0.5770600000000  0.5208620000000 1.0
C      1  0.4996770000000  0.5876970000000  0.5363950000000 1.0
C      1  0.5546130000000  0.5597060000000  0.5440580000000 1.0
C      1  0.4637270000000  0.5788170000000  0.5663080000000 1.0
C      1  0.4169640000000  0.5647610000000  0.5021920000000 1.0
C      1  0.4787620000000  0.5607430000000  0.4360910000000 1.0
C      1  0.5740070000000  0.5643130000000  0.4628030000000 1.0
C      1  0.5516000000000  0.4263000000000  0.5586760000000 1.0
C      1  0.4745810000000  0.4408960000000  0.5672630000000 1.0
C      1  0.4244070000000  0.4200190000000  0.4889970000000 1.0
C      1  0.4829120000000  0.4338260000000  0.4270650000000 1.0
C      1  0.5596930000000  0.4393540000000  0.4615440000000 1.0
C      1  0.4691390000000  0.5814450000000  0.5356900000000 1.0
C      1  0.4667650000000  0.5814910000000  0.4815740000000 1.0
C      1  0.5072220000000  0.5789450000000  0.4642280000000 1.0
C      1  0.5373740000000  0.5795560000000  0.4995070000000 1.0
C      1  0.5117750000000  0.5941130000000  0.5088340000000 1.0
C      1  0.4834990000000  0.4112010000000  0.5130950000000 1.0
C      1  0.4608890000000  0.4222350000000  0.4771980000000 1.0
C      1  0.5075930000000  0.4259350000000  0.4560680000000 1.0
C      1  0.5277750000000  0.4114190000000  0.4903880000000 1.0
C      1  0.5275470000000  0.4195350000000  0.5404840000000 1.0
C      1  0.5553830000000  0.5402010000000  0.4267340000000 1.0
C      1  0.5854680000000  0.5280460000000  0.5238590000000 1.0
C      1  0.5027760000000  0.5325000000000  0.5668660000000 1.0
C      1  0.4141830000000  0.5333530000000  0.5382130000000 1.0
C      1  0.4396250000000  0.5338520000000  0.4324440000000 1.0
C      1  0.5510470000000  0.4709090000000  0.4275620000000 1.0
C      1  0.5690230000000  0.4686790000000  0.5206250000000 1.0
C      1  0.5039780000000  0.4738820000000  0.5871250000000 1.0
C      1  0.4306950000000  0.4733810000000  0.5233390000000 1.0
C      1  0.4435300000000  0.4661730000000  0.4313360000000 1.0
C      1  0.4989560000000  0.4062930000000  0.4882720000000 1.0
C      1  0.4938100000000  0.5963150000000  0.4839500000000 1.0
C      1  0.5062510000000  0.5018280000000  0.4958470000000 1.0
END
