TITL C-3577080-309-681 -8.73608363826493e-07 125000 -787.404824162491 0 0 128 (C1) n - 1
REM
REM in /home/bkarasulu/work/CARBON/AIRSS/Generating-Clusters/EDIP-Nigel-Params/with-SteepDescent/Higher-Symm/SD-CG/HFTN-CG
REM
REM
REM
REM
REM
REM ./C.cell (12c818d87b63d06a65506943cc24bca4)
REM
REM compiler GCC version 9.2.1 20190827 (Red Hat 9.2.1-1)
REM options -cpp -mtune=generic -march=x86-64 -g -O0 -fpre-include=/usr/include/finclude/math-vector-fortran.h
REM seed -955311432 1967796568 -123085317 -379577634 1728303009 -1629203769 1344076105 1844806950 919143092 1101538421 -33941347 1408925745 -1625534885 2105663993 -1590971674 1092988079 2093596839 -974623697 -1077733020 1909122506 -2043097851 1629625587 1792115213 1289031529 258305777 917689730 2008175629 1333883996 -1956438373 -1660304133 1273591189 -445617029 -273476746
REM
CELL 1.54180   50.00000   50.00000   50.00000   90.00000   90.00000   90.00000
LATT -1
SFAC C  
C      1  0.5159260000000  0.5884630000000  0.5150330000000 1.0
C      1  0.4902190000000  0.4111970000000  0.5195580000000 1.0
C      1  0.5153300000000  0.4111860000000  0.4847660000000 1.0
C      1  0.4915010000000  0.5885700000000  0.4787740000000 1.0
C      1  0.4341230000000  0.4902190000000  0.4894770000000 1.0
C      1  0.5613600000000  0.5135300000000  0.4889010000000 1.0
C      1  0.4384910000000  0.5108610000000  0.5107690000000 1.0
C      1  0.5636950000000  0.4907260000000  0.5089340000000 1.0
C      1  0.4114340000000  0.5514650000000  0.5217010000000 1.0
C      1  0.5632210000000  0.4388690000000  0.5233110000000 1.0
C      1  0.4088090000000  0.4446990000000  0.4761750000000 1.0
C      1  0.5663160000000  0.5629200000000  0.4742000000000 1.0
C      1  0.4417300000000  0.5375700000000  0.4964810000000 1.0
C      1  0.5541590000000  0.4677290000000  0.4915360000000 1.0
C      1  0.4417580000000  0.4656620000000  0.5057590000000 1.0
C      1  0.5469420000000  0.5371530000000  0.5041990000000 1.0
C      1  0.5374390000000  0.4996770000000  0.4096960000000 1.0
C      1  0.4617440000000  0.4975400000000  0.4080540000000 1.0
C      1  0.5312570000000  0.5011240000000  0.5793320000000 1.0
C      1  0.4573390000000  0.5025040000000  0.5945940000000 1.0
C      1  0.4125990000000  0.5074590000000  0.5244700000000 1.0
C      1  0.5912910000000  0.4931060000000  0.5185980000000 1.0
C      1  0.4058640000000  0.4942710000000  0.4822020000000 1.0
C      1  0.5886620000000  0.5125750000000  0.4777240000000 1.0
C      1  0.4079720000000  0.5129950000000  0.4608910000000 1.0
C      1  0.5881550000000  0.4921040000000  0.4580140000000 1.0
C      1  0.4095540000000  0.4853680000000  0.5418320000000 1.0
C      1  0.5895640000000  0.5092890000000  0.5419500000000 1.0
C      1  0.5509480000000  0.5672450000000  0.4297600000000 1.0
C      1  0.4542850000000  0.4395270000000  0.4550900000000 1.0
C      1  0.5489570000000  0.4346780000000  0.5685470000000 1.0
C      1  0.4549780000000  0.5575060000000  0.5428150000000 1.0
C      1  0.5214370000000  0.4760880000000  0.5313840000000 1.0
C      1  0.5044910000000  0.5148350000000  0.5177190000000 1.0
C      1  0.5199540000000  0.5238130000000  0.4671760000000 1.0
C      1  0.5016260000000  0.4882130000000  0.4902600000000 1.0
C      1  0.4691250000000  0.4716630000000  0.5142800000000 1.0
C      1  0.5329050000000  0.5211940000000  0.5284030000000 1.0
C      1  0.4718400000000  0.5409260000000  0.4885510000000 1.0
C      1  0.5307050000000  0.4812450000000  0.4746300000000 1.0
C      1  0.5623720000000  0.5806480000000  0.5248990000000 1.0
C      1  0.4403300000000  0.4176150000000  0.5174550000000 1.0
C      1  0.5626810000000  0.4174830000000  0.4748800000000 1.0
C      1  0.4420720000000  0.5831870000000  0.4799960000000 1.0
C      1  0.5656050000000  0.4489640000000  0.5510870000000 1.0
C      1  0.4294360000000  0.5444030000000  0.5417360000000 1.0
C      1  0.5666780000000  0.5512050000000  0.4468660000000 1.0
C      1  0.4277210000000  0.4525460000000  0.4569550000000 1.0
C      1  0.5421410000000  0.5270560000000  0.4056030000000 1.0
C      1  0.4515830000000  0.4739350000000  0.4207400000000 1.0
C      1  0.5408440000000  0.4762060000000  0.5899910000000 1.0
C      1  0.4506680000000  0.5254430000000  0.5785190000000 1.0
C      1  0.4533230000000  0.4661410000000  0.5823940000000 1.0
C      1  0.5449360000000  0.5258650000000  0.5884650000000 1.0
C      1  0.4549300000000  0.5348810000000  0.4164590000000 1.0
C      1  0.5430380000000  0.4615830000000  0.4088620000000 1.0
C      1  0.5208670000000  0.5456910000000  0.4866150000000 1.0
C      1  0.5005640000000  0.4570280000000  0.4964620000000 1.0
C      1  0.5214280000000  0.4517780000000  0.5156220000000 1.0
C      1  0.4975910000000  0.5422060000000  0.5054310000000 1.0
C      1  0.5263070000000  0.4669950000000  0.4486440000000 1.0
C      1  0.4769770000000  0.5395610000000  0.4588320000000 1.0
C      1  0.5298550000000  0.5376900000000  0.5543500000000 1.0
C      1  0.4761820000000  0.4573130000000  0.5415650000000 1.0
C      1  0.4848120000000  0.4939340000000  0.5972620000000 1.0
C      1  0.5025100000000  0.5096730000000  0.5782330000000 1.0
C      1  0.4887750000000  0.5069150000000  0.4104790000000 1.0
C      1  0.5121610000000  0.4906180000000  0.4212740000000 1.0
C      1  0.4335910000000  0.4805250000000  0.4441670000000 1.0
C      1  0.5603830000000  0.5211150000000  0.4392560000000 1.0
C      1  0.4261170000000  0.5239210000000  0.5635340000000 1.0
C      1  0.5619860000000  0.4787120000000  0.5580190000000 1.0
C      1  0.4514110000000  0.4959270000000  0.4652340000000 1.0
C      1  0.5436300000000  0.5076600000000  0.4649180000000 1.0
C      1  0.4635250000000  0.4995280000000  0.5248670000000 1.0
C      1  0.5458520000000  0.4931140000000  0.5335060000000 1.0
C      1  0.4703970000000  0.5738740000000  0.5230470000000 1.0
C      1  0.5453280000000  0.4150290000000  0.5200620000000 1.0
C      1  0.4702820000000  0.4268070000000  0.4767240000000 1.0
C      1  0.5451100000000  0.5833570000000  0.4795680000000 1.0
C      1  0.5307060000000  0.4500060000000  0.5834130000000 1.0
C      1  0.4688380000000  0.5423300000000  0.5630660000000 1.0
C      1  0.5316190000000  0.5492890000000  0.4200990000000 1.0
C      1  0.4688700000000  0.4532840000000  0.4334140000000 1.0
C      1  0.4656500000000  0.4185230000000  0.5049460000000 1.0
C      1  0.5427670000000  0.5911810000000  0.5077320000000 1.0
C      1  0.4665600000000  0.5844100000000  0.4944640000000 1.0
C      1  0.5424370000000  0.4072430000000  0.4917350000000 1.0
C      1  0.5720540000000  0.4656050000000  0.4617770000000 1.0
C      1  0.4282160000000  0.5364980000000  0.4649500000000 1.0
C      1  0.5750310000000  0.5355430000000  0.5420810000000 1.0
C      1  0.4280750000000  0.4612350000000  0.5341200000000 1.0
C      1  0.5019330000000  0.4482110000000  0.5770120000000 1.0
C      1  0.4930980000000  0.5535430000000  0.5735310000000 1.0
C      1  0.5027880000000  0.5555740000000  0.4218750000000 1.0
C      1  0.4957950000000  0.4444370000000  0.4250170000000 1.0
C      1  0.4179100000000  0.4335590000000  0.5242680000000 1.0
C      1  0.5795380000000  0.5585010000000  0.5235880000000 1.0
C      1  0.4203230000000  0.5665750000000  0.4725330000000 1.0
C      1  0.5817260000000  0.4383570000000  0.4752600000000 1.0
C      1  0.4024370000000  0.4371950000000  0.5012970000000 1.0
C      1  0.5821080000000  0.5521820000000  0.4960000000000 1.0
C      1  0.4071300000000  0.5603590000000  0.4964690000000 1.0
C      1  0.5836010000000  0.4443990000000  0.5034510000000 1.0
C      1  0.4114700000000  0.4991870000000  0.5668170000000 1.0
C      1  0.5864470000000  0.4928300000000  0.5642560000000 1.0
C      1  0.4107830000000  0.4977900000000  0.4372100000000 1.0
C      1  0.5843300000000  0.5053520000000  0.4337680000000 1.0
C      1  0.4993200000000  0.5673840000000  0.5253440000000 1.0
C      1  0.5162910000000  0.4253750000000  0.5300010000000 1.0
C      1  0.4992460000000  0.4335280000000  0.4756910000000 1.0
C      1  0.5174720000000  0.5725980000000  0.4713260000000 1.0
C      1  0.4867070000000  0.5084910000000  0.5425290000000 1.0
C      1  0.4968680000000  0.4802850000000  0.5473080000000 1.0
C      1  0.4819130000000  0.4934070000000  0.4670920000000 1.0
C      1  0.4952030000000  0.5157770000000  0.4534920000000 1.0
C      1  0.4908560000000  0.5650910000000  0.4482750000000 1.0
C      1  0.5113510000000  0.4417250000000  0.4496430000000 1.0
C      1  0.4917620000000  0.4316820000000  0.5525300000000 1.0
C      1  0.5110940000000  0.5609530000000  0.5523740000000 1.0
C      1  0.5589030000000  0.5440760000000  0.5659270000000 1.0
C      1  0.4502410000000  0.4579150000000  0.5551730000000 1.0
C      1  0.5528150000000  0.4606140000000  0.4374600000000 1.0
C      1  0.4513920000000  0.5356090000000  0.4452300000000 1.0
C      1  0.5120310000000  0.4631490000000  0.4068790000000 1.0
C      1  0.4839580000000  0.5361140000000  0.4084740000000 1.0
C      1  0.5074100000000  0.5362490000000  0.5909670000000 1.0
C      1  0.4812200000000  0.4648870000000  0.5920120000000 1.0
END
