TITL C-3577086-586-210 -3.02414894574083e-06 125000 -430.461125255077 0 0 70 (C1) n - 1
REM
REM in /home/bkarasulu/work/CARBON/AIRSS/Generating-Clusters/EDIP-Nigel-Params/with-SteepDescent/Higher-Symm/SD-CG/HFTN-CG
REM
REM
REM
REM
REM
REM ./C.cell (12c818d87b63d06a65506943cc24bca4)
REM
REM compiler GCC version 9.2.1 20190827 (Red Hat 9.2.1-1)
REM options -cpp -mtune=generic -march=x86-64 -g -O0 -fpre-include=/usr/include/finclude/math-vector-fortran.h
REM seed 2117409769 -942500486 -1250682617 1043313013 1503696724 1740860437 -1807368057 965525844 1014292396 821476002 -1674690642 1099242494 1666349467 698754697 1510915293 612573770 -1598564919 602097308 1873588045 602008670 -1054367336 -291771091 -619543066 728124414 -1284346118 -788449147 -310060547 289346228 -1364000903 1071309719 2137995858 1128654372 -326356614
REM
CELL 1.54180   50.00000   50.00000   50.00000   90.00000   90.00000   90.00000
LATT -1
SFAC C  
C      1  0.4552160000000  0.4785480000000  0.4954960000000 1.0
C      1  0.4951180000000  0.4628650000000  0.5210160000000 1.0
C      1  0.5355340000000  0.4700970000000  0.5037870000000 1.0
C      1  0.5001620000000  0.4634650000000  0.4736690000000 1.0
C      1  0.4644650000000  0.5249680000000  0.5006940000000 1.0
C      1  0.5004530000000  0.5295740000000  0.5274470000000 1.0
C      1  0.5353120000000  0.5238070000000  0.5005440000000 1.0
C      1  0.5008580000000  0.5294270000000  0.4733850000000 1.0
C      1  0.4470730000000  0.4659660000000  0.4538090000000 1.0
C      1  0.4696540000000  0.4571410000000  0.5570240000000 1.0
C      1  0.5597960000000  0.4858030000000  0.5489090000000 1.0
C      1  0.5294500000000  0.4551170000000  0.4384120000000 1.0
C      1  0.4318380000000  0.5150890000000  0.4562120000000 1.0
C      1  0.4757110000000  0.5509680000000  0.5651620000000 1.0
C      1  0.5723780000000  0.5291120000000  0.5238720000000 1.0
C      1  0.5371460000000  0.5298770000000  0.4421100000000 1.0
C      1  0.5608270000000  0.5348410000000  0.4624890000000 1.0
C      1  0.4607210000000  0.5254410000000  0.4498900000000 1.0
C      1  0.4492640000000  0.5436910000000  0.5507910000000 1.0
C      1  0.5349020000000  0.5305810000000  0.5657800000000 1.0
C      1  0.5492020000000  0.4653090000000  0.4606650000000 1.0
C      1  0.4701310000000  0.4647910000000  0.4337900000000 1.0
C      1  0.4429650000000  0.4634380000000  0.5391520000000 1.0
C      1  0.5298030000000  0.4704140000000  0.5537200000000 1.0
C      1  0.4742510000000  0.5119180000000  0.5256410000000 1.0
C      1  0.5260320000000  0.5108420000000  0.5269440000000 1.0
C      1  0.5261710000000  0.5098240000000  0.4731120000000 1.0
C      1  0.4751440000000  0.5149440000000  0.4745030000000 1.0
C      1  0.4719400000000  0.4813200000000  0.5202000000000 1.0
C      1  0.5202960000000  0.4796710000000  0.5261400000000 1.0
C      1  0.5268000000000  0.4778330000000  0.4774290000000 1.0
C      1  0.4750130000000  0.4840100000000  0.4729370000000 1.0
C      1  0.4832900000000  0.4400980000000  0.4331740000000 1.0
C      1  0.4372530000000  0.4443410000000  0.5173010000000 1.0
C      1  0.5187570000000  0.4431550000000  0.5566340000000 1.0
C      1  0.5681860000000  0.4512140000000  0.4786870000000 1.0
C      1  0.4691190000000  0.5542210000000  0.4502470000000 1.0
C      1  0.4419320000000  0.5571820000000  0.5273970000000 1.0
C      1  0.5258880000000  0.5565690000000  0.5607710000000 1.0
C      1  0.5661510000000  0.5557610000000  0.4805200000000 1.0
C      1  0.5112210000000  0.4863920000000  0.5713990000000 1.0
C      1  0.5621780000000  0.4899780000000  0.4514560000000 1.0
C      1  0.4898820000000  0.4871000000000  0.4315300000000 1.0
C      1  0.4319250000000  0.4937280000000  0.5342330000000 1.0
C      1  0.5110300000000  0.5150160000000  0.5710520000000 1.0
C      1  0.5701320000000  0.5092210000000  0.4732710000000 1.0
C      1  0.4800490000000  0.5142570000000  0.4278380000000 1.0
C      1  0.4527730000000  0.5138950000000  0.5474620000000 1.0
C      1  0.4981190000000  0.5492970000000  0.4504960000000 1.0
C      1  0.4441110000000  0.5458690000000  0.5022080000000 1.0
C      1  0.5006690000000  0.5524640000000  0.5477820000000 1.0
C      1  0.5562820000000  0.5459990000000  0.5051000000000 1.0
C      1  0.5050450000000  0.4436240000000  0.4507570000000 1.0
C      1  0.4446240000000  0.4516540000000  0.4907900000000 1.0
C      1  0.4931010000000  0.4435170000000  0.5438330000000 1.0
C      1  0.5614830000000  0.4578430000000  0.5055910000000 1.0
C      1  0.5022880000000  0.5336370000000  0.4266960000000 1.0
C      1  0.4240720000000  0.5192640000000  0.4846840000000 1.0
C      1  0.4848290000000  0.5260430000000  0.5797400000000 1.0
C      1  0.5755910000000  0.5057650000000  0.5047880000000 1.0
C      1  0.5195370000000  0.4816260000000  0.4277390000000 1.0
C      1  0.4308370000000  0.4959880000000  0.5028750000000 1.0
C      1  0.4819610000000  0.4804010000000  0.5706430000000 1.0
C      1  0.5746880000000  0.4799530000000  0.5219730000000 1.0
C      1  0.5420480000000  0.5017300000000  0.4327760000000 1.0
C      1  0.4297270000000  0.4879050000000  0.4496540000000 1.0
C      1  0.4652800000000  0.5044320000000  0.5735380000000 1.0
C      1  0.5520060000000  0.5156410000000  0.5446310000000 1.0
C      1  0.5047810000000  0.5432630000000  0.5001490000000 1.0
C      1  0.4962390000000  0.4477100000000  0.4968810000000 1.0
END
