TITL C-3578198-8939-424 -2.58447652443149e-07 125000 -60.7236670683643 0 0 12 (D(inf)h) n - 1
REM
REM in /home/bkarasulu/work/CARBON/AIRSS/Generating-Clusters/EDIP-Nigel-Params/with-SteepDescent/Higher-Symm/SD-CG/HFTN-CG
REM
REM
REM
REM
REM
REM ./C.cell (12c818d87b63d06a65506943cc24bca4)
REM
REM compiler GCC version 9.2.1 20190827 (Red Hat 9.2.1-1)
REM options -cpp -mtune=generic -march=x86-64 -g -O0 -fpre-include=/usr/include/finclude/math-vector-fortran.h
REM seed -1695038546 1556425738 -2068386586 -1441343257 159615624 737394561 -1147687139 -1744230594 678143357 -1829526178 1709890132 -1815603396 1634822675 -836907692 -3046903 -590799059 1235405216 -412305581 -639392711 -205990215 1228737419 -2085036260 245503600 -678976691 1829318035 -1737794805 -1888769201 1671861531 484183077 276771327 1584359422 -245834313 -2029410679
REM
CELL 1.54180   50.00000   50.00000   50.00000   90.00000   90.00000   90.00000
LATT -1
SFAC C  
C      1  0.4340370000000  0.4982330000000  0.5007230000000 1.0
C      1  0.4076510000000  0.4982330000000  0.5007230000000 1.0
C      1  0.5395780000000  0.4982330000000  0.5007230000000 1.0
C      1  0.3812660000000  0.4982330000000  0.5007230000000 1.0
C      1  0.5659630000000  0.4982330000000  0.5007230000000 1.0
C      1  0.5923480000000  0.4982330000000  0.5007230000000 1.0
C      1  0.6443040000000  0.4982330000000  0.5007230000000 1.0
C      1  0.6187340000000  0.4982330000000  0.5007230000000 1.0
C      1  0.4868070000000  0.4982330000000  0.5007230000000 1.0
C      1  0.4604220000000  0.4982330000000  0.5007230000000 1.0
C      1  0.3556960000000  0.4982330000000  0.5007230000000 1.0
C      1  0.5131930000000  0.4982330000000  0.5007230000000 1.0
END
