TITL C-3578199-7832-405 3.04674963806518e-07 125000 -289.300174426868 0 0 48 (S4) n - 1
REM
REM in /home/bkarasulu/work/CARBON/AIRSS/Generating-Clusters/EDIP-Nigel-Params/with-SteepDescent/Higher-Symm/SD-CG/HFTN-CG
REM
REM
REM
REM
REM
REM ./C.cell (12c818d87b63d06a65506943cc24bca4)
REM
REM compiler GCC version 9.2.1 20190827 (Red Hat 9.2.1-1)
REM options -cpp -mtune=generic -march=x86-64 -g -O0 -fpre-include=/usr/include/finclude/math-vector-fortran.h
REM seed 1421388263 -1959111950 978627167 -2138608225 -1568756939 -726674433 -1634972558 -573834574 1841920721 -1513876327 796284186 540496981 -1812538626 -1964536334 -1558031048 -8083036 908493422 -1659159947 471384515 797865265 -125304604 -372656089 568139990 504757595 -1106470835 443718763 1030669090 1754293165 1000347771 -809690963 1668818896 1811453504 1106406670
REM
CELL 1.54180   50.00000   50.00000   50.00000   90.00000   90.00000   90.00000
LATT -1
SFAC C  
C      1  0.5146280000000  0.4348440000000  0.5378200000000 1.0
C      1  0.5329130000000  0.5144910000000  0.4389430000000 1.0
C      1  0.4414940000000  0.5335630000000  0.5153580000000 1.0
C      1  0.5146300000000  0.5651520000000  0.4621720000000 1.0
C      1  0.4839000000000  0.5641130000000  0.5375150000000 1.0
C      1  0.4838610000000  0.4358920000000  0.4624930000000 1.0
C      1  0.5329380000000  0.4854990000000  0.5610410000000 1.0
C      1  0.4678650000000  0.4847780000000  0.4351620000000 1.0
C      1  0.4679010000000  0.5152320000000  0.5648540000000 1.0
C      1  0.4414760000000  0.4664550000000  0.4846710000000 1.0
C      1  0.5593200000000  0.4619980000000  0.5159580000000 1.0
C      1  0.5593240000000  0.5379840000000  0.4840130000000 1.0
C      1  0.5161090000000  0.5375080000000  0.4358850000000 1.0
C      1  0.5321100000000  0.4351490000000  0.5152190000000 1.0
C      1  0.4406900000000  0.5159820000000  0.5380080000000 1.0
C      1  0.5161290000000  0.4624870000000  0.5641070000000 1.0
C      1  0.4853930000000  0.5378260000000  0.5651580000000 1.0
C      1  0.4853490000000  0.4621780000000  0.4348490000000 1.0
C      1  0.5321230000000  0.5648410000000  0.4847650000000 1.0
C      1  0.4670620000000  0.4389560000000  0.4855120000000 1.0
C      1  0.4670880000000  0.5610540000000  0.5145040000000 1.0
C      1  0.4406660000000  0.4840370000000  0.4620210000000 1.0
C      1  0.5585100000000  0.5153340000000  0.4664320000000 1.0
C      1  0.5585210000000  0.4846470000000  0.5335400000000 1.0
C      1  0.4562180000000  0.5250470000000  0.4912970000000 1.0
C      1  0.4872240000000  0.4449060000000  0.5352620000000 1.0
C      1  0.5240310000000  0.4906130000000  0.4538920000000 1.0
C      1  0.4562150000000  0.4749670000000  0.5087240000000 1.0
C      1  0.5490020000000  0.4660290000000  0.4885910000000 1.0
C      1  0.5490180000000  0.5339550000000  0.5113850000000 1.0
C      1  0.4872240000000  0.5550980000000  0.4647440000000 1.0
C      1  0.5121480000000  0.5567700000000  0.5351060000000 1.0
C      1  0.5121120000000  0.4432270000000  0.4648880000000 1.0
C      1  0.5240570000000  0.5093790000000  0.5460960000000 1.0
C      1  0.4742880000000  0.5097670000000  0.4492880000000 1.0
C      1  0.4743100000000  0.4902410000000  0.5507250000000 1.0
C      1  0.4509970000000  0.4886110000000  0.5339750000000 1.0
C      1  0.4878620000000  0.5351100000000  0.4432320000000 1.0
C      1  0.5256900000000  0.4492770000000  0.4902300000000 1.0
C      1  0.4509840000000  0.5114050000000  0.4660490000000 1.0
C      1  0.5437760000000  0.4912790000000  0.4749490000000 1.0
C      1  0.5437910000000  0.5087070000000  0.5250290000000 1.0
C      1  0.4878780000000  0.4648930000000  0.5567740000000 1.0
C      1  0.5127950000000  0.5352570000000  0.5550930000000 1.0
C      1  0.5127570000000  0.4647390000000  0.4449010000000 1.0
C      1  0.5257110000000  0.5507140000000  0.5097570000000 1.0
C      1  0.4759510000000  0.4539020000000  0.5093890000000 1.0
C      1  0.4759610000000  0.5461060000000  0.4906230000000 1.0
END
