TITL C-3578198-8939-751 -1.97205927116059e-06 125000 -60.5904375426171 0 0 11 (Cs) n - 1
REM
REM in /home/bkarasulu/work/CARBON/AIRSS/Generating-Clusters/EDIP-Nigel-Params/with-SteepDescent/Higher-Symm/SD-CG/HFTN-CG
REM
REM
REM
REM
REM
REM ./C.cell (12c818d87b63d06a65506943cc24bca4)
REM
REM compiler GCC version 9.2.1 20190827 (Red Hat 9.2.1-1)
REM options -cpp -mtune=generic -march=x86-64 -g -O0 -fpre-include=/usr/include/finclude/math-vector-fortran.h
REM seed 1548534337 1916717358 -1409336753 889328950 325177251 -1877418830 -162998711 -1565460790 133881934 -812566546 1296056477 1864291991 818062196 -1662818101 1319158898 1403349595 773848783 -793250900 -1167741961 -119612324 1339197309 289467418 -1411477429 953896982 -596149952 -1468023706 -569923580 -708133704 -1807134068 10172386 226516462 -2048168273 1321224041
REM
CELL 1.54180   50.00000   50.00000   50.00000   90.00000   90.00000   90.00000
LATT -1
SFAC C  
C      1  0.5021520000000  0.4722830000000  0.4908810000000 1.0
C      1  0.4570770000000  0.4875630000000  0.5023190000000 1.0
C      1  0.4743300000000  0.5363470000000  0.5022360000000 1.0
C      1  0.5189780000000  0.5198560000000  0.4908010000000 1.0
C      1  0.5417540000000  0.4850660000000  0.5072960000000 1.0
C      1  0.5013700000000  0.5394990000000  0.5006130000000 1.0
C      1  0.4584280000000  0.5145240000000  0.4993980000000 1.0
C      1  0.4761200000000  0.4681070000000  0.5007340000000 1.0
C      1  0.5251430000000  0.4641840000000  0.5044010000000 1.0
C      1  0.5419630000000  0.5117400000000  0.5043200000000 1.0
C      1  0.4961070000000  0.5011780000000  0.4879880000000 1.0
END
