TITL C-3578198-8939-753 4.31060736599154e-07 125000 -99.0883269391933 0 0 18 (Cs) n - 1
REM
REM in /home/bkarasulu/work/CARBON/AIRSS/Generating-Clusters/EDIP-Nigel-Params/with-SteepDescent/Higher-Symm/SD-CG/HFTN-CG
REM
REM
REM
REM
REM
REM ./C.cell (12c818d87b63d06a65506943cc24bca4)
REM
REM compiler GCC version 9.2.1 20190827 (Red Hat 9.2.1-1)
REM options -cpp -mtune=generic -march=x86-64 -g -O0 -fpre-include=/usr/include/finclude/math-vector-fortran.h
REM seed 769024586 -971207857 -1523267620 1655849697 590788315 983741135 -1411588333 -472061356 -2092767288 -1129376292 -459632900 1142224859 626227109 -263053842 -1349297775 -273917335 1242684673 1318839554 438758005 1783863867 -2050536811 15295290 16975226 1449937766 152725502 -1125873572 1423504155 -1640468607 -154937360 -1884450381 1656034157 1922461172 417513059
REM
CELL 1.54180   50.00000   50.00000   50.00000   90.00000   90.00000   90.00000
LATT -1
SFAC C  
C      1  0.5184310000000  0.4728800000000  0.5414490000000 1.0
C      1  0.5140880000000  0.5307960000000  0.5373120000000 1.0
C      1  0.4676230000000  0.4966540000000  0.5291440000000 1.0
C      1  0.4787790000000  0.4735500000000  0.4648480000000 1.0
C      1  0.4843260000000  0.5316850000000  0.4636570000000 1.0
C      1  0.5315340000000  0.4977480000000  0.4628190000000 1.0
C      1  0.4871670000000  0.5300020000000  0.5290520000000 1.0
C      1  0.4801060000000  0.4728130000000  0.5374710000000 1.0
C      1  0.5327670000000  0.4973430000000  0.5413820000000 1.0
C      1  0.5126210000000  0.5312960000000  0.4646900000000 1.0
C      1  0.5172860000000  0.4734370000000  0.4628860000000 1.0
C      1  0.4646090000000  0.4980420000000  0.4637490000000 1.0
C      1  0.5334210000000  0.5174780000000  0.5209990000000 1.0
C      1  0.4806590000000  0.5113580000000  0.5085160000000 1.0
C      1  0.5011350000000  0.4623870000000  0.5211510000000 1.0
C      1  0.4677420000000  0.5188590000000  0.4835900000000 1.0
C      1  0.5285950000000  0.5169900000000  0.4835740000000 1.0
C      1  0.4991120000000  0.4666830000000  0.4837120000000 1.0
END
