TITL C-3578206-1180-292 1.04429976677437e-07 125000 -181.456347859393 0 0 30 (C1) n - 1
REM
REM in /home/bkarasulu/work/CARBON/AIRSS/Generating-Clusters/EDIP-Nigel-Params/with-SteepDescent/Higher-Symm/SD-CG/HFTN-CG
REM
REM
REM
REM
REM
REM ./C.cell (12c818d87b63d06a65506943cc24bca4)
REM
REM compiler GCC version 9.2.1 20190827 (Red Hat 9.2.1-1)
REM options -cpp -mtune=generic -march=x86-64 -g -O0 -fpre-include=/usr/include/finclude/math-vector-fortran.h
REM seed -768316489 -1149314167 669314213 1939613932 478540170 1218248352 -792880776 973934535 1763547661 -1637091611 -731100553 -492693890 1110338285 53215844 86153513 1178418692 -832837888 -1066424899 1832549754 1388123564 443047394 1748421452 1672311072 1365567794 -185547928 -199499163 1115555496 1532098850 527937690 1312478084 129792881 -551222601 1060782745
REM
CELL 1.54180   50.00000   50.00000   50.00000   90.00000   90.00000   90.00000
LATT -1
SFAC C  
C      1  0.4529010000000  0.4769490000000  0.5190810000000 1.0
C      1  0.5466410000000  0.4666240000000  0.5214970000000 1.0
C      1  0.5083700000000  0.5573370000000  0.5179680000000 1.0
C      1  0.5148080000000  0.5320780000000  0.4819140000000 1.0
C      1  0.4411720000000  0.4957550000000  0.4776230000000 1.0
C      1  0.5264860000000  0.4613930000000  0.4800260000000 1.0
C      1  0.5483900000000  0.5291430000000  0.5200330000000 1.0
C      1  0.4531420000000  0.5265410000000  0.5179120000000 1.0
C      1  0.5023320000000  0.4459800000000  0.5221340000000 1.0
C      1  0.5282630000000  0.5149130000000  0.5342430000000 1.0
C      1  0.4774470000000  0.5166730000000  0.5285520000000 1.0
C      1  0.5008800000000  0.4719890000000  0.5331790000000 1.0
C      1  0.5499040000000  0.5015170000000  0.4674840000000 1.0
C      1  0.4685610000000  0.5356980000000  0.4661120000000 1.0
C      1  0.4796720000000  0.4792980000000  0.4628020000000 1.0
C      1  0.4410920000000  0.5020570000000  0.5076640000000 1.0
C      1  0.5274640000000  0.4472770000000  0.5078090000000 1.0
C      1  0.5322830000000  0.5455290000000  0.5026410000000 1.0
C      1  0.5223080000000  0.5069870000000  0.4676820000000 1.0
C      1  0.4595370000000  0.5104620000000  0.4597900000000 1.0
C      1  0.5062240000000  0.4829970000000  0.4747250000000 1.0
C      1  0.5526870000000  0.4759950000000  0.4786180000000 1.0
C      1  0.4901250000000  0.5470640000000  0.4788560000000 1.0
C      1  0.4541850000000  0.4689240000000  0.4753170000000 1.0
C      1  0.5030390000000  0.5311510000000  0.5331380000000 1.0
C      1  0.4774820000000  0.4881050000000  0.5292970000000 1.0
C      1  0.5257610000000  0.4859540000000  0.5299510000000 1.0
C      1  0.4549760000000  0.4556410000000  0.5005470000000 1.0
C      1  0.5667920000000  0.4747250000000  0.5032320000000 1.0
C      1  0.4870810000000  0.5652450000000  0.5001750000000 1.0
END
