TITL C-3577085-527-186 -2.01642222569468e-07 125000 -463.509258827458 0 0 75 (C1) n - 1
REM
REM in /home/bkarasulu/work/CARBON/AIRSS/Generating-Clusters/EDIP-Nigel-Params/with-SteepDescent/Higher-Symm/SD-CG/HFTN-CG
REM
REM
REM
REM
REM
REM ./C.cell (12c818d87b63d06a65506943cc24bca4)
REM
REM compiler GCC version 9.2.1 20190827 (Red Hat 9.2.1-1)
REM options -cpp -mtune=generic -march=x86-64 -g -O0 -fpre-include=/usr/include/finclude/math-vector-fortran.h
REM seed -1634647852 -1304461380 818130625 1340651314 686044434 50539136 -321350859 1620928715 -1203484562 -1862558520 909570524 466619937 -814735275 -195890722 -1109555583 1560294188 -485974533 1410226018 139575717 1558002997 -541798628 2052100277 -951050405 541290820 162836817 315726178 1407885553 -66274018 -95413655 -1757800379 -1710245272 -1226187919 -71400596
REM
CELL 1.54180   50.00000   50.00000   50.00000   90.00000   90.00000   90.00000
LATT -1
SFAC C  
C      1  0.5264810000000  0.4426950000000  0.5210440000000 1.0
C      1  0.4725820000000  0.4348230000000  0.4782500000000 1.0
C      1  0.5279450000000  0.5566890000000  0.5166640000000 1.0
C      1  0.4661430000000  0.5769680000000  0.4785140000000 1.0
C      1  0.5132440000000  0.5731880000000  0.4970830000000 1.0
C      1  0.4849000000000  0.5697730000000  0.4984960000000 1.0
C      1  0.5144960000000  0.4214140000000  0.5026030000000 1.0
C      1  0.4857750000000  0.4223900000000  0.5030170000000 1.0
C      1  0.4881700000000  0.4482450000000  0.5496350000000 1.0
C      1  0.5134710000000  0.4448350000000  0.4465200000000 1.0
C      1  0.4887920000000  0.5507060000000  0.5465710000000 1.0
C      1  0.5114410000000  0.5515580000000  0.4521200000000 1.0
C      1  0.4426860000000  0.4349920000000  0.4901100000000 1.0
C      1  0.5550580000000  0.4376780000000  0.5110200000000 1.0
C      1  0.4409110000000  0.5691080000000  0.4911600000000 1.0
C      1  0.5570920000000  0.5619820000000  0.5092890000000 1.0
C      1  0.4279590000000  0.5516410000000  0.4733620000000 1.0
C      1  0.5758610000000  0.5482860000000  0.5249220000000 1.0
C      1  0.4339380000000  0.4559910000000  0.4722540000000 1.0
C      1  0.5746070000000  0.4513980000000  0.5256390000000 1.0
C      1  0.4826320000000  0.5271260000000  0.4877750000000 1.0
C      1  0.5208950000000  0.5282080000000  0.5069840000000 1.0
C      1  0.5018340000000  0.4598760000000  0.4859200000000 1.0
C      1  0.5174230000000  0.4701600000000  0.5097000000000 1.0
C      1  0.5644620000000  0.4776130000000  0.5271780000000 1.0
C      1  0.4544040000000  0.4749810000000  0.4761240000000 1.0
C      1  0.5653510000000  0.5223400000000  0.5270530000000 1.0
C      1  0.4452100000000  0.5282340000000  0.4755470000000 1.0
C      1  0.4445610000000  0.5565990000000  0.5189450000000 1.0
C      1  0.5565720000000  0.5553160000000  0.4797160000000 1.0
C      1  0.4453120000000  0.4440550000000  0.5194090000000 1.0
C      1  0.5537390000000  0.4441520000000  0.4815760000000 1.0
C      1  0.5065460000000  0.5110430000000  0.4747580000000 1.0
C      1  0.5093540000000  0.5148880000000  0.5307050000000 1.0
C      1  0.4972060000000  0.4829920000000  0.4675730000000 1.0
C      1  0.4964170000000  0.4888190000000  0.5238980000000 1.0
C      1  0.5452130000000  0.5135360000000  0.4527860000000 1.0
C      1  0.4542010000000  0.5142780000000  0.5467590000000 1.0
C      1  0.5442040000000  0.4845950000000  0.4531810000000 1.0
C      1  0.4547760000000  0.4853950000000  0.5482440000000 1.0
C      1  0.5475040000000  0.5148130000000  0.5035060000000 1.0
C      1  0.4342620000000  0.5125740000000  0.4976700000000 1.0
C      1  0.5455330000000  0.4846510000000  0.5040880000000 1.0
C      1  0.4505220000000  0.4895680000000  0.5009120000000 1.0
C      1  0.4734800000000  0.5601030000000  0.5229180000000 1.0
C      1  0.5285100000000  0.5667720000000  0.4717150000000 1.0
C      1  0.4731230000000  0.4350220000000  0.5268850000000 1.0
C      1  0.5252140000000  0.4351950000000  0.4744860000000 1.0
C      1  0.5863480000000  0.5121490000000  0.4762850000000 1.0
C      1  0.4084230000000  0.5122130000000  0.5336830000000 1.0
C      1  0.5849450000000  0.4848000000000  0.4773150000000 1.0
C      1  0.4123030000000  0.4850460000000  0.5291770000000 1.0
C      1  0.5239500000000  0.5243540000000  0.5570410000000 1.0
C      1  0.4724940000000  0.5258430000000  0.4387040000000 1.0
C      1  0.5263190000000  0.4738080000000  0.5615750000000 1.0
C      1  0.4741970000000  0.4745980000000  0.4362810000000 1.0
C      1  0.5530610000000  0.4855160000000  0.5537040000000 1.0
C      1  0.4483970000000  0.4838890000000  0.4489400000000 1.0
C      1  0.5529510000000  0.5152370000000  0.5534540000000 1.0
C      1  0.4479770000000  0.5142010000000  0.4493200000000 1.0
C      1  0.4834990000000  0.4779640000000  0.5494840000000 1.0
C      1  0.5168570000000  0.4753670000000  0.4443700000000 1.0
C      1  0.4804680000000  0.5241830000000  0.5572090000000 1.0
C      1  0.5172340000000  0.5220530000000  0.4491330000000 1.0
C      1  0.4394020000000  0.4744100000000  0.5251280000000 1.0
C      1  0.5579320000000  0.4739740000000  0.4779950000000 1.0
C      1  0.4336760000000  0.5257710000000  0.5253930000000 1.0
C      1  0.5599300000000  0.5243700000000  0.4767890000000 1.0
C      1  0.5179540000000  0.4465560000000  0.5501380000000 1.0
C      1  0.4836980000000  0.4458050000000  0.4482660000000 1.0
C      1  0.5185900000000  0.5550700000000  0.5464330000000 1.0
C      1  0.4819640000000  0.5472690000000  0.4602220000000 1.0
C      1  0.5028930000000  0.4947720000000  0.5693530000000 1.0
C      1  0.4927620000000  0.5035010000000  0.4296310000000 1.0
C      1  0.4763110000000  0.5006630000000  0.5051140000000 1.0
END
