TITL C-3577082-504-218 2.4544490826227e-07 125000 -449.855491614939 0 0 74 (C1) n - 1
REM
REM in /home/bkarasulu/work/CARBON/AIRSS/Generating-Clusters/EDIP-Nigel-Params/with-SteepDescent/Higher-Symm/SD-CG/HFTN-CG
REM
REM
REM
REM
REM
REM ./C.cell (12c818d87b63d06a65506943cc24bca4)
REM
REM compiler GCC version 9.2.1 20190827 (Red Hat 9.2.1-1)
REM options -cpp -mtune=generic -march=x86-64 -g -O0 -fpre-include=/usr/include/finclude/math-vector-fortran.h
REM seed 239594993 -19532190 1467972113 -329916537 -1335704783 -1839255314 247122671 1359707062 1707717363 -1006089787 827400067 1997446728 1944368812 1019429316 1812377083 -648693315 63749452 1918064942 2101232521 -1745356244 1581955197 184870010 1809265878 216716960 -941820858 630931678 -731869344 -2008467278 273186733 900512890 -67309036 -521189073 -467698489
REM
CELL 1.54180   50.00000   50.00000   50.00000   90.00000   90.00000   90.00000
LATT -1
SFAC C  
C      1  0.4955340000000  0.4898670000000  0.4430460000000 1.0
C      1  0.4524910000000  0.5351160000000  0.5274110000000 1.0
C      1  0.4765240000000  0.4788030000000  0.4207290000000 1.0
C      1  0.5641210000000  0.4703270000000  0.5467840000000 1.0
C      1  0.5582570000000  0.4438520000000  0.5311930000000 1.0
C      1  0.5638990000000  0.5537860000000  0.4872050000000 1.0
C      1  0.4679370000000  0.4330620000000  0.4699790000000 1.0
C      1  0.4311210000000  0.5289060000000  0.4602740000000 1.0
C      1  0.4902370000000  0.5500030000000  0.5454430000000 1.0
C      1  0.5412990000000  0.5487350000000  0.4687480000000 1.0
C      1  0.5015450000000  0.4885720000000  0.5780810000000 1.0
C      1  0.4936840000000  0.5019970000000  0.5098090000000 1.0
C      1  0.4976720000000  0.5580150000000  0.4498360000000 1.0
C      1  0.5067470000000  0.4525390000000  0.4635220000000 1.0
C      1  0.4695360000000  0.4587890000000  0.5532870000000 1.0
C      1  0.5371820000000  0.4671470000000  0.5620870000000 1.0
C      1  0.5272520000000  0.5009320000000  0.5786640000000 1.0
C      1  0.5105920000000  0.4562670000000  0.4927320000000 1.0
C      1  0.4868690000000  0.4695560000000  0.5087660000000 1.0
C      1  0.4948150000000  0.4591740000000  0.5368480000000 1.0
C      1  0.4276290000000  0.5227770000000  0.5371110000000 1.0
C      1  0.4773140000000  0.5151140000000  0.4887180000000 1.0
C      1  0.4325920000000  0.4940370000000  0.5483830000000 1.0
C      1  0.4691800000000  0.5067680000000  0.4140210000000 1.0
C      1  0.5145460000000  0.5786840000000  0.4882850000000 1.0
C      1  0.5101920000000  0.5684500000000  0.5327850000000 1.0
C      1  0.5627650000000  0.4908830000000  0.5248780000000 1.0
C      1  0.4545670000000  0.5589180000000  0.4830490000000 1.0
C      1  0.4526160000000  0.5143610000000  0.4466260000000 1.0
C      1  0.4949360000000  0.5193200000000  0.4171970000000 1.0
C      1  0.5270090000000  0.4822890000000  0.4379960000000 1.0
C      1  0.4541020000000  0.4566060000000  0.4596110000000 1.0
C      1  0.5451220000000  0.5022860000000  0.4495050000000 1.0
C      1  0.5518580000000  0.4927630000000  0.4767870000000 1.0
C      1  0.4210680000000  0.4816320000000  0.5226800000000 1.0
C      1  0.5632950000000  0.5205060000000  0.5290190000000 1.0
C      1  0.5782810000000  0.5029730000000  0.4849980000000 1.0
C      1  0.4840710000000  0.5570190000000  0.4776510000000 1.0
C      1  0.5410020000000  0.5649160000000  0.5363980000000 1.0
C      1  0.4739370000000  0.4337120000000  0.4988590000000 1.0
C      1  0.5103290000000  0.5550990000000  0.5062360000000 1.0
C      1  0.5354030000000  0.4367410000000  0.5505300000000 1.0
C      1  0.4920030000000  0.4292860000000  0.4554040000000 1.0
C      1  0.4697560000000  0.4977160000000  0.4648800000000 1.0
C      1  0.4516820000000  0.4397800000000  0.5429760000000 1.0
C      1  0.4123600000000  0.5092040000000  0.5119820000000 1.0
C      1  0.5512510000000  0.4626690000000  0.4763230000000 1.0
C      1  0.5069740000000  0.5321480000000  0.4396790000000 1.0
C      1  0.4426970000000  0.4695950000000  0.5062850000000 1.0
C      1  0.4634190000000  0.5566360000000  0.5412990000000 1.0
C      1  0.4545650000000  0.5326220000000  0.4977490000000 1.0
C      1  0.4973520000000  0.5204160000000  0.5438190000000 1.0
C      1  0.4568310000000  0.4629870000000  0.4324510000000 1.0
C      1  0.5342370000000  0.4839250000000  0.5166790000000 1.0
C      1  0.5329500000000  0.4572440000000  0.4529270000000 1.0
C      1  0.5230030000000  0.5702340000000  0.4624830000000 1.0
C      1  0.5349030000000  0.5295120000000  0.4476260000000 1.0
C      1  0.5093170000000  0.4327040000000  0.5360370000000 1.0
C      1  0.5567180000000  0.5676670000000  0.5117320000000 1.0
C      1  0.4360280000000  0.5568230000000  0.4621330000000 1.0
C      1  0.5797520000000  0.5306510000000  0.4894240000000 1.0
C      1  0.5160070000000  0.4803160000000  0.5427300000000 1.0
C      1  0.4423030000000  0.4747410000000  0.4780890000000 1.0
C      1  0.5225700000000  0.5048500000000  0.4999460000000 1.0
C      1  0.5118020000000  0.4284660000000  0.5068260000000 1.0
C      1  0.5332480000000  0.5318060000000  0.5086060000000 1.0
C      1  0.4818170000000  0.5036320000000  0.5632100000000 1.0
C      1  0.4518540000000  0.4439240000000  0.5152580000000 1.0
C      1  0.4615100000000  0.4867900000000  0.5508990000000 1.0
C      1  0.5452940000000  0.5362140000000  0.5454390000000 1.0
C      1  0.4235630000000  0.5142840000000  0.4850320000000 1.0
C      1  0.5847890000000  0.4856320000000  0.5060200000000 1.0
C      1  0.5236910000000  0.5210250000000  0.5580080000000 1.0
C      1  0.5466310000000  0.4452040000000  0.5022820000000 1.0
END
