TITL C-3577085-527-84 5.5170967786798e-07 125000 -603.281919117194 0 0 95 (C1) n - 1
REM
REM in /home/bkarasulu/work/CARBON/AIRSS/Generating-Clusters/EDIP-Nigel-Params/with-SteepDescent/Higher-Symm/SD-CG/HFTN-CG
REM
REM
REM
REM
REM
REM ./C.cell (12c818d87b63d06a65506943cc24bca4)
REM
REM compiler GCC version 9.2.1 20190827 (Red Hat 9.2.1-1)
REM options -cpp -mtune=generic -march=x86-64 -g -O0 -fpre-include=/usr/include/finclude/math-vector-fortran.h
REM seed -879840755 -1773116105 2022278234 611089013 1980720345 -380570169 -236094191 38014149 -1979504515 1283220592 -1394313015 -1879796570 1345835064 -211181849 1751791952 1957145297 -400000285 -1908234479 564105688 1705763588 1727654501 -1716049653 -659348518 -1310443644 169239636 1590021861 1860841897 -2063728635 -1409204242 -2073254386 -2135924060 1733284616 -1050714487
REM
CELL 1.54180   50.00000   50.00000   50.00000   90.00000   90.00000   90.00000
LATT -1
SFAC C  
C      1  0.5167780000000  0.4077950000000  0.5229720000000 1.0
C      1  0.4783770000000  0.5917230000000  0.5121760000000 1.0
C      1  0.4861170000000  0.4061770000000  0.4766540000000 1.0
C      1  0.5230380000000  0.5893280000000  0.4805680000000 1.0
C      1  0.5560500000000  0.5340390000000  0.5382150000000 1.0
C      1  0.4619340000000  0.4644850000000  0.5569580000000 1.0
C      1  0.4408540000000  0.5356110000000  0.4618650000000 1.0
C      1  0.5369130000000  0.4656310000000  0.4439380000000 1.0
C      1  0.4691590000000  0.5415160000000  0.4544500000000 1.0
C      1  0.5457090000000  0.4492490000000  0.4668200000000 1.0
C      1  0.5318800000000  0.5494860000000  0.5447180000000 1.0
C      1  0.4582800000000  0.4598690000000  0.5278050000000 1.0
C      1  0.5568200000000  0.4720340000000  0.5128730000000 1.0
C      1  0.4843660000000  0.5231390000000  0.5548180000000 1.0
C      1  0.4458010000000  0.4784710000000  0.4853430000000 1.0
C      1  0.5114330000000  0.5260600000000  0.4442730000000 1.0
C      1  0.5181400000000  0.5653950000000  0.5225680000000 1.0
C      1  0.4820780000000  0.4383330000000  0.5148690000000 1.0
C      1  0.4844760000000  0.5620670000000  0.4750330000000 1.0
C      1  0.5239340000000  0.4342560000000  0.4829570000000 1.0
C      1  0.4107430000000  0.4710680000000  0.5270760000000 1.0
C      1  0.4698540000000  0.5263240000000  0.4083110000000 1.0
C      1  0.5903150000000  0.4735760000000  0.4703420000000 1.0
C      1  0.5261730000000  0.5271330000000  0.5899860000000 1.0
C      1  0.4545930000000  0.4887690000000  0.5146440000000 1.0
C      1  0.4832220000000  0.5135090000000  0.4534760000000 1.0
C      1  0.5500260000000  0.4877880000000  0.4876800000000 1.0
C      1  0.5110180000000  0.5107410000000  0.5484920000000 1.0
C      1  0.5569750000000  0.5571260000000  0.4934380000000 1.0
C      1  0.5067940000000  0.4405360000000  0.5560210000000 1.0
C      1  0.4470510000000  0.5557110000000  0.5069660000000 1.0
C      1  0.4921910000000  0.4448420000000  0.4474240000000 1.0
C      1  0.4740890000000  0.5052300000000  0.5776670000000 1.0
C      1  0.4219270000000  0.4951560000000  0.4757930000000 1.0
C      1  0.5230860000000  0.5060300000000  0.4240680000000 1.0
C      1  0.5767020000000  0.4923280000000  0.5259620000000 1.0
C      1  0.5830740000000  0.5126250000000  0.5036330000000 1.0
C      1  0.4972490000000  0.4859710000000  0.5828860000000 1.0
C      1  0.4181540000000  0.5132290000000  0.4993380000000 1.0
C      1  0.5001020000000  0.4873040000000  0.4197230000000 1.0
C      1  0.4751370000000  0.5480610000000  0.4250940000000 1.0
C      1  0.5736700000000  0.4514780000000  0.4770360000000 1.0
C      1  0.5191780000000  0.5477780000000  0.5717320000000 1.0
C      1  0.4296860000000  0.4514530000000  0.5204320000000 1.0
C      1  0.4333890000000  0.4510040000000  0.4914010000000 1.0
C      1  0.5041920000000  0.5510890000000  0.4279260000000 1.0
C      1  0.5722400000000  0.4463090000000  0.5058070000000 1.0
C      1  0.4901100000000  0.5505620000000  0.5679030000000 1.0
C      1  0.4325120000000  0.5074120000000  0.5499190000000 1.0
C      1  0.4465930000000  0.4924000000000  0.4329540000000 1.0
C      1  0.5657500000000  0.5097870000000  0.4493840000000 1.0
C      1  0.5487400000000  0.4906690000000  0.5680060000000 1.0
C      1  0.4738340000000  0.5034970000000  0.4260460000000 1.0
C      1  0.5751520000000  0.4975540000000  0.4758250000000 1.0
C      1  0.5223270000000  0.5028270000000  0.5747240000000 1.0
C      1  0.4260440000000  0.4957260000000  0.5237170000000 1.0
C      1  0.4300290000000  0.5099860000000  0.4511880000000 1.0
C      1  0.5470730000000  0.4918350000000  0.4344240000000 1.0
C      1  0.5635290000000  0.5069410000000  0.5480040000000 1.0
C      1  0.4510210000000  0.4906020000000  0.5666030000000 1.0
C      1  0.5111600000000  0.5760670000000  0.4376550000000 1.0
C      1  0.5597600000000  0.4218740000000  0.5109080000000 1.0
C      1  0.4844160000000  0.5742750000000  0.5544860000000 1.0
C      1  0.4460840000000  0.4277720000000  0.4838920000000 1.0
C      1  0.4965930000000  0.5837950000000  0.5315770000000 1.0
C      1  0.4697600000000  0.4192060000000  0.4949680000000 1.0
C      1  0.5025780000000  0.5826640000000  0.4629690000000 1.0
C      1  0.5346850000000  0.4139200000000  0.5023470000000 1.0
C      1  0.5286410000000  0.4651210000000  0.5265360000000 1.0
C      1  0.4674170000000  0.5218180000000  0.5265750000000 1.0
C      1  0.4720880000000  0.4793430000000  0.4663690000000 1.0
C      1  0.5270890000000  0.5329280000000  0.4716610000000 1.0
C      1  0.4946530000000  0.4762670000000  0.4869010000000 1.0
C      1  0.5292420000000  0.5080200000000  0.4883720000000 1.0
C      1  0.5113250000000  0.4900310000000  0.5280150000000 1.0
C      1  0.4875390000000  0.5230540000000  0.5032020000000 1.0
C      1  0.5036550000000  0.4237480000000  0.4641420000000 1.0
C      1  0.5356720000000  0.5751190000000  0.5009550000000 1.0
C      1  0.4964390000000  0.4225940000000  0.5355360000000 1.0
C      1  0.4654290000000  0.5745870000000  0.4943760000000 1.0
C      1  0.5092460000000  0.4648780000000  0.4363670000000 1.0
C      1  0.5668640000000  0.5366400000000  0.5115580000000 1.0
C      1  0.4899540000000  0.4631660000000  0.5648820000000 1.0
C      1  0.4366790000000  0.5343920000000  0.4905730000000 1.0
C      1  0.4348920000000  0.5350460000000  0.5506580000000 1.0
C      1  0.4451210000000  0.4652090000000  0.4406870000000 1.0
C      1  0.5571670000000  0.5370290000000  0.4479400000000 1.0
C      1  0.5492790000000  0.4632920000000  0.5646450000000 1.0
C      1  0.4477220000000  0.5538270000000  0.5352590000000 1.0
C      1  0.4650260000000  0.4465430000000  0.4422980000000 1.0
C      1  0.5635440000000  0.5554830000000  0.4668640000000 1.0
C      1  0.5352880000000  0.4416190000000  0.5559580000000 1.0
C      1  0.5070690000000  0.4532680000000  0.5020930000000 1.0
C      1  0.5040230000000  0.5456350000000  0.4919140000000 1.0
C      1  0.5048170000000  0.4995740000000  0.5013420000000 1.0
END
