TITL C-3577084-3642-421 1.33433143959386e-06 125000 -606.282465666059 0 0 98 (C1) n - 1
REM
REM in /home/bkarasulu/work/CARBON/AIRSS/Generating-Clusters/EDIP-Nigel-Params/with-SteepDescent/Higher-Symm/SD-CG/HFTN-CG
REM
REM
REM
REM
REM
REM ./C.cell (12c818d87b63d06a65506943cc24bca4)
REM
REM compiler GCC version 9.2.1 20190827 (Red Hat 9.2.1-1)
REM options -cpp -mtune=generic -march=x86-64 -g -O0 -fpre-include=/usr/include/finclude/math-vector-fortran.h
REM seed 787871345 837001373 -1236642505 -1118238377 -2065453521 2066574211 -1915849660 617225687 -220869623 466883788 -1371821662 -1118725517 -861600041 57520888 -2146929423 1948514637 901895813 169426506 -141535309 1458930959 -1078208570 1144842608 1713332673 76747647 -77325276 1502598102 1794676992 1362545082 1504804791 501340858 -879904194 684747528 -357221165
REM
CELL 1.54180   50.00000   50.00000   50.00000   90.00000   90.00000   90.00000
LATT -1
SFAC C  
C      1  0.4390580000000  0.5357880000000  0.5563650000000 1.0
C      1  0.5059510000000  0.5387240000000  0.5816170000000 1.0
C      1  0.5668510000000  0.5355840000000  0.5452840000000 1.0
C      1  0.5781370000000  0.5352120000000  0.4746000000000 1.0
C      1  0.5315430000000  0.5400320000000  0.4207990000000 1.0
C      1  0.4623050000000  0.5338550000000  0.4337220000000 1.0
C      1  0.4177520000000  0.5386750000000  0.4889220000000 1.0
C      1  0.5368180000000  0.4721610000000  0.4972850000000 1.0
C      1  0.5234810000000  0.4745240000000  0.4690250000000 1.0
C      1  0.4903750000000  0.4738220000000  0.4659750000000 1.0
C      1  0.4663980000000  0.4721560000000  0.4874090000000 1.0
C      1  0.4684330000000  0.4738500000000  0.5194930000000 1.0
C      1  0.4943780000000  0.4724190000000  0.5370510000000 1.0
C      1  0.5247570000000  0.4738560000000  0.5263380000000 1.0
C      1  0.5638980000000  0.5088840000000  0.4360090000000 1.0
C      1  0.4950370000000  0.5095760000000  0.4080020000000 1.0
C      1  0.4243030000000  0.5097050000000  0.4523300000000 1.0
C      1  0.4097820000000  0.5090890000000  0.5268000000000 1.0
C      1  0.4689550000000  0.5087590000000  0.5841160000000 1.0
C      1  0.5444440000000  0.5094740000000  0.5812540000000 1.0
C      1  0.5892660000000  0.5081360000000  0.5121280000000 1.0
C      1  0.5786920000000  0.4823420000000  0.5212250000000 1.0
C      1  0.5623850000000  0.4835290000000  0.4510910000000 1.0
C      1  0.5048310000000  0.4821640000000  0.4156420000000 1.0
C      1  0.4379730000000  0.4839940000000  0.4485600000000 1.0
C      1  0.4150950000000  0.4814100000000  0.5150050000000 1.0
C      1  0.4632320000000  0.4831660000000  0.5709830000000 1.0
C      1  0.5318350000000  0.4816820000000  0.5786870000000 1.0
C      1  0.4635750000000  0.5238200000000  0.4893830000000 1.0
C      1  0.4663540000000  0.5254200000000  0.5196590000000 1.0
C      1  0.4934670000000  0.5256890000000  0.5362820000000 1.0
C      1  0.5245960000000  0.5251260000000  0.5258500000000 1.0
C      1  0.5374140000000  0.5233480000000  0.4956910000000 1.0
C      1  0.5191900000000  0.5277020000000  0.4708890000000 1.0
C      1  0.4889930000000  0.5198410000000  0.4744460000000 1.0
C      1  0.4568680000000  0.4825120000000  0.4258570000000 1.0
C      1  0.4082920000000  0.4724130000000  0.4880130000000 1.0
C      1  0.4354920000000  0.4804700000000  0.5608910000000 1.0
C      1  0.5075860000000  0.4729130000000  0.5926160000000 1.0
C      1  0.5723170000000  0.4809040000000  0.5499890000000 1.0
C      1  0.5843860000000  0.4801610000000  0.4722000000000 1.0
C      1  0.5323130000000  0.4731180000000  0.4131160000000 1.0
C      1  0.4915780000000  0.4300910000000  0.4673160000000 1.0
C      1  0.4694410000000  0.4286290000000  0.4869100000000 1.0
C      1  0.4706920000000  0.4301050000000  0.5163460000000 1.0
C      1  0.4944780000000  0.4287480000000  0.5333720000000 1.0
C      1  0.5225230000000  0.4301090000000  0.5245650000000 1.0
C      1  0.5342320000000  0.4284910000000  0.4974290000000 1.0
C      1  0.5204920000000  0.4307110000000  0.4715570000000 1.0
C      1  0.5604810000000  0.4410690000000  0.4963950000000 1.0
C      1  0.5360780000000  0.4401150000000  0.4495480000000 1.0
C      1  0.4832290000000  0.4431710000000  0.4428110000000 1.0
C      1  0.4451640000000  0.4412200000000  0.4767240000000 1.0
C      1  0.4476550000000  0.4423610000000  0.5294480000000 1.0
C      1  0.4905100000000  0.4409090000000  0.5596230000000 1.0
C      1  0.5403030000000  0.4426640000000  0.5439580000000 1.0
C      1  0.5388830000000  0.5462890000000  0.5445760000000 1.0
C      1  0.5600510000000  0.5446080000000  0.4965430000000 1.0
C      1  0.5394060000000  0.5515170000000  0.4474130000000 1.0
C      1  0.4856650000000  0.5511840000000  0.4382130000000 1.0
C      1  0.4451110000000  0.5463760000000  0.4776780000000 1.0
C      1  0.4454630000000  0.5467840000000  0.5290390000000 1.0
C      1  0.4881880000000  0.5472830000000  0.5586290000000 1.0
C      1  0.5220630000000  0.5703270000000  0.4697650000000 1.0
C      1  0.4928230000000  0.5629620000000  0.4657240000000 1.0
C      1  0.4690590000000  0.5677720000000  0.4844940000000 1.0
C      1  0.4696370000000  0.5694750000000  0.5146580000000 1.0
C      1  0.4936490000000  0.5699430000000  0.5326530000000 1.0
C      1  0.5229480000000  0.5694350000000  0.5247510000000 1.0
C      1  0.5359300000000  0.5683050000000  0.4971270000000 1.0
C      1  0.5496960000000  0.4644980000000  0.5610360000000 1.0
C      1  0.5795290000000  0.4631260000000  0.4980790000000 1.0
C      1  0.5480750000000  0.4620050000000  0.4353630000000 1.0
C      1  0.4814500000000  0.4655910000000  0.4243310000000 1.0
C      1  0.4281330000000  0.4634460000000  0.4681850000000 1.0
C      1  0.4290220000000  0.4640630000000  0.5360270000000 1.0
C      1  0.4838870000000  0.4624860000000  0.5783410000000 1.0
C      1  0.4157900000000  0.5094610000000  0.4806700000000 1.0
C      1  0.4249300000000  0.5087120000000  0.5528650000000 1.0
C      1  0.4982820000000  0.5094520000000  0.5848800000000 1.0
C      1  0.5665380000000  0.5090910000000  0.5608270000000 1.0
C      1  0.5909080000000  0.5087530000000  0.4829230000000 1.0
C      1  0.5380690000000  0.5102110000000  0.4224160000000 1.0
C      1  0.4668680000000  0.5097090000000  0.4171580000000 1.0
C      1  0.5347700000000  0.5002710000000  0.5396360000000 1.0
C      1  0.5526850000000  0.4970720000000  0.4893920000000 1.0
C      1  0.5224040000000  0.5025090000000  0.4510410000000 1.0
C      1  0.4868350000000  0.5012670000000  0.4503610000000 1.0
C      1  0.4465150000000  0.4982110000000  0.4892420000000 1.0
C      1  0.4526400000000  0.5000460000000  0.5266160000000 1.0
C      1  0.5002170000000  0.4998670000000  0.5533090000000 1.0
C      1  0.4626860000000  0.5355000000000  0.5721000000000 1.0
C      1  0.5330750000000  0.5373380000000  0.5741200000000 1.0
C      1  0.5778920000000  0.5346440000000  0.5192170000000 1.0
C      1  0.5653670000000  0.5354640000000  0.4493510000000 1.0
C      1  0.5034380000000  0.5377170000000  0.4173970000000 1.0
C      1  0.4394390000000  0.5355790000000  0.4501680000000 1.0
C      1  0.4183190000000  0.5372570000000  0.5170850000000 1.0
END
