TITL C-3577090-796-663 2.26129845392769e-07 125000 -711.923793583252 0 0 114 (C3h) n - 1
REM
REM in /home/bkarasulu/work/CARBON/AIRSS/Generating-Clusters/EDIP-Nigel-Params/with-SteepDescent/Higher-Symm/SD-CG/HFTN-CG
REM
REM
REM
REM
REM
REM ./C.cell (12c818d87b63d06a65506943cc24bca4)
REM
REM compiler GCC version 9.2.1 20190827 (Red Hat 9.2.1-1)
REM options -cpp -mtune=generic -march=x86-64 -g -O0 -fpre-include=/usr/include/finclude/math-vector-fortran.h
REM seed 36606684 -488725776 -1190441201 -66763068 1014087589 1250887997 -1232143283 -1911947532 1739974512 -1505971465 -272829475 -1914200237 1674421233 924645523 -1275953079 -212887643 -693063204 -625496570 263283421 1546940965 -1943291122 -131881138 689868865 74409851 -184959951 -1132399645 379658603 2142078320 -153386388 874574768 1765746080 1506642417 -1334838102
REM
CELL 1.54180   50.00000   50.00000   50.00000   90.00000   90.00000   90.00000
LATT -1
SFAC C  
C      1  0.4828380000000  0.4774180000000  0.5145780000000 1.0
C      1  0.5111210000000  0.4737050000000  0.5234330000000 1.0
C      1  0.5281380000000  0.4964290000000  0.5145780000000 1.0
C      1  0.5172110000000  0.5227780000000  0.5234330000000 1.0
C      1  0.4890240000000  0.5261540000000  0.5145780000000 1.0
C      1  0.4716670000000  0.5035160000000  0.5234320000000 1.0
C      1  0.4828380000000  0.4774180000000  0.4843790000000 1.0
C      1  0.5111210000000  0.4737050000000  0.4755250000000 1.0
C      1  0.5281380000000  0.4964290000000  0.4843800000000 1.0
C      1  0.5172120000000  0.5227790000000  0.4755250000000 1.0
C      1  0.4890240000000  0.5261540000000  0.4843800000000 1.0
C      1  0.4716680000000  0.5035160000000  0.4755250000000 1.0
C      1  0.4775060000000  0.5550180000000  0.4800650000000 1.0
C      1  0.4433600000000  0.5077300000000  0.4838050000000 1.0
C      1  0.4636000000000  0.4530110000000  0.4800650000000 1.0
C      1  0.5216260000000  0.4470830000000  0.4838050000000 1.0
C      1  0.5588940000000  0.4919710000000  0.4800650000000 1.0
C      1  0.5350140000000  0.5451870000000  0.4838050000000 1.0
C      1  0.4775060000000  0.5550180000000  0.5188920000000 1.0
C      1  0.4433600000000  0.5077300000000  0.5151520000000 1.0
C      1  0.4636000000000  0.4530110000000  0.5188920000000 1.0
C      1  0.5216260000000  0.4470830000000  0.5151520000000 1.0
C      1  0.5588940000000  0.4919710000000  0.5188920000000 1.0
C      1  0.5350140000000  0.5451870000000  0.5151530000000 1.0
C      1  0.5513850000000  0.4422580000000  0.4773220000000 1.0
C      1  0.5760030000000  0.5171160000000  0.4773640000000 1.0
C      1  0.5243140000000  0.5733720000000  0.4773220000000 1.0
C      1  0.4471760000000  0.5572630000000  0.4773640000000 1.0
C      1  0.4243010000000  0.4843700000000  0.4773220000000 1.0
C      1  0.4768210000000  0.4256220000000  0.4773630000000 1.0
C      1  0.5513850000000  0.4422580000000  0.5216350000000 1.0
C      1  0.5760030000000  0.5171150000000  0.5215940000000 1.0
C      1  0.5243130000000  0.5733720000000  0.5216360000000 1.0
C      1  0.4471760000000  0.5572630000000  0.5215940000000 1.0
C      1  0.4243010000000  0.4843700000000  0.5216350000000 1.0
C      1  0.4768210000000  0.4256220000000  0.5215930000000 1.0
C      1  0.5143860000000  0.5745600000000  0.4500570000000 1.0
C      1  0.4422670000000  0.5502240000000  0.4494920000000 1.0
C      1  0.4282370000000  0.4751780000000  0.4500570000000 1.0
C      1  0.4853720000000  0.4248890000000  0.4494920000000 1.0
C      1  0.5573780000000  0.4502620000000  0.4500570000000 1.0
C      1  0.5723620000000  0.5248870000000  0.4494930000000 1.0
C      1  0.5143850000000  0.5745600000000  0.5489010000000 1.0
C      1  0.4422660000000  0.5502240000000  0.5494650000000 1.0
C      1  0.4282360000000  0.4751780000000  0.5489000000000 1.0
C      1  0.4853710000000  0.4248890000000  0.5494650000000 1.0
C      1  0.5573780000000  0.4502620000000  0.5489000000000 1.0
C      1  0.5723620000000  0.5248870000000  0.5494650000000 1.0
C      1  0.5275390000000  0.4047380000000  0.5239550000000 1.0
C      1  0.5992270000000  0.4758980000000  0.5246630000000 1.0
C      1  0.5687300000000  0.5714810000000  0.5239560000000 1.0
C      1  0.4712590000000  0.5979840000000  0.5246620000000 1.0
C      1  0.4037310000000  0.5237820000000  0.5239550000000 1.0
C      1  0.4295130000000  0.4261180000000  0.5246620000000 1.0
C      1  0.5275390000000  0.4047380000000  0.4750020000000 1.0
C      1  0.5992270000000  0.4758980000000  0.4742960000000 1.0
C      1  0.5687300000000  0.5714810000000  0.4750030000000 1.0
C      1  0.4712590000000  0.5979840000000  0.4742950000000 1.0
C      1  0.4037310000000  0.5237820000000  0.4750020000000 1.0
C      1  0.4295140000000  0.4261180000000  0.4742950000000 1.0
C      1  0.4276570000000  0.5243920000000  0.4528550000000 1.0
C      1  0.4441530000000  0.4500260000000  0.4535710000000 1.0
C      1  0.5150480000000  0.4251530000000  0.4528550000000 1.0
C      1  0.5712030000000  0.4766220000000  0.4535720000000 1.0
C      1  0.5572960000000  0.5504550000000  0.4528560000000 1.0
C      1  0.4846450000000  0.5733520000000  0.4535720000000 1.0
C      1  0.4276560000000  0.5243920000000  0.5461020000000 1.0
C      1  0.4441530000000  0.4500260000000  0.5453850000000 1.0
C      1  0.5150470000000  0.4251520000000  0.5461020000000 1.0
C      1  0.5712020000000  0.4766220000000  0.5453860000000 1.0
C      1  0.5572960000000  0.5504550000000  0.5461030000000 1.0
C      1  0.4846450000000  0.5733520000000  0.5453860000000 1.0
C      1  0.5300640000000  0.4488560000000  0.5603880000000 1.0
C      1  0.5594410000000  0.5006930000000  0.5622760000000 1.0
C      1  0.5292600000000  0.5516080000000  0.5603880000000 1.0
C      1  0.4696790000000  0.5511310000000  0.5622760000000 1.0
C      1  0.4406750000000  0.4995350000000  0.5603880000000 1.0
C      1  0.4708790000000  0.4481750000000  0.5622750000000 1.0
C      1  0.5300650000000  0.4488560000000  0.4385690000000 1.0
C      1  0.5594420000000  0.5006930000000  0.4366820000000 1.0
C      1  0.5292600000000  0.5516090000000  0.4385700000000 1.0
C      1  0.4696790000000  0.5511320000000  0.4366820000000 1.0
C      1  0.4406760000000  0.4995360000000  0.4385690000000 1.0
C      1  0.4708800000000  0.4481760000000  0.4366810000000 1.0
C      1  0.5547370000000  0.4133310000000  0.5149080000000 1.0
C      1  0.6021720000000  0.5040990000000  0.5147960000000 1.0
C      1  0.5476890000000  0.5907380000000  0.5149080000000 1.0
C      1  0.4453640000000  0.5864340000000  0.5147950000000 1.0
C      1  0.3975740000000  0.4959310000000  0.5149070000000 1.0
C      1  0.4524640000000  0.4094670000000  0.5147950000000 1.0
C      1  0.5547370000000  0.4133310000000  0.4840500000000 1.0
C      1  0.6021720000000  0.5040990000000  0.4841620000000 1.0
C      1  0.5476890000000  0.5907380000000  0.4840500000000 1.0
C      1  0.4453640000000  0.5864340000000  0.4841620000000 1.0
C      1  0.3975740000000  0.4959310000000  0.4840490000000 1.0
C      1  0.4524640000000  0.4094670000000  0.4841610000000 1.0
C      1  0.5155300000000  0.4744920000000  0.5673090000000 1.0
C      1  0.5298220000000  0.5007130000000  0.5672250000000 1.0
C      1  0.5143250000000  0.5262040000000  0.5673090000000 1.0
C      1  0.4844700000000  0.5254700000000  0.5672250000000 1.0
C      1  0.4701440000000  0.4993040000000  0.5673090000000 1.0
C      1  0.4857070000000  0.4738160000000  0.5672250000000 1.0
C      1  0.5155310000000  0.4744920000000  0.4316490000000 1.0
C      1  0.5298230000000  0.5007140000000  0.4317320000000 1.0
C      1  0.5143260000000  0.5262040000000  0.4316490000000 1.0
C      1  0.4844710000000  0.5254700000000  0.4317320000000 1.0
C      1  0.4701440000000  0.4993040000000  0.4316490000000 1.0
C      1  0.4857070000000  0.4738160000000  0.4317320000000 1.0
C      1  0.5994900000000  0.4624980000000  0.4994790000000 1.0
C      1  0.5141610000000  0.3982710000000  0.4994780000000 1.0
C      1  0.4177770000000  0.4325900000000  0.4994780000000 1.0
C      1  0.5810190000000  0.5631280000000  0.4994790000000 1.0
C      1  0.4827330000000  0.6049120000000  0.4994790000000 1.0
C      1  0.4048200000000  0.5386010000000  0.4994780000000 1.0
END
