TITL C-2222978-775-24 -4.8313774918066e-06 125000 -370.74929471912 0 0 60 (C1) n - 1
REM
REM in /home/bkarasulu/CARBON/AIRSS/Generating-Clusters/EDIP-Nigel-Params/Higher-Symm/Box-15A/Only-C60/SD-CG/HFTN-CG
REM
REM
REM
REM
REM
REM ./C.cell (414f73aa93bd7a1190c7fd0f31ff2f98)
REM
REM compiler GCC version 9.2.1 20190827 (Red Hat 9.2.1-1)
REM options -cpp -mtune=generic -march=x86-64 -g -O0 -fpre-include=/usr/include/finclude/math-vector-fortran.h
REM seed 1395925080 733436510 1212439232 -601384809 252228492 -1603021165 2030548873 -302637731 -214219866 -352624777 678527246 558714720 -537669721 182605617 2016725746 177405297 -9507477 -1567472466 -1113352300 1289678761 -1994184694 1650272475 54832736 -1952995314 -533786819 -2028249191 1384471861 -1784357930 -1766156744 -2127047672 -1685634961 2050329159 -20660090
REM
CELL 1.54180   50.00000   50.00000   50.00000   90.00000   90.00000   90.00000
LATT -1
SFAC C  
C      1  0.5766040000000  0.5344640000000  0.4963500000000 1.0
C      1  0.5066280000000  0.5117350000000  0.5803450000000 1.0
C      1  0.5288460000000  0.5656130000000  0.5429790000000 1.0
C      1  0.4345990000000  0.5217680000000  0.4931390000000 1.0
C      1  0.4368840000000  0.4623960000000  0.5207190000000 1.0
C      1  0.5804440000000  0.4928980000000  0.4873560000000 1.0
C      1  0.4791430000000  0.5072310000000  0.4394930000000 1.0
C      1  0.4649380000000  0.5033240000000  0.5758620000000 1.0
C      1  0.5411000000000  0.4698190000000  0.4328960000000 1.0
C      1  0.4897520000000  0.5650910000000  0.4864880000000 1.0
C      1  0.4903480000000  0.4187740000000  0.5070850000000 1.0
C      1  0.5021920000000  0.4167400000000  0.4663790000000 1.0
C      1  0.5646460000000  0.4841120000000  0.5089840000000 1.0
C      1  0.5154730000000  0.4913030000000  0.5631540000000 1.0
C      1  0.5104710000000  0.4366880000000  0.5151060000000 1.0
C      1  0.4275110000000  0.4680810000000  0.4947400000000 1.0
C      1  0.4160680000000  0.5125950000000  0.5122460000000 1.0
C      1  0.5634140000000  0.5406310000000  0.4722970000000 1.0
C      1  0.4882020000000  0.4881450000000  0.4204610000000 1.0
C      1  0.4579180000000  0.5288130000000  0.5664110000000 1.0
C      1  0.5310210000000  0.4951220000000  0.4267270000000 1.0
C      1  0.4776360000000  0.4264340000000  0.4556980000000 1.0
C      1  0.5047600000000  0.5785420000000  0.5365360000000 1.0
C      1  0.5116920000000  0.5808050000000  0.4943720000000 1.0
C      1  0.4948130000000  0.4758480000000  0.5500180000000 1.0
C      1  0.4804410000000  0.5640610000000  0.5355610000000 1.0
C      1  0.5510320000000  0.5176820000000  0.4605370000000 1.0
C      1  0.4939830000000  0.4656140000000  0.4366580000000 1.0
C      1  0.4807530000000  0.5429680000000  0.5563050000000 1.0
C      1  0.5280790000000  0.5183880000000  0.4420510000000 1.0
C      1  0.5379320000000  0.5715320000000  0.4969820000000 1.0
C      1  0.5262720000000  0.4484140000000  0.4939020000000 1.0
C      1  0.4631760000000  0.4421740000000  0.4756140000000 1.0
C      1  0.4271520000000  0.5066930000000  0.5373770000000 1.0
C      1  0.4434610000000  0.4643740000000  0.4709000000000 1.0
C      1  0.5528300000000  0.5046780000000  0.5257780000000 1.0
C      1  0.5039530000000  0.5386930000000  0.5732130000000 1.0
C      1  0.4647240000000  0.4282210000000  0.5008630000000 1.0
C      1  0.5694990000000  0.4951840000000  0.4615660000000 1.0
C      1  0.5004030000000  0.5237900000000  0.4517510000000 1.0
C      1  0.4668100000000  0.4815760000000  0.5578180000000 1.0
C      1  0.5200010000000  0.4501130000000  0.4401860000000 1.0
C      1  0.5237180000000  0.4353870000000  0.4674360000000 1.0
C      1  0.5409840000000  0.5539040000000  0.5198830000000 1.0
C      1  0.4730360000000  0.5559620000000  0.5081490000000 1.0
C      1  0.4457320000000  0.4842790000000  0.5370740000000 1.0
C      1  0.4509550000000  0.5010510000000  0.4817380000000 1.0
C      1  0.5613770000000  0.5324600000000  0.5201790000000 1.0
C      1  0.5490830000000  0.4619970000000  0.5023780000000 1.0
C      1  0.4489140000000  0.5439350000000  0.5015890000000 1.0
C      1  0.4340760000000  0.5290170000000  0.5524390000000 1.0
C      1  0.4831010000000  0.4404400000000  0.4315520000000 1.0
C      1  0.4510340000000  0.4389230000000  0.5222870000000 1.0
C      1  0.5495410000000  0.5644170000000  0.4728730000000 1.0
C      1  0.5635720000000  0.4711980000000  0.4487390000000 1.0
C      1  0.5277620000000  0.5512770000000  0.5665240000000 1.0
C      1  0.4937200000000  0.5476400000000  0.4649590000000 1.0
C      1  0.5386920000000  0.4970180000000  0.5487190000000 1.0
C      1  0.4561720000000  0.4969830000000  0.4542430000000 1.0
C      1  0.5029260000000  0.4529840000000  0.5363380000000 1.0
END
