TITL C-2205180-3518-6 1.35282803484746e-06 3375 -374.343028044788 0 0 60 (C1) n - 1
REM
REM in /home/bkarasulu/CARBON/AIRSS/Generating-Clusters/EDIP-Nigel-Params/Higher-Symm/Box-15A/Only-C60/SD-CG/HFTN-CG
REM
REM
REM
REM
REM
REM ./C.cell (a2850807a9bf4ad07a5b6933b78d9264)
REM
REM compiler GCC version 9.2.1 20190827 (Red Hat 9.2.1-1)
REM options -cpp -mtune=generic -march=x86-64 -g -O0 -fpre-include=/usr/include/finclude/math-vector-fortran.h
REM seed -1525425615 -1369120683 -1602847661 698036076 1394247680 472368649 682632891 -1717237163 1896095314 -1017829762 2104307107 -820802750 70884045 124302635 -1614035549 -1562565377 -2012298559 972360460 399243473 -703505355 -341235581 -640589560 1439956059 -1611481996 412745540 895510046 -901100661 1224778530 1963037328 -1004147629 -1713796214 -2110509703 -610139798
REM
CELL 1.54180   15.00000   15.00000   15.00000   90.00000   90.00000   90.00000
LATT -1
SFAC C  
C      1  0.3448450000000  0.3488560000000  0.6427820000000 1.0
C      1  0.2835510000000  0.5270620000000  0.6590080000000 1.0
C      1  0.3887350000000  0.6866050000000  0.6538640000000 1.0
C      1  0.5730970000000  0.7019150000000  0.6416310000000 1.0
C      1  0.7004480000000  0.5721290000000  0.6622800000000 1.0
C      1  0.6785230000000  0.3815520000000  0.6665180000000 1.0
C      1  0.5164400000000  0.2851070000000  0.6475880000000 1.0
C      1  0.2927440000000  0.5686580000000  0.4619650000000 1.0
C      1  0.4192040000000  0.6713700000000  0.4486390000000 1.0
C      1  0.5851590000000  0.6392380000000  0.4475490000000 1.0
C      1  0.6992800000000  0.5227800000000  0.4669200000000 1.0
C      1  0.6561160000000  0.3667340000000  0.4637810000000 1.0
C      1  0.4957760000000  0.3315530000000  0.4447650000000 1.0
C      1  0.3434260000000  0.4108900000000  0.4467060000000 1.0
C      1  0.3124440000000  0.6708920000000  0.5952010000000 1.0
C      1  0.5153680000000  0.7406910000000  0.5720220000000 1.0
C      1  0.6983140000000  0.6411910000000  0.5900600000000 1.0
C      1  0.7398720000000  0.4282440000000  0.6051710000000 1.0
C      1  0.5918540000000  0.2711510000000  0.5875850000000 1.0
C      1  0.3781390000000  0.2935330000000  0.5677010000000 1.0
C      1  0.2494420000000  0.4631200000000  0.5909550000000 1.0
C      1  0.4141080000000  0.6147570000000  0.3665510000000 1.0
C      1  0.5684200000000  0.5631800000000  0.3789330000000 1.0
C      1  0.6513990000000  0.5050230000000  0.3826270000000 1.0
C      1  0.6262310000000  0.4087990000000  0.3789520000000 1.0
C      1  0.5255120000000  0.4009190000000  0.3743320000000 1.0
C      1  0.3844710000000  0.4700760000000  0.3747800000000 1.0
C      1  0.3352950000000  0.5578230000000  0.3736670000000 1.0
C      1  0.4869740000000  0.3914370000000  0.2784690000000 1.0
C      1  0.3972080000000  0.4364370000000  0.2818690000000 1.0
C      1  0.4094460000000  0.5169840000000  0.2213200000000 1.0
C      1  0.4558880000000  0.5961940000000  0.2764920000000 1.0
C      1  0.5541870000000  0.5854870000000  0.2830660000000 1.0
C      1  0.5867120000000  0.5135980000000  0.2315260000000 1.0
C      1  0.5339810000000  0.4409820000000  0.2022810000000 1.0
C      1  0.6630140000000  0.7205820000000  0.6231210000000 1.0
C      1  0.7666210000000  0.5077690000000  0.6458040000000 1.0
C      1  0.6679800000000  0.2930240000000  0.6369010000000 1.0
C      1  0.4433990000000  0.2418690000000  0.6084400000000 1.0
C      1  0.2573960000000  0.3770510000000  0.6250850000000 1.0
C      1  0.2534710000000  0.6139890000000  0.6398830000000 1.0
C      1  0.4364840000000  0.7586910000000  0.6177120000000 1.0
C      1  0.6578250000000  0.6033110000000  0.5056440000000 1.0
C      1  0.6930640000000  0.4400640000000  0.5183420000000 1.0
C      1  0.5773920000000  0.3222730000000  0.5024660000000 1.0
C      1  0.4084920000000  0.3497520000000  0.4903660000000 1.0
C      1  0.2973760000000  0.4786670000000  0.5042800000000 1.0
C      1  0.3453900000000  0.6382260000000  0.5069640000000 1.0
C      1  0.5072920000000  0.6815590000000  0.4915260000000 1.0
C      1  0.5081360000000  0.3833150000000  0.6699730000000 1.0
C      1  0.4139030000000  0.4186050000000  0.6677210000000 1.0
C      1  0.3830690000000  0.5149780000000  0.6707640000000 1.0
C      1  0.4382130000000  0.6001930000000  0.6699490000000 1.0
C      1  0.5384020000000  0.6105770000000  0.6696080000000 1.0
C      1  0.6070840000000  0.5374050000000  0.6767250000000 1.0
C      1  0.5942330000000  0.4363680000000  0.6765300000000 1.0
C      1  0.4881400000000  0.4913920000000  0.4993990000000 1.0
C      1  0.4881270000000  0.4920820000000  0.4064310000000 1.0
C      1  0.4646630000000  0.4819580000000  0.1501780000000 1.0
C      1  0.5006840000000  0.5002560000000  0.5827980000000 1.0
END
