TITL C-2222980-4410-14 -1.04089748670368e-06 125000 -371.385863092633 0 0 60 (C1) n - 1
REM
REM in /home/bkarasulu/CARBON/AIRSS/Generating-Clusters/EDIP-Nigel-Params/Higher-Symm/Box-15A/Only-C60/SD-CG/HFTN-CG
REM
REM
REM
REM
REM
REM ./C.cell (414f73aa93bd7a1190c7fd0f31ff2f98)
REM
REM compiler GCC version 9.2.1 20190827 (Red Hat 9.2.1-1)
REM options -cpp -mtune=generic -march=x86-64 -g -O0 -fpre-include=/usr/include/finclude/math-vector-fortran.h
REM seed 2142560705 525375774 -922680281 -352895091 -402257263 1394330845 426334811 -1763888672 282676170 2096022872 -1764276473 1008821780 -1454959763 -257225729 1709706757 775024422 -2074735183 -655469003 1923489896 -1558882847 1115243003 215271453 -388514676 -2135083476 -2063666484 1756471520 -113725678 -804309860 -1005456884 -586257475 -93100874 763645797 -40682195
REM
CELL 1.54180   50.00000   50.00000   50.00000   90.00000   90.00000   90.00000
LATT -1
SFAC C  
C      1  0.4503910000000  0.4643940000000  0.4580500000000 1.0
C      1  0.5244510000000  0.4655480000000  0.4397590000000 1.0
C      1  0.5651290000000  0.4644390000000  0.5048630000000 1.0
C      1  0.5155400000000  0.4661530000000  0.5631050000000 1.0
C      1  0.4434490000000  0.4635240000000  0.5347310000000 1.0
C      1  0.4520530000000  0.4996590000000  0.5282460000000 1.0
C      1  0.4577620000000  0.5012620000000  0.4629390000000 1.0
C      1  0.5220890000000  0.5021540000000  0.4484360000000 1.0
C      1  0.5567210000000  0.5013310000000  0.5054380000000 1.0
C      1  0.5125050000000  0.5029140000000  0.5543610000000 1.0
C      1  0.4991940000000  0.4562970000000  0.4507880000000 1.0
C      1  0.5463010000000  0.4566610000000  0.4842550000000 1.0
C      1  0.5296330000000  0.4566860000000  0.5396180000000 1.0
C      1  0.4710350000000  0.4555900000000  0.5410320000000 1.0
C      1  0.4531310000000  0.4563020000000  0.4857190000000 1.0
C      1  0.4343440000000  0.4651350000000  0.5064740000000 1.0
C      1  0.4738350000000  0.4665530000000  0.4404150000000 1.0
C      1  0.5488680000000  0.4654530000000  0.4563890000000 1.0
C      1  0.5564730000000  0.4664010000000  0.5329860000000 1.0
C      1  0.4860730000000  0.4667330000000  0.5640420000000 1.0
C      1  0.4178910000000  0.4871420000000  0.4989050000000 1.0
C      1  0.4758570000000  0.4884960000000  0.4223620000000 1.0
C      1  0.5670290000000  0.4868120000000  0.4520190000000 1.0
C      1  0.5661500000000  0.4879450000000  0.5488740000000 1.0
C      1  0.4741050000000  0.4884280000000  0.5778700000000 1.0
C      1  0.4948600000000  0.5760650000000  0.4784060000000 1.0
C      1  0.5194320000000  0.5832980000000  0.4906470000000 1.0
C      1  0.5159540000000  0.5738380000000  0.5173700000000 1.0
C      1  0.4865990000000  0.5725250000000  0.5217360000000 1.0
C      1  0.4747880000000  0.5820400000000  0.4975690000000 1.0
C      1  0.5616970000000  0.5104630000000  0.5323800000000 1.0
C      1  0.4878520000000  0.5110070000000  0.5675180000000 1.0
C      1  0.4322720000000  0.5093950000000  0.5089590000000 1.0
C      1  0.4707050000000  0.5108280000000  0.4388760000000 1.0
C      1  0.5501090000000  0.5095760000000  0.4518760000000 1.0
C      1  0.4907370000000  0.5325570000000  0.4436610000000 1.0
C      1  0.5527040000000  0.5301800000000  0.4724670000000 1.0
C      1  0.5426230000000  0.5317160000000  0.5397830000000 1.0
C      1  0.4732130000000  0.5306740000000  0.5506690000000 1.0
C      1  0.4424610000000  0.5311660000000  0.4909780000000 1.0
C      1  0.4739720000000  0.5346260000000  0.4934100000000 1.0
C      1  0.4955860000000  0.5462320000000  0.4724880000000 1.0
C      1  0.5259140000000  0.5396880000000  0.4858720000000 1.0
C      1  0.5228660000000  0.5441910000000  0.5179120000000 1.0
C      1  0.4857250000000  0.5420380000000  0.5233170000000 1.0
C      1  0.5126590000000  0.5225320000000  0.4297010000000 1.0
C      1  0.5723980000000  0.5197210000000  0.4892010000000 1.0
C      1  0.5319360000000  0.5224490000000  0.5637380000000 1.0
C      1  0.4479180000000  0.5190580000000  0.5496370000000 1.0
C      1  0.4353460000000  0.5199890000000  0.4660240000000 1.0
C      1  0.5085070000000  0.5012790000000  0.4762320000000 1.0
C      1  0.5254140000000  0.5035870000000  0.5011540000000 1.0
C      1  0.5066950000000  0.5034650000000  0.5246300000000 1.0
C      1  0.4798290000000  0.4963760000000  0.5148290000000 1.0
C      1  0.4798230000000  0.5050930000000  0.4859070000000 1.0
C      1  0.5149110000000  0.4410070000000  0.5200940000000 1.0
C      1  0.4855930000000  0.4401170000000  0.5208420000000 1.0
C      1  0.4759670000000  0.4399430000000  0.4929800000000 1.0
C      1  0.4994850000000  0.4405020000000  0.4753350000000 1.0
C      1  0.5234460000000  0.4407650000000  0.4921270000000 1.0
END
