TITL C-2222972-3898-5 -2.8684982498849e-05 125000 -357.81437746559 0 0 60 (S4) n - 1
REM
REM in /home/bkarasulu/CARBON/AIRSS/Generating-Clusters/EDIP-Nigel-Params/Higher-Symm/Box-15A/Only-C60/SD-CG/HFTN-CG
REM
REM
REM
REM
REM
REM ./C.cell (414f73aa93bd7a1190c7fd0f31ff2f98)
REM
REM compiler GCC version 9.2.1 20190827 (Red Hat 9.2.1-1)
REM options -cpp -mtune=generic -march=x86-64 -g -O0 -fpre-include=/usr/include/finclude/math-vector-fortran.h
REM seed -1006423018 -2055864865 -1915846467 1223122215 -462856799 724907783 -102435859 -1930482643 -1786403300 699222156 1785277792 -1073625386 -2147298413 -471400447 2017514377 -2067271642 -862187125 1493262821 -762092971 1777291278 1424070905 1806162046 -989779031 672180926 -132171928 1600310313 1433757463 -89851842 -2054963858 -736305849 -1003481430 1255391972 -187306936
REM
CELL 1.54180   50.00000   50.00000   50.00000   90.00000   90.00000   90.00000
LATT -1
SFAC C  
C      1  0.5041890000000  0.5513460000000  0.4463440000000 1.0
C      1  0.4485820000000  0.5041570000000  0.5535890000000 1.0
C      1  0.4959150000000  0.4486130000000  0.4463750000000 1.0
C      1  0.5513150000000  0.4958830000000  0.5536910000000 1.0
C      1  0.5165770000000  0.4225700000000  0.5328950000000 1.0
C      1  0.5774740000000  0.5165960000000  0.4672190000000 1.0
C      1  0.4833600000000  0.5774550000000  0.5328040000000 1.0
C      1  0.4225890000000  0.4833790000000  0.4670830000000 1.0
C      1  0.4915070000000  0.5517490000000  0.5408500000000 1.0
C      1  0.4483060000000  0.4915310000000  0.4590760000000 1.0
C      1  0.5084140000000  0.4482820000000  0.5409050000000 1.0
C      1  0.5517720000000  0.5084380000000  0.4591690000000 1.0
C      1  0.5166560000000  0.4657600000000  0.4526010000000 1.0
C      1  0.5341760000000  0.5166280000000  0.5474550000000 1.0
C      1  0.4834360000000  0.5342040000000  0.4525430000000 1.0
C      1  0.4657330000000  0.4834080000000  0.5474020000000 1.0
C      1  0.5495150000000  0.4440860000000  0.5032330000000 1.0
C      1  0.5559190000000  0.5495170000000  0.4968710000000 1.0
C      1  0.4504790000000  0.5559170000000  0.5030950000000 1.0
C      1  0.4440870000000  0.4504810000000  0.4968010000000 1.0
C      1  0.4833240000000  0.4840420000000  0.4994750000000 1.0
C      1  0.5159570000000  0.4833240000000  0.5005370000000 1.0
C      1  0.5166770000000  0.5159580000000  0.4994950000000 1.0
C      1  0.4840420000000  0.5166770000000  0.5004930000000 1.0
C      1  0.4334020000000  0.5135130000000  0.5304620000000 1.0
C      1  0.4865280000000  0.4334200000000  0.4694810000000 1.0
C      1  0.5665390000000  0.4865100000000  0.5306000000000 1.0
C      1  0.5135310000000  0.5665570000000  0.4694570000000 1.0
C      1  0.5737290000000  0.5257440000000  0.4934820000000 1.0
C      1  0.4742470000000  0.5737250000000  0.5065260000000 1.0
C      1  0.4262840000000  0.4742510000000  0.4933600000000 1.0
C      1  0.5257410000000  0.4262800000000  0.5066320000000 1.0
C      1  0.4754270000000  0.4607670000000  0.4317760000000 1.0
C      1  0.5391410000000  0.4753880000000  0.5682620000000 1.0
C      1  0.5247040000000  0.5391810000000  0.4317940000000 1.0
C      1  0.4607270000000  0.5246640000000  0.5681680000000 1.0
C      1  0.5533560000000  0.4566010000000  0.4786790000000 1.0
C      1  0.5433700000000  0.5533440000000  0.5214100000000 1.0
C      1  0.4466850000000  0.5433820000000  0.4785440000000 1.0
C      1  0.4565890000000  0.4466730000000  0.5213670000000 1.0
C      1  0.5308080000000  0.4729460000000  0.4753260000000 1.0
C      1  0.5270210000000  0.5307930000000  0.5247280000000 1.0
C      1  0.4692400000000  0.5270350000000  0.4752470000000 1.0
C      1  0.4729320000000  0.4692250000000  0.5246990000000 1.0
C      1  0.4935220000000  0.5771580000000  0.4864210000000 1.0
C      1  0.4228240000000  0.4935140000000  0.5134720000000 1.0
C      1  0.5065050000000  0.4228320000000  0.4864920000000 1.0
C      1  0.5771500000000  0.5064970000000  0.5136160000000 1.0
C      1  0.5422350000000  0.5621940000000  0.4744510000000 1.0
C      1  0.4377720000000  0.5422200000000  0.5254900000000 1.0
C      1  0.4578150000000  0.4377870000000  0.4744170000000 1.0
C      1  0.5621790000000  0.4578000000000  0.5256420000000 1.0
C      1  0.5179930000000  0.4579780000000  0.5658100000000 1.0
C      1  0.5421100000000  0.5180310000000  0.4342570000000 1.0
C      1  0.4818810000000  0.5420720000000  0.5657430000000 1.0
C      1  0.4580160000000  0.4819190000000  0.4341900000000 1.0
C      1  0.4704850000000  0.4742530000000  0.4712480000000 1.0
C      1  0.5257080000000  0.4704680000000  0.5287690000000 1.0
C      1  0.5295700000000  0.5257250000000  0.4712860000000 1.0
C      1  0.4742370000000  0.5295540000000  0.5286970000000 1.0
END
