TITL C-2222973-3874-11 -2.80714554752232e-06 125000 -367.001274333965 0 0 60 (C1) n - 1
REM
REM in /home/bkarasulu/CARBON/AIRSS/Generating-Clusters/EDIP-Nigel-Params/Higher-Symm/Box-15A/Only-C60/SD-CG/HFTN-CG
REM
REM
REM
REM
REM
REM ./C.cell (414f73aa93bd7a1190c7fd0f31ff2f98)
REM
REM compiler GCC version 9.2.1 20190827 (Red Hat 9.2.1-1)
REM options -cpp -mtune=generic -march=x86-64 -g -O0 -fpre-include=/usr/include/finclude/math-vector-fortran.h
REM seed 1704131603 -169351494 -1171098827 1948244517 -1616228494 303079429 -1070495479 1493696570 788846900 -1299409407 1853579065 -916684138 -301561827 105980675 1100277353 -1615410700 645494466 2128075418 338400774 -213846012 -374734159 37930920 704849679 -2073122427 526984453 1082578801 113957331 -1619898065 -48563795 352002268 -1922066168 831062409 -591585068
REM
CELL 1.54180   50.00000   50.00000   50.00000   90.00000   90.00000   90.00000
LATT -1
SFAC C  
C      1  0.5568900000000  0.4474110000000  0.4852010000000 1.0
C      1  0.4459240000000  0.4849790000000  0.5536060000000 1.0
C      1  0.4828910000000  0.5512250000000  0.4450450000000 1.0
C      1  0.4499920000000  0.5477320000000  0.4843650000000 1.0
C      1  0.5478620000000  0.5461630000000  0.5164200000000 1.0
C      1  0.4472780000000  0.4518570000000  0.5159570000000 1.0
C      1  0.5531300000000  0.5146770000000  0.5531480000000 1.0
C      1  0.4468620000000  0.5157380000000  0.4444620000000 1.0
C      1  0.5546380000000  0.4839880000000  0.4473700000000 1.0
C      1  0.5158660000000  0.4538860000000  0.4549450000000 1.0
C      1  0.4865400000000  0.4551580000000  0.5515050000000 1.0
C      1  0.5156840000000  0.5452230000000  0.5565160000000 1.0
C      1  0.4349410000000  0.5282690000000  0.4684320000000 1.0
C      1  0.4768010000000  0.4446590000000  0.5251720000000 1.0
C      1  0.5297880000000  0.4719580000000  0.4375600000000 1.0
C      1  0.5593670000000  0.4764580000000  0.4764390000000 1.0
C      1  0.5637020000000  0.5254390000000  0.5286080000000 1.0
C      1  0.4386110000000  0.4793640000000  0.5249700000000 1.0
C      1  0.5286290000000  0.5597730000000  0.5340160000000 1.0
C      1  0.5315910000000  0.4364320000000  0.4727840000000 1.0
C      1  0.4700960000000  0.5623050000000  0.4689330000000 1.0
C      1  0.4677670000000  0.5307470000000  0.4326270000000 1.0
C      1  0.4774990000000  0.4842880000000  0.5525370000000 1.0
C      1  0.5222010000000  0.5156230000000  0.5533030000000 1.0
C      1  0.4806260000000  0.5519110000000  0.5262010000000 1.0
C      1  0.5592860000000  0.5265520000000  0.4713780000000 1.0
C      1  0.5284000000000  0.4784730000000  0.5624880000000 1.0
C      1  0.5292090000000  0.4416150000000  0.5282940000000 1.0
C      1  0.4743740000000  0.4429400000000  0.4761030000000 1.0
C      1  0.5217310000000  0.5556950000000  0.4751380000000 1.0
C      1  0.4390060000000  0.4764080000000  0.4725090000000 1.0
C      1  0.5597420000000  0.4782590000000  0.5255400000000 1.0
C      1  0.4373320000000  0.5289830000000  0.5321230000000 1.0
C      1  0.4735690000000  0.5212000000000  0.5640600000000 1.0
C      1  0.5242640000000  0.5221840000000  0.4390430000000 1.0
C      1  0.4721090000000  0.4716230000000  0.4381320000000 1.0
C      1  0.5546780000000  0.4855690000000  0.5533560000000 1.0
C      1  0.5427610000000  0.5417400000000  0.4880500000000 1.0
C      1  0.4858170000000  0.5457140000000  0.5548280000000 1.0
C      1  0.4461990000000  0.5151380000000  0.5566240000000 1.0
C      1  0.4494310000000  0.4858710000000  0.4471080000000 1.0
C      1  0.5511770000000  0.5140090000000  0.4473810000000 1.0
C      1  0.4493690000000  0.4528360000000  0.4858420000000 1.0
C      1  0.4541320000000  0.5450780000000  0.5146820000000 1.0
C      1  0.5553320000000  0.4502810000000  0.5168650000000 1.0
C      1  0.5164880000000  0.4544470000000  0.5519000000000 1.0
C      1  0.5125760000000  0.5473400000000  0.4486410000000 1.0
C      1  0.4867460000000  0.4521890000000  0.4523390000000 1.0
C      1  0.4855610000000  0.4914640000000  0.5234390000000 1.0
C      1  0.4903440000000  0.5058910000000  0.4781890000000 1.0
C      1  0.5375590000000  0.5039520000000  0.5101940000000 1.0
C      1  0.4877750000000  0.4649890000000  0.5047530000000 1.0
C      1  0.5168870000000  0.4601680000000  0.4985270000000 1.0
C      1  0.4915340000000  0.5345080000000  0.4849110000000 1.0
C      1  0.4580510000000  0.5017290000000  0.5146240000000 1.0
C      1  0.5322610000000  0.4849540000000  0.4873120000000 1.0
C      1  0.4605440000000  0.5051260000000  0.4849220000000 1.0
C      1  0.5149010000000  0.4957340000000  0.4640500000000 1.0
C      1  0.5042160000000  0.5400560000000  0.5122120000000 1.0
C      1  0.5114610000000  0.5120180000000  0.5243150000000 1.0
END
