TITL C-2222974-2064-5 2.04955823629628e-05 125000 -372.894898399649 0 0 60 (C1) n - 1
REM
REM in /home/bkarasulu/CARBON/AIRSS/Generating-Clusters/EDIP-Nigel-Params/Higher-Symm/Box-15A/Only-C60/SD-CG/HFTN-CG
REM
REM
REM
REM
REM
REM ./C.cell (414f73aa93bd7a1190c7fd0f31ff2f98)
REM
REM compiler GCC version 9.2.1 20190827 (Red Hat 9.2.1-1)
REM options -cpp -mtune=generic -march=x86-64 -g -O0 -fpre-include=/usr/include/finclude/math-vector-fortran.h
REM seed -2005880936 1393428732 -533753981 1389282340 -317463140 1992837282 -1763129566 -779573379 -351687004 -547372899 1458461473 -2104372560 -683369829 1705823668 -1264593474 -269908464 1701563324 1472847071 -178049653 -81970877 -2085325295 1710505269 204959515 -1712770441 356824401 155996075 -671861253 -1917043429 -663686888 1525590916 1643573643 -611985135 -307171471
REM
CELL 1.54180   50.00000   50.00000   50.00000   90.00000   90.00000   90.00000
LATT -1
SFAC C  
C      1  0.5567600000000  0.4651910000000  0.5495670000000 1.0
C      1  0.5044020000000  0.4613940000000  0.5284920000000 1.0
C      1  0.4551120000000  0.4610490000000  0.5458890000000 1.0
C      1  0.4369130000000  0.5064010000000  0.5471840000000 1.0
C      1  0.4718290000000  0.5455900000000  0.5447050000000 1.0
C      1  0.5241160000000  0.5550530000000  0.5452770000000 1.0
C      1  0.5593900000000  0.5173320000000  0.5503500000000 1.0
C      1  0.5878140000000  0.4952420000000  0.5174780000000 1.0
C      1  0.5521600000000  0.4325200000000  0.5142890000000 1.0
C      1  0.4809490000000  0.4202630000000  0.5172950000000 1.0
C      1  0.4207150000000  0.4626150000000  0.5123340000000 1.0
C      1  0.4236560000000  0.5367690000000  0.5132370000000 1.0
C      1  0.4842800000000  0.5773690000000  0.5115310000000 1.0
C      1  0.5541840000000  0.5583310000000  0.5070980000000 1.0
C      1  0.5053840000000  0.4322460000000  0.5240170000000 1.0
C      1  0.4417120000000  0.4469600000000  0.5232020000000 1.0
C      1  0.4195910000000  0.5109860000000  0.5232460000000 1.0
C      1  0.4623890000000  0.5642660000000  0.5235050000000 1.0
C      1  0.5297840000000  0.5644120000000  0.5184910000000 1.0
C      1  0.5756010000000  0.5191710000000  0.5253960000000 1.0
C      1  0.5675410000000  0.4534320000000  0.5251460000000 1.0
C      1  0.5263820000000  0.4272960000000  0.5043840000000 1.0
C      1  0.4602630000000  0.4340320000000  0.5042460000000 1.0
C      1  0.4221860000000  0.4890500000000  0.5026690000000 1.0
C      1  0.4446940000000  0.5519770000000  0.5032380000000 1.0
C      1  0.5085860000000  0.5696230000000  0.4998560000000 1.0
C      1  0.5610570000000  0.5317160000000  0.5030270000000 1.0
C      1  0.5740180000000  0.4744610000000  0.5053320000000 1.0
C      1  0.4825160000000  0.4725270000000  0.5444310000000 1.0
C      1  0.4368390000000  0.4796760000000  0.5565400000000 1.0
C      1  0.4643920000000  0.5171500000000  0.5452720000000 1.0
C      1  0.4976870000000  0.5520810000000  0.5531640000000 1.0
C      1  0.5444100000000  0.5401200000000  0.5569460000000 1.0
C      1  0.5470840000000  0.4916140000000  0.5549660000000 1.0
C      1  0.5300930000000  0.4769660000000  0.5240800000000 1.0
C      1  0.5440350000000  0.5127840000000  0.4856880000000 1.0
C      1  0.5463330000000  0.4822500000000  0.4961840000000 1.0
C      1  0.5179660000000  0.4465700000000  0.4836540000000 1.0
C      1  0.4681300000000  0.4503790000000  0.4810000000000 1.0
C      1  0.4423740000000  0.4926980000000  0.4817140000000 1.0
C      1  0.4602690000000  0.5391570000000  0.4823270000000 1.0
C      1  0.5077780000000  0.5508250000000  0.4756360000000 1.0
C      1  0.5318920000000  0.4750210000000  0.4472980000000 1.0
C      1  0.4950710000000  0.4663990000000  0.4463760000000 1.0
C      1  0.4680400000000  0.4798920000000  0.4434230000000 1.0
C      1  0.4701040000000  0.5114670000000  0.4467340000000 1.0
C      1  0.4814160000000  0.5413220000000  0.4384340000000 1.0
C      1  0.5111860000000  0.5433520000000  0.4316980000000 1.0
C      1  0.5419470000000  0.5012090000000  0.4384460000000 1.0
C      1  0.4497490000000  0.5169820000000  0.4679640000000 1.0
C      1  0.4795010000000  0.5533290000000  0.4655750000000 1.0
C      1  0.5246510000000  0.5580560000000  0.4527610000000 1.0
C      1  0.5556100000000  0.5138100000000  0.4594090000000 1.0
C      1  0.5388120000000  0.4637700000000  0.4733410000000 1.0
C      1  0.4933790000000  0.4459640000000  0.4674210000000 1.0
C      1  0.4515240000000  0.4696980000000  0.4661860000000 1.0
C      1  0.5139220000000  0.5207090000000  0.4815430000000 1.0
C      1  0.4835200000000  0.4987870000000  0.5548720000000 1.0
C      1  0.5017290000000  0.5035580000000  0.4577310000000 1.0
C      1  0.5153330000000  0.5133120000000  0.4318460000000 1.0
END
