TITL C-2287176-801-6 -1.47156359816041e-05 125000 -363.855608361861 0 0 60 (C2) n - 1
REM
REM in /home/bkarasulu/CARBON/AIRSS/Generating-Clusters/EDIP-Nigel-Params/Higher-Symm/Box-15A/Only-C60/SD-CG/HFTN-CG
REM
REM
REM
REM
REM
REM ./C.cell (414f73aa93bd7a1190c7fd0f31ff2f98)
REM
REM compiler GCC version 9.2.1 20190827 (Red Hat 9.2.1-1)
REM options -cpp -mtune=generic -march=x86-64 -g -O0 -fpre-include=/usr/include/finclude/math-vector-fortran.h
REM seed 1665940759 -309837040 1179098716 245161073 65069364 461449915 490838083 9566866 439699716 -801587673 557179023 783595316 -744960736 1646779335 -933484255 -1796227127 -478808301 1774473341 -1049201541 -1838637897 764630772 -639455037 1101992121 196022646 1094568211 492842575 706058020 245325113 1391270825 -2143807025 1838344695 1670553495 750109781
REM
CELL 1.54180   50.00000   50.00000   50.00000   90.00000   90.00000   90.00000
LATT -1
SFAC C  
C      1  0.5443320000000  0.4448250000000  0.5246870000000 1.0
C      1  0.5646340000000  0.4423550000000  0.5042440000000 1.0
C      1  0.5524110000000  0.4417550000000  0.4781120000000 1.0
C      1  0.5194510000000  0.4431810000000  0.4583150000000 1.0
C      1  0.4912140000000  0.4457670000000  0.4598560000000 1.0
C      1  0.4556230000000  0.4448610000000  0.4753120000000 1.0
C      1  0.4353200000000  0.4424070000000  0.4957550000000 1.0
C      1  0.4475420000000  0.4417970000000  0.5218870000000 1.0
C      1  0.4805040000000  0.4431960000000  0.5416840000000 1.0
C      1  0.5087430000000  0.4457590000000  0.5401430000000 1.0
C      1  0.5225730000000  0.4891250000000  0.4348890000000 1.0
C      1  0.4941620000000  0.4905500000000  0.4350000000000 1.0
C      1  0.4441340000000  0.4935900000000  0.4761970000000 1.0
C      1  0.4240500000000  0.4885360000000  0.4978680000000 1.0
C      1  0.4350060000000  0.4896430000000  0.5260060000000 1.0
C      1  0.4774180000000  0.4891420000000  0.5651110000000 1.0
C      1  0.5058310000000  0.4905440000000  0.5650000000000 1.0
C      1  0.5558610000000  0.4935440000000  0.5238030000000 1.0
C      1  0.5759410000000  0.4884750000000  0.5021320000000 1.0
C      1  0.5649860000000  0.4895910000000  0.4739940000000 1.0
C      1  0.4680500000000  0.5353150000000  0.5693690000000 1.0
C      1  0.5224510000000  0.5408900000000  0.5591910000000 1.0
C      1  0.5469870000000  0.5421980000000  0.5435330000000 1.0
C      1  0.5789710000000  0.5339730000000  0.5037190000000 1.0
C      1  0.5672010000000  0.5370710000000  0.4540260000000 1.0
C      1  0.5319780000000  0.5352900000000  0.4306320000000 1.0
C      1  0.4775820000000  0.5409080000000  0.4408100000000 1.0
C      1  0.4530470000000  0.5422360000000  0.4564680000000 1.0
C      1  0.4210560000000  0.5340360000000  0.4962810000000 1.0
C      1  0.4328290000000  0.5371250000000  0.5459750000000 1.0
C      1  0.5041230000000  0.5517890000000  0.5389480000000 1.0
C      1  0.5361610000000  0.5539920000000  0.5192460000000 1.0
C      1  0.5533280000000  0.5446120000000  0.4980860000000 1.0
C      1  0.5477610000000  0.5493030000000  0.4702660000000 1.0
C      1  0.5234150000000  0.5448200000000  0.4556800000000 1.0
C      1  0.4959180000000  0.5517930000000  0.4610530000000 1.0
C      1  0.4638830000000  0.5540210000000  0.4807550000000 1.0
C      1  0.4467080000000  0.5446550000000  0.5019150000000 1.0
C      1  0.4522790000000  0.5493410000000  0.5297340000000 1.0
C      1  0.4766210000000  0.5448380000000  0.5443200000000 1.0
C      1  0.4551240000000  0.4709620000000  0.4624850000000 1.0
C      1  0.4139640000000  0.4615090000000  0.4935410000000 1.0
C      1  0.4415920000000  0.4644050000000  0.5390240000000 1.0
C      1  0.4654350000000  0.4639760000000  0.5558670000000 1.0
C      1  0.5178940000000  0.4720770000000  0.5470160000000 1.0
C      1  0.5448530000000  0.4709250000000  0.5375150000000 1.0
C      1  0.5860050000000  0.4614400000000  0.5064590000000 1.0
C      1  0.5583790000000  0.4643590000000  0.4609750000000 1.0
C      1  0.5345360000000  0.4639490000000  0.4441320000000 1.0
C      1  0.4820840000000  0.4720920000000  0.4529830000000 1.0
C      1  0.5945680000000  0.5110540000000  0.5045960000000 1.0
C      1  0.5731140000000  0.5107230000000  0.4578000000000 1.0
C      1  0.5365760000000  0.5096590000000  0.4222030000000 1.0
C      1  0.4823170000000  0.5152460000000  0.4305290000000 1.0
C      1  0.4417210000000  0.5169970000000  0.4611050000000 1.0
C      1  0.4054410000000  0.5111300000000  0.4954040000000 1.0
C      1  0.4268940000000  0.5107810000000  0.5422000000000 1.0
C      1  0.4634320000000  0.5096870000000  0.5777970000000 1.0
C      1  0.5176950000000  0.5152310000000  0.5694710000000 1.0
C      1  0.5582930000000  0.5169490000000  0.5388950000000 1.0
END
