TITL C-2222978-775-16 -1.32361491389529e-06 125000 -362.401167901463 0 0 60 (Ci) n - 1
REM
REM in /home/bkarasulu/CARBON/AIRSS/Generating-Clusters/EDIP-Nigel-Params/Higher-Symm/Box-15A/Only-C60/SD-CG/HFTN-CG
REM
REM
REM
REM
REM
REM ./C.cell (414f73aa93bd7a1190c7fd0f31ff2f98)
REM
REM compiler GCC version 9.2.1 20190827 (Red Hat 9.2.1-1)
REM options -cpp -mtune=generic -march=x86-64 -g -O0 -fpre-include=/usr/include/finclude/math-vector-fortran.h
REM seed -1815929072 -1540088714 -680586033 -454726386 22924889 -231589016 5053906 -1124760404 -1187156172 1383213688 450065956 532683914 -616976607 707332991 1230055688 1485127517 -964665810 -2044019679 -1750128996 -508349347 2011834297 172559635 -131222679 679433526 1153499225 -320439889 1650020181 518608626 428551225 120687827 -792793409 1218656352 442778969
REM
CELL 1.54180   50.00000   50.00000   50.00000   90.00000   90.00000   90.00000
LATT -1
SFAC C  
C      1  0.4666890000000  0.4383490000000  0.5443970000000 1.0
C      1  0.5333110000000  0.5616510000000  0.4556030000000 1.0
C      1  0.4517460000000  0.5421240000000  0.4883560000000 1.0
C      1  0.5482540000000  0.4578760000000  0.5116440000000 1.0
C      1  0.4754630000000  0.4816990000000  0.5562680000000 1.0
C      1  0.5245370000000  0.5183010000000  0.4437320000000 1.0
C      1  0.5006020000000  0.5148850000000  0.5077490000000 1.0
C      1  0.4993980000000  0.4851150000000  0.4922510000000 1.0
C      1  0.4287290000000  0.4524800000000  0.4761710000000 1.0
C      1  0.5712710000000  0.5475200000000  0.5238290000000 1.0
C      1  0.4346040000000  0.4947130000000  0.4639690000000 1.0
C      1  0.5653960000000  0.5052870000000  0.5360310000000 1.0
C      1  0.4761340000000  0.5555810000000  0.5564230000000 1.0
C      1  0.5238660000000  0.4444190000000  0.4435770000000 1.0
C      1  0.5737960000000  0.5259160000000  0.5046540000000 1.0
C      1  0.4262040000000  0.4740840000000  0.4953460000000 1.0
C      1  0.5450790000000  0.5106370000000  0.4647190000000 1.0
C      1  0.4549210000000  0.4893630000000  0.5352810000000 1.0
C      1  0.5344770000000  0.5566060000000  0.5280490000000 1.0
C      1  0.4655230000000  0.4433940000000  0.4719510000000 1.0
C      1  0.5415450000000  0.4920570000000  0.5447550000000 1.0
C      1  0.4584550000000  0.5079430000000  0.4552450000000 1.0
C      1  0.4879380000000  0.4951470000000  0.4180800000000 1.0
C      1  0.5120620000000  0.5048530000000  0.5819200000000 1.0
C      1  0.4503640000000  0.5185750000000  0.5355900000000 1.0
C      1  0.5496360000000  0.4814250000000  0.4644100000000 1.0
C      1  0.4843120000000  0.5021460000000  0.5771770000000 1.0
C      1  0.5156880000000  0.4978540000000  0.4228230000000 1.0
C      1  0.5652520000000  0.5320070000000  0.5475310000000 1.0
C      1  0.4347480000000  0.4679930000000  0.4524690000000 1.0
C      1  0.4985350000000  0.5146660000000  0.5374280000000 1.0
C      1  0.5014650000000  0.4853340000000  0.4625720000000 1.0
C      1  0.5369180000000  0.5386020000000  0.5541980000000 1.0
C      1  0.4630820000000  0.4613980000000  0.4458020000000 1.0
C      1  0.5301790000000  0.4369230000000  0.4704530000000 1.0
C      1  0.4698210000000  0.5630770000000  0.5295470000000 1.0
C      1  0.5070910000000  0.4283350000000  0.4854290000000 1.0
C      1  0.4929090000000  0.5716650000000  0.5145710000000 1.0
C      1  0.4865550000000  0.4542030000000  0.5560200000000 1.0
C      1  0.5134450000000  0.5457970000000  0.4439800000000 1.0
C      1  0.4884550000000  0.5496760000000  0.4583880000000 1.0
C      1  0.5115450000000  0.4503240000000  0.5416120000000 1.0
C      1  0.5446560000000  0.4586430000000  0.4839180000000 1.0
C      1  0.4553440000000  0.5413570000000  0.5160820000000 1.0
C      1  0.4777640000000  0.4879470000000  0.4446590000000 1.0
C      1  0.5222360000000  0.5120530000000  0.5553410000000 1.0
C      1  0.5265180000000  0.5429530000000  0.5019150000000 1.0
C      1  0.4734820000000  0.4570470000000  0.4980850000000 1.0
C      1  0.4944340000000  0.5471180000000  0.4961590000000 1.0
C      1  0.5055660000000  0.4528820000000  0.5038410000000 1.0
C      1  0.4549840000000  0.4453390000000  0.5199220000000 1.0
C      1  0.5450160000000  0.5546610000000  0.4800780000000 1.0
C      1  0.5616400000000  0.5304270000000  0.4786940000000 1.0
C      1  0.4383600000000  0.4695730000000  0.5213060000000 1.0
C      1  0.5343160000000  0.4663940000000  0.5339810000000 1.0
C      1  0.4656840000000  0.5336060000000  0.4660190000000 1.0
C      1  0.5256890000000  0.4738740000000  0.4464310000000 1.0
C      1  0.4743110000000  0.5261260000000  0.5535690000000 1.0
C      1  0.4847310000000  0.4219360000000  0.4692160000000 1.0
C      1  0.5152690000000  0.5780640000000  0.5307840000000 1.0
END
