TITL C-2222979-9684-18 -3.9390915868729e-07 125000 -358.915144486128 0 0 60 (D4) n - 1
REM
REM in /home/bkarasulu/CARBON/AIRSS/Generating-Clusters/EDIP-Nigel-Params/Higher-Symm/Box-15A/Only-C60/SD-CG/HFTN-CG
REM
REM
REM
REM
REM
REM ./C.cell (414f73aa93bd7a1190c7fd0f31ff2f98)
REM
REM compiler GCC version 9.2.1 20190827 (Red Hat 9.2.1-1)
REM options -cpp -mtune=generic -march=x86-64 -g -O0 -fpre-include=/usr/include/finclude/math-vector-fortran.h
REM seed -1934574184 496440502 1342109427 -547613521 1005734992 -561829432 934673481 -1513471928 2112578674 -1054789142 1109535286 -827303938 1935158070 1366046742 -879492057 -998099317 -276315554 -1160934008 1514159293 -42154672 -1130208755 -1629435772 -1304603056 -136750684 1818240001 1662592653 768578588 80104525 653724752 -1225190334 1753803892 970182898 242432547
REM
CELL 1.54180   50.00000   50.00000   50.00000   90.00000   90.00000   90.00000
LATT -1
SFAC C  
C      1  0.4779820000000  0.4952560000000  0.5249290000000 1.0
C      1  0.5047410000000  0.4779900000000  0.5249370000000 1.0
C      1  0.5220060000000  0.5047490000000  0.5249380000000 1.0
C      1  0.4952480000000  0.5220150000000  0.5249300000000 1.0
C      1  0.5224630000000  0.4983530000000  0.4760640000000 1.0
C      1  0.4983610000000  0.4775400000000  0.4760600000000 1.0
C      1  0.4775480000000  0.5016420000000  0.4760530000000 1.0
C      1  0.5016500000000  0.5224550000000  0.4760560000000 1.0
C      1  0.5215110000000  0.5048430000000  0.5732850000000 1.0
C      1  0.4951480000000  0.5215360000000  0.5732770000000 1.0
C      1  0.4784550000000  0.4951730000000  0.5732760000000 1.0
C      1  0.5048180000000  0.4784800000000  0.5732840000000 1.0
C      1  0.4780260000000  0.5017920000000  0.4277070000000 1.0
C      1  0.5018170000000  0.5219830000000  0.4277100000000 1.0
C      1  0.5220080000000  0.4981920000000  0.4277170000000 1.0
C      1  0.4982170000000  0.4780010000000  0.4277140000000 1.0
C      1  0.4592800000000  0.5423460000000  0.5480750000000 1.0
C      1  0.4576480000000  0.4592960000000  0.5480840000000 1.0
C      1  0.5406980000000  0.4576640000000  0.5481030000000 1.0
C      1  0.5423300000000  0.5407140000000  0.5480950000000 1.0
C      1  0.5344490000000  0.5475770000000  0.4529050000000 1.0
C      1  0.5475930000000  0.4655570000000  0.4529170000000 1.0
C      1  0.4655730000000  0.4524130000000  0.4529000000000 1.0
C      1  0.4524290000000  0.5344330000000  0.4528880000000 1.0
C      1  0.5402260000000  0.4931620000000  0.4522360000000 1.0
C      1  0.5068440000000  0.5402090000000  0.4522240000000 1.0
C      1  0.4597970000000  0.5068280000000  0.4522160000000 1.0
C      1  0.4931780000000  0.4597800000000  0.4522290000000 1.0
C      1  0.4611120000000  0.4876560000000  0.5487580000000 1.0
C      1  0.4876400000000  0.5388820000000  0.5487580000000 1.0
C      1  0.5388660000000  0.5123540000000  0.5487730000000 1.0
C      1  0.5123380000000  0.4611290000000  0.5487720000000 1.0
C      1  0.5102180000000  0.4359180000000  0.4607030000000 1.0
C      1  0.5640870000000  0.5102050000000  0.4607070000000 1.0
C      1  0.4898000000000  0.5640740000000  0.4606840000000 1.0
C      1  0.4359310000000  0.4897870000000  0.4606800000000 1.0
C      1  0.4987750000000  0.4351290000000  0.5403050000000 1.0
C      1  0.4351160000000  0.5012200000000  0.5402840000000 1.0
C      1  0.5012070000000  0.5648790000000  0.5402920000000 1.0
C      1  0.5648660000000  0.4987880000000  0.5403140000000 1.0
C      1  0.5751980000000  0.5012640000000  0.4866250000000 1.0
C      1  0.4987380000000  0.5751930000000  0.4865990000000 1.0
C      1  0.4248090000000  0.4987330000000  0.4865910000000 1.0
C      1  0.5012690000000  0.4248040000000  0.4866160000000 1.0
C      1  0.4253550000000  0.4908170000000  0.5143680000000 1.0
C      1  0.4908130000000  0.5746440000000  0.5143740000000 1.0
C      1  0.5746390000000  0.5091860000000  0.5144000000000 1.0
C      1  0.5091810000000  0.4253590000000  0.5143940000000 1.0
C      1  0.4626930000000  0.5585680000000  0.4580820000000 1.0
C      1  0.4414370000000  0.4626790000000  0.4580870000000 1.0
C      1  0.5373270000000  0.4414230000000  0.4581110000000 1.0
C      1  0.5585820000000  0.5373120000000  0.4581060000000 1.0
C      1  0.5288160000000  0.5631900000000  0.5428950000000 1.0
C      1  0.5631760000000  0.4711790000000  0.5429130000000 1.0
C      1  0.4711650000000  0.4368190000000  0.5428960000000 1.0
C      1  0.4368050000000  0.5288300000000  0.5428780000000 1.0
C      1  0.5389900000000  0.5027190000000  0.5005050000000 1.0
C      1  0.4972810000000  0.5389900000000  0.5004910000000 1.0
C      1  0.4610100000000  0.4972810000000  0.5004870000000 1.0
C      1  0.5027190000000  0.4610100000000  0.5005010000000 1.0
END
