TITL C-2205173-3744-2 0.000643845178892961 3375 -359.431265499126 0 0 60 (Cs) n - 1
REM
REM in /home/bkarasulu/CARBON/AIRSS/Generating-Clusters/EDIP-Nigel-Params/Higher-Symm/Box-15A/Only-C60/SD-CG/HFTN-CG
REM
REM
REM
REM
REM
REM ./C.cell (a2850807a9bf4ad07a5b6933b78d9264)
REM
REM compiler GCC version 9.2.1 20190827 (Red Hat 9.2.1-1)
REM options -cpp -mtune=generic -march=x86-64 -g -O0 -fpre-include=/usr/include/finclude/math-vector-fortran.h
REM seed 12256438 -1036413437 -718117177 -2027412373 739322584 1423077251 52079331 -1445929485 2139414901 -862151775 -1122633619 1175205482 500038653 -1249624137 -740568283 717591591 -61856855 1414429037 873112441 -2123915712 2119459775 -1492827640 -1050218511 -1635209511 -814768629 1160256147 90480069 633658605 1873253044 670525126 1898629710 -903366022 -1059496076
REM
CELL 1.54180   15.00000   15.00000   15.00000   90.00000   90.00000   90.00000
LATT -1
SFAC C  
C      1  0.4761670000000  0.5784900000000  0.7278730000000 1.0
C      1  0.4755380000000  0.4224140000000  0.7281160000000 1.0
C      1  0.5356380000000  0.5577130000000  0.5699070000000 1.0
C      1  0.5351730000000  0.4422190000000  0.5700860000000 1.0
C      1  0.4041000000000  0.7287700000000  0.6013180000000 1.0
C      1  0.4022610000000  0.2723260000000  0.6020270000000 1.0
C      1  0.3774050000000  0.6418570000000  0.5728400000000 1.0
C      1  0.3762660000000  0.3593620000000  0.5732790000000 1.0
C      1  0.4801440000000  0.5487210000000  0.1926800000000 1.0
C      1  0.4797490000000  0.4504850000000  0.1928330000000 1.0
C      1  0.4228950000000  0.4530660000000  0.3516700000000 1.0
C      1  0.4232740000000  0.5470920000000  0.3515240000000 1.0
C      1  0.4514050000000  0.4052890000000  0.5226720000000 1.0
C      1  0.4521700000000  0.5951700000000  0.5223770000000 1.0
C      1  0.6904250000000  0.3865880000000  0.5832850000000 1.0
C      1  0.6913330000000  0.6121320000000  0.5829350000000 1.0
C      1  0.5126770000000  0.3188120000000  0.3171990000000 1.0
C      1  0.5141340000000  0.6805100000000  0.3166370000000 1.0
C      1  0.5642290000000  0.3073410000000  0.6698950000000 1.0
C      1  0.5657820000000  0.6926630000000  0.6692960000000 1.0
C      1  0.4240550000000  0.6137580000000  0.4246310000000 1.0
C      1  0.4231400000000  0.3866240000000  0.4249840000000 1.0
C      1  0.3391020000000  0.6591290000000  0.4230650000000 1.0
C      1  0.3378240000000  0.3419340000000  0.4235590000000 1.0
C      1  0.3003790000000  0.6440200000000  0.5084910000000 1.0
C      1  0.2992260000000  0.3576200000000  0.5089360000000 1.0
C      1  0.5379100000000  0.3995600000000  0.6635160000000 1.0
C      1  0.5387210000000  0.6006390000000  0.6632040000000 1.0
C      1  0.3880200000000  0.5494620000000  0.7236850000000 1.0
C      1  0.3876280000000  0.4521380000000  0.7238360000000 1.0
C      1  0.6512350000000  0.3919570000000  0.3530470000000 1.0
C      1  0.6520990000000  0.6063630000000  0.3527130000000 1.0
C      1  0.2434640000000  0.5657000000000  0.5227980000000 1.0
C      1  0.2429430000000  0.4364410000000  0.5229990000000 1.0
C      1  0.5726350000000  0.4350820000000  0.2143830000000 1.0
C      1  0.5731520000000  0.5634430000000  0.2141830000000 1.0
C      1  0.7160890000000  0.5433690000000  0.3321220000000 1.0
C      1  0.7157300000000  0.4543690000000  0.3322600000000 1.0
C      1  0.6203810000000  0.4075660000000  0.5275280000000 1.0
C      1  0.6211230000000  0.5915460000000  0.5272420000000 1.0
C      1  0.5614270000000  0.2443410000000  0.6021260000000 1.0
C      1  0.5634870000000  0.7554720000000  0.6013310000000 1.0
C      1  0.7585580000000  0.3947410000000  0.6393410000000 1.0
C      1  0.7593990000000  0.6036050000000  0.6390160000000 1.0
C      1  0.8090610000000  0.4546700000000  0.6806100000000 1.0
C      1  0.8094190000000  0.5434000000000  0.6804730000000 1.0
C      1  0.4577140000000  0.6957200000000  0.3883560000000 1.0
C      1  0.4561370000000  0.3042810000000  0.3889640000000 1.0
C      1  0.5826150000000  0.3749070000000  0.2890080000000 1.0
C      1  0.5836170000000  0.6237670000000  0.2886210000000 1.0
C      1  0.4257360000000  0.5801420000000  0.2637920000000 1.0
C      1  0.4250900000000  0.4197250000000  0.2640410000000 1.0
C      1  0.4775470000000  0.7762290000000  0.6279280000000 1.0
C      1  0.4753240000000  0.2243600000000  0.6287860000000 1.0
C      1  0.2526710000000  0.5493490000000  0.6181020000000 1.0
C      1  0.2522830000000  0.4530130000000  0.6182520000000 1.0
C      1  0.6291980000000  0.6207530000000  0.4405070000000 1.0
C      1  0.6282210000000  0.3780260000000  0.4408840000000 1.0
C      1  0.3387840000000  0.5866950000000  0.6469810000000 1.0
C      1  0.3380920000000  0.4150640000000  0.6472480000000 1.0
END
