TITL C-2222973-3874-16 2.14351868135803e-06 125000 -364.239620536803 0 0 60 (C1) n - 1
REM
REM in /home/bkarasulu/CARBON/AIRSS/Generating-Clusters/EDIP-Nigel-Params/Higher-Symm/Box-15A/Only-C60/SD-CG/HFTN-CG
REM
REM
REM
REM
REM
REM ./C.cell (414f73aa93bd7a1190c7fd0f31ff2f98)
REM
REM compiler GCC version 9.2.1 20190827 (Red Hat 9.2.1-1)
REM options -cpp -mtune=generic -march=x86-64 -g -O0 -fpre-include=/usr/include/finclude/math-vector-fortran.h
REM seed -890678012 1201693921 -555549312 1615496547 -1389245136 1106382832 410378540 -1747659643 1575638867 -494996133 -346098 -1173259310 -1268758881 1502952961 -1474588476 -1684632455 72096458 -2122253985 -672759837 -743927916 -2110576475 1165108559 1025393997 1766347384 -1599326905 464804878 -1086134016 -1190503022 -272856272 -330301718 -844202368 327629125 -253366525
REM
CELL 1.54180   50.00000   50.00000   50.00000   90.00000   90.00000   90.00000
LATT -1
SFAC C  
C      1  0.5696840000000  0.4850410000000  0.5367910000000 1.0
C      1  0.5364770000000  0.5545610000000  0.5379800000000 1.0
C      1  0.4539820000000  0.5428250000000  0.5396110000000 1.0
C      1  0.4314830000000  0.4749730000000  0.5431380000000 1.0
C      1  0.5077690000000  0.4401250000000  0.5372960000000 1.0
C      1  0.5684000000000  0.5139900000000  0.5370210000000 1.0
C      1  0.5364820000000  0.4444660000000  0.5384730000000 1.0
C      1  0.4533410000000  0.4560680000000  0.5405560000000 1.0
C      1  0.4301880000000  0.5262380000000  0.5418200000000 1.0
C      1  0.5078550000000  0.5593220000000  0.5366010000000 1.0
C      1  0.4665390000000  0.4452440000000  0.5624910000000 1.0
C      1  0.5507670000000  0.4473950000000  0.5625810000000 1.0
C      1  0.5663270000000  0.5298880000000  0.5599000000000 1.0
C      1  0.4923470000000  0.5609640000000  0.5595580000000 1.0
C      1  0.4236780000000  0.5125370000000  0.5654830000000 1.0
C      1  0.4664130000000  0.5540300000000  0.5618060000000 1.0
C      1  0.5502050000000  0.5515450000000  0.5623600000000 1.0
C      1  0.5669560000000  0.4689580000000  0.5595030000000 1.0
C      1  0.4924500000000  0.4381960000000  0.5603680000000 1.0
C      1  0.4231620000000  0.4854750000000  0.5679880000000 1.0
C      1  0.4548960000000  0.4672370000000  0.4926840000000 1.0
C      1  0.5373820000000  0.4497690000000  0.4870850000000 1.0
C      1  0.5557000000000  0.5171730000000  0.4872790000000 1.0
C      1  0.5074250000000  0.5512200000000  0.4872360000000 1.0
C      1  0.4287540000000  0.5198330000000  0.4899860000000 1.0
C      1  0.4548060000000  0.5333170000000  0.4915900000000 1.0
C      1  0.5378450000000  0.5517980000000  0.4863480000000 1.0
C      1  0.5552860000000  0.4843500000000  0.4872160000000 1.0
C      1  0.5069260000000  0.4494380000000  0.4880390000000 1.0
C      1  0.4288750000000  0.4809070000000  0.4911590000000 1.0
C      1  0.5534040000000  0.4815530000000  0.4371830000000 1.0
C      1  0.5361620000000  0.5418720000000  0.4347530000000 1.0
C      1  0.4770360000000  0.5281980000000  0.4456340000000 1.0
C      1  0.4524680000000  0.4852010000000  0.4311200000000 1.0
C      1  0.4985050000000  0.4550710000000  0.4375890000000 1.0
C      1  0.5539160000000  0.5192340000000  0.4367530000000 1.0
C      1  0.5359060000000  0.4586340000000  0.4356580000000 1.0
C      1  0.4769080000000  0.4720170000000  0.4462930000000 1.0
C      1  0.4526180000000  0.5148230000000  0.4305890000000 1.0
C      1  0.4986850000000  0.5449820000000  0.4368460000000 1.0
C      1  0.4577460000000  0.5416510000000  0.4647190000000 1.0
C      1  0.4337630000000  0.4735270000000  0.4534030000000 1.0
C      1  0.5056770000000  0.4371740000000  0.4596500000000 1.0
C      1  0.5705050000000  0.4854050000000  0.4603510000000 1.0
C      1  0.5364650000000  0.5625940000000  0.4557480000000 1.0
C      1  0.4576670000000  0.4590200000000  0.4657460000000 1.0
C      1  0.4338000000000  0.5272680000000  0.4522280000000 1.0
C      1  0.5057110000000  0.5630420000000  0.4587790000000 1.0
C      1  0.5709050000000  0.5156020000000  0.4601510000000 1.0
C      1  0.5366160000000  0.4382530000000  0.4570810000000 1.0
C      1  0.4652900000000  0.5482040000000  0.5137480000000 1.0
C      1  0.4173780000000  0.4851910000000  0.5190280000000 1.0
C      1  0.4927550000000  0.4426490000000  0.5125750000000 1.0
C      1  0.5682550000000  0.4708040000000  0.5113000000000 1.0
C      1  0.5525470000000  0.5530790000000  0.5134040000000 1.0
C      1  0.4651740000000  0.4518580000000  0.5146760000000 1.0
C      1  0.4173250000000  0.5145330000000  0.5175980000000 1.0
C      1  0.4929730000000  0.5571450000000  0.5117950000000 1.0
C      1  0.5691380000000  0.5287020000000  0.5119220000000 1.0
C      1  0.5523000000000  0.4458300000000  0.5137320000000 1.0
END
