TITL C-2287176-801-1 -9.54297950582913e-05 125000 -370.609612246214 0 0 60 (C1) n - 1
REM
REM in /home/bkarasulu/CARBON/AIRSS/Generating-Clusters/EDIP-Nigel-Params/Higher-Symm/Box-15A/Only-C60/SD-CG/HFTN-CG
REM
REM
REM
REM
REM
REM ./C.cell (414f73aa93bd7a1190c7fd0f31ff2f98)
REM
REM compiler GCC version 9.2.1 20190827 (Red Hat 9.2.1-1)
REM options -cpp -mtune=generic -march=x86-64 -g -O0 -fpre-include=/usr/include/finclude/math-vector-fortran.h
REM seed 1741764921 -1609839986 82791716 -1573636877 450061114 1379845895 122205375 -906965623 -1786585388 112778343 56504376 -1484305413 -1617879614 -1794567400 2027765545 -96538049 1336965863 -1950627608 -946822833 -235591834 -1861893015 -148661127 -1773195910 -913988557 -824386699 -110006897 1708935074 580637162 545609838 -1494948096 -2090029795 -3900078 -1346483540
REM
CELL 1.54180   50.00000   50.00000   50.00000   90.00000   90.00000   90.00000
LATT -1
SFAC C  
C      1  0.5185700000000  0.5578970000000  0.4746850000000 1.0
C      1  0.5649010000000  0.5239570000000  0.4707080000000 1.0
C      1  0.5622740000000  0.4671710000000  0.4741090000000 1.0
C      1  0.5139930000000  0.4387850000000  0.4745540000000 1.0
C      1  0.4527780000000  0.4543290000000  0.4719010000000 1.0
C      1  0.4285240000000  0.5064890000000  0.4744410000000 1.0
C      1  0.4616480000000  0.5548010000000  0.4699760000000 1.0
C      1  0.5122990000000  0.4691160000000  0.4649210000000 1.0
C      1  0.4691410000000  0.4782940000000  0.4614750000000 1.0
C      1  0.4572700000000  0.5049690000000  0.4668180000000 1.0
C      1  0.4759660000000  0.5286320000000  0.4604120000000 1.0
C      1  0.5094540000000  0.5264990000000  0.4718940000000 1.0
C      1  0.5379760000000  0.5118760000000  0.4601420000000 1.0
C      1  0.5380420000000  0.4830410000000  0.4686430000000 1.0
C      1  0.4677580000000  0.4324970000000  0.4801140000000 1.0
C      1  0.4174810000000  0.4826270000000  0.4844730000000 1.0
C      1  0.4354770000000  0.5517050000000  0.4798330000000 1.0
C      1  0.5008180000000  0.5791700000000  0.4780790000000 1.0
C      1  0.5631140000000  0.5494210000000  0.4818200000000 1.0
C      1  0.5854610000000  0.4812650000000  0.4811940000000 1.0
C      1  0.5383770000000  0.4260110000000  0.4801570000000 1.0
C      1  0.4782870000000  0.4776930000000  0.4330200000000 1.0
C      1  0.4748270000000  0.5027970000000  0.4204500000000 1.0
C      1  0.4827880000000  0.5274900000000  0.4311790000000 1.0
C      1  0.5102430000000  0.5315390000000  0.4277190000000 1.0
C      1  0.5313990000000  0.5134960000000  0.4308600000000 1.0
C      1  0.5237520000000  0.4881590000000  0.4214640000000 1.0
C      1  0.5064090000000  0.4706060000000  0.4353080000000 1.0
C      1  0.4995640000000  0.5364850000000  0.5559500000000 1.0
C      1  0.5365620000000  0.5139740000000  0.5557490000000 1.0
C      1  0.5405550000000  0.4846890000000  0.5552340000000 1.0
C      1  0.5171160000000  0.4657560000000  0.5567450000000 1.0
C      1  0.4787350000000  0.4725250000000  0.5571000000000 1.0
C      1  0.4623130000000  0.4984040000000  0.5531820000000 1.0
C      1  0.4712580000000  0.5272170000000  0.5538270000000 1.0
C      1  0.5762460000000  0.5058180000000  0.4914890000000 1.0
C      1  0.5542250000000  0.4453060000000  0.4926780000000 1.0
C      1  0.4923620000000  0.4314460000000  0.4930020000000 1.0
C      1  0.4352160000000  0.4628940000000  0.4938700000000 1.0
C      1  0.4265290000000  0.5287950000000  0.4932200000000 1.0
C      1  0.4782540000000  0.5682530000000  0.4901590000000 1.0
C      1  0.5400020000000  0.5587620000000  0.4941240000000 1.0
C      1  0.4428200000000  0.4955760000000  0.5313010000000 1.0
C      1  0.4592890000000  0.5412020000000  0.5304720000000 1.0
C      1  0.5061160000000  0.5529020000000  0.5318360000000 1.0
C      1  0.5491440000000  0.5267920000000  0.5321640000000 1.0
C      1  0.5565000000000  0.4791870000000  0.5310250000000 1.0
C      1  0.5197210000000  0.4477760000000  0.5330930000000 1.0
C      1  0.4707530000000  0.4556130000000  0.5331810000000 1.0
C      1  0.5594480000000  0.5043770000000  0.5161490000000 1.0
C      1  0.5425030000000  0.4576050000000  0.5171590000000 1.0
C      1  0.4943070000000  0.4457980000000  0.5186500000000 1.0
C      1  0.4510620000000  0.4712740000000  0.5174180000000 1.0
C      1  0.4434640000000  0.5211750000000  0.5164320000000 1.0
C      1  0.4816940000000  0.5529940000000  0.5154500000000 1.0
C      1  0.5308720000000  0.5447280000000  0.5181650000000 1.0
C      1  0.4993490000000  0.4954000000000  0.5098800000000 1.0
C      1  0.4975920000000  0.4958010000000  0.4814630000000 1.0
C      1  0.5036970000000  0.5019290000000  0.5377840000000 1.0
C      1  0.5024970000000  0.5004330000000  0.5709780000000 1.0
END
