TITL C-2222975-3889-6 5.66842083921233e-05 125000 -352.871483870364 0 0 60 (C1) n - 1
REM
REM in /home/bkarasulu/CARBON/AIRSS/Generating-Clusters/EDIP-Nigel-Params/Higher-Symm/Box-15A/Only-C60/SD-CG/HFTN-CG
REM
REM
REM
REM
REM
REM ./C.cell (414f73aa93bd7a1190c7fd0f31ff2f98)
REM
REM compiler GCC version 9.2.1 20190827 (Red Hat 9.2.1-1)
REM options -cpp -mtune=generic -march=x86-64 -g -O0 -fpre-include=/usr/include/finclude/math-vector-fortran.h
REM seed -2064398332 -1715820643 -1385471042 384336142 146776005 10621933 -1289573150 -792952197 -768970116 1202339980 1098114314 557463717 1106532600 677456120 1607278710 1622963922 1675850718 388090765 -232236420 410633588 -1839531876 -600105696 757467506 2024821692 1251415551 1489776778 -1880627438 53254569 2067614033 2061200877 1829779130 56548115 -1049089228
REM
CELL 1.54180   50.00000   50.00000   50.00000   90.00000   90.00000   90.00000
LATT -1
SFAC C  
C      1  0.5963200000000  0.4562360000000  0.5041470000000 1.0
C      1  0.5394990000000  0.5977130000000  0.5113430000000 1.0
C      1  0.4263100000000  0.5646130000000  0.5028410000000 1.0
C      1  0.4474250000000  0.4039890000000  0.4926830000000 1.0
C      1  0.5778690000000  0.5390620000000  0.4918240000000 1.0
C      1  0.5357000000000  0.4300610000000  0.5162770000000 1.0
C      1  0.4298190000000  0.4655490000000  0.5102380000000 1.0
C      1  0.4619030000000  0.5784040000000  0.5007890000000 1.0
C      1  0.4555480000000  0.4642980000000  0.5231010000000 1.0
C      1  0.5308580000000  0.4563650000000  0.5264810000000 1.0
C      1  0.5568400000000  0.5383590000000  0.5256320000000 1.0
C      1  0.4724990000000  0.5419700000000  0.5325300000000 1.0
C      1  0.4502510000000  0.5229200000000  0.5312740000000 1.0
C      1  0.5272880000000  0.5426730000000  0.5197750000000 1.0
C      1  0.5505240000000  0.4774600000000  0.5292470000000 1.0
C      1  0.4734900000000  0.4411970000000  0.5255800000000 1.0
C      1  0.4911870000000  0.5264150000000  0.5480770000000 1.0
C      1  0.4595240000000  0.4759620000000  0.5491530000000 1.0
C      1  0.5139870000000  0.4621810000000  0.5489520000000 1.0
C      1  0.5404300000000  0.5196760000000  0.5553150000000 1.0
C      1  0.4877020000000  0.4509650000000  0.5502520000000 1.0
C      1  0.4600690000000  0.5040440000000  0.5516250000000 1.0
C      1  0.5179410000000  0.5355450000000  0.5460240000000 1.0
C      1  0.5384130000000  0.4915130000000  0.5520870000000 1.0
C      1  0.4357290000000  0.4244670000000  0.4779900000000 1.0
C      1  0.5811230000000  0.4375060000000  0.4903340000000 1.0
C      1  0.5578310000000  0.5887010000000  0.4924920000000 1.0
C      1  0.4288650000000  0.5701410000000  0.4743210000000 1.0
C      1  0.4541200000000  0.5828100000000  0.4736760000000 1.0
C      1  0.5724560000000  0.5655490000000  0.4956300000000 1.0
C      1  0.5581940000000  0.4267020000000  0.5007760000000 1.0
C      1  0.4259940000000  0.4471710000000  0.4900270000000 1.0
C      1  0.4872030000000  0.4570590000000  0.4473940000000 1.0
C      1  0.5189230000000  0.4903180000000  0.4318230000000 1.0
C      1  0.5012460000000  0.5351090000000  0.4353700000000 1.0
C      1  0.4663180000000  0.5011770000000  0.4422700000000 1.0
C      1  0.4748170000000  0.5281960000000  0.4451580000000 1.0
C      1  0.5229210000000  0.5164870000000  0.4403720000000 1.0
C      1  0.5152910000000  0.4661890000000  0.4452840000000 1.0
C      1  0.4670280000000  0.4767730000000  0.4578760000000 1.0
C      1  0.4716270000000  0.4146630000000  0.4841390000000 1.0
C      1  0.5809940000000  0.4751800000000  0.4907220000000 1.0
C      1  0.5204890000000  0.5854010000000  0.4951700000000 1.0
C      1  0.4218820000000  0.5378980000000  0.4937290000000 1.0
C      1  0.4807700000000  0.5582400000000  0.5095260000000 1.0
C      1  0.5721900000000  0.5182580000000  0.5102090000000 1.0
C      1  0.5124760000000  0.4171320000000  0.5087840000000 1.0
C      1  0.4215570000000  0.4918500000000  0.5065750000000 1.0
C      1  0.5308180000000  0.5191230000000  0.4688100000000 1.0
C      1  0.4778010000000  0.5330290000000  0.4732200000000 1.0
C      1  0.4757650000000  0.4814260000000  0.4875410000000 1.0
C      1  0.5255830000000  0.4671330000000  0.4738560000000 1.0
C      1  0.5359160000000  0.4936240000000  0.4842520000000 1.0
C      1  0.4964290000000  0.4580630000000  0.4840940000000 1.0
C      1  0.4615600000000  0.5089890000000  0.4828160000000 1.0
C      1  0.5077350000000  0.5416660000000  0.4731470000000 1.0
C      1  0.5597340000000  0.4914440000000  0.5038370000000 1.0
C      1  0.5100400000000  0.5580480000000  0.5003360000000 1.0
C      1  0.4382400000000  0.5153800000000  0.5038750000000 1.0
C      1  0.4889420000000  0.4319260000000  0.5009860000000 1.0
END
