TITL C-2217058-9242-2 -8.77316964334175e-07 125000 -359.983972365179 0 0 60 (D5) n - 1
REM
REM in /home/bkarasulu/CARBON/AIRSS/Generating-Clusters/EDIP-Nigel-Params/Higher-Symm/Box-15A/Only-C60/SD-CG/HFTN-CG/50A
REM
REM
REM
REM
REM
REM ./C.cell (414f73aa93bd7a1190c7fd0f31ff2f98)
REM
REM compiler GCC version 9.2.1 20190827 (Red Hat 9.2.1-1)
REM options -cpp -mtune=generic -march=x86-64 -g -O0 -fpre-include=/usr/include/finclude/math-vector-fortran.h
REM seed -1543470779 -1588414882 -1864720017 -373465234 1528701415 -491297399 -1928384449 296415821 -1891061918 324433510 -715901639 -529125942 -1346866905 -1492600178 -1117917086 -803684365 -1963069183 -793626382 744901207 -1551080087 -1119100945 1859784637 1232699559 -191011785 -282128543 1451616610 1062688342 -1661165851 -1164870827 471294465 1480654767 -497909794 -108337095
REM
CELL 1.54180   50.00000   50.00000   50.00000   90.00000   90.00000   90.00000
LATT -1
SFAC C  
C      1  0.5639280000000  0.5019930000000  0.4721110000000 1.0
C      1  0.4932160000000  0.5016710000000  0.4305750000000 1.0
C      1  0.4318650000000  0.5009940000000  0.4849910000000 1.0
C      1  0.4646600000000  0.5008970000000  0.5601570000000 1.0
C      1  0.5462800000000  0.5015150000000  0.5521970000000 1.0
C      1  0.5638510000000  0.4989180000000  0.5281150000000 1.0
C      1  0.4929960000000  0.4982310000000  0.5694000000000 1.0
C      1  0.4318340000000  0.4980340000000  0.5147680000000 1.0
C      1  0.4648890000000  0.4986000000000  0.4397180000000 1.0
C      1  0.5464810000000  0.4991470000000  0.4479670000000 1.0
C      1  0.5517870000000  0.5506880000000  0.4907760000000 1.0
C      1  0.5067710000000  0.5505560000000  0.4477080000000 1.0
C      1  0.4519020000000  0.5500340000000  0.4772110000000 1.0
C      1  0.4630070000000  0.5498440000000  0.5385140000000 1.0
C      1  0.5247390000000  0.5502480000000  0.5468970000000 1.0
C      1  0.5524720000000  0.4500560000000  0.5094080000000 1.0
C      1  0.5073060000000  0.4495450000000  0.5523170000000 1.0
C      1  0.4525400000000  0.4492840000000  0.5226200000000 1.0
C      1  0.4638580000000  0.4496340000000  0.4613570000000 1.0
C      1  0.5256190000000  0.4501110000000  0.4531920000000 1.0
C      1  0.4490370000000  0.4728510000000  0.4438000000000 1.0
C      1  0.4310510000000  0.4723380000000  0.5312020000000 1.0
C      1  0.5086170000000  0.4726970000000  0.5753190000000 1.0
C      1  0.5745410000000  0.4734330000000  0.5151830000000 1.0
C      1  0.5377180000000  0.4735270000000  0.4339000000000 1.0
C      1  0.4484570000000  0.5264180000000  0.5560180000000 1.0
C      1  0.4307750000000  0.5266770000000  0.4685540000000 1.0
C      1  0.5084930000000  0.5274250000000  0.4247110000000 1.0
C      1  0.5742070000000  0.5276280000000  0.4850800000000 1.0
C      1  0.5371030000000  0.5270060000000  0.5662320000000 1.0
C      1  0.5025740000000  0.4538940000000  0.5242050000000 1.0
C      1  0.5242350000000  0.4541320000000  0.5052050000000 1.0
C      1  0.5128580000000  0.4541670000000  0.4787320000000 1.0
C      1  0.4841650000000  0.4539510000000  0.4813710000000 1.0
C      1  0.4778100000000  0.4537820000000  0.5094750000000 1.0
C      1  0.5020020000000  0.5461390000000  0.4758030000000 1.0
C      1  0.5235970000000  0.5462090000000  0.4948800000000 1.0
C      1  0.5121280000000  0.5460110000000  0.5213130000000 1.0
C      1  0.4834440000000  0.5458180000000  0.5185720000000 1.0
C      1  0.4771860000000  0.5458970000000  0.4904450000000 1.0
C      1  0.4571650000000  0.4518540000000  0.5515040000000 1.0
C      1  0.5361810000000  0.4523950000000  0.5568350000000 1.0
C      1  0.5656660000000  0.4529290000000  0.4833330000000 1.0
C      1  0.5048730000000  0.4527180000000  0.4325740000000 1.0
C      1  0.4378150000000  0.4520540000000  0.4747060000000 1.0
C      1  0.4566640000000  0.5475310000000  0.4483440000000 1.0
C      1  0.5356990000000  0.5481180000000  0.4432920000000 1.0
C      1  0.5649290000000  0.5480030000000  0.5168980000000 1.0
C      1  0.5039600000000  0.5473450000000  0.5674410000000 1.0
C      1  0.4370490000000  0.5470540000000  0.5250720000000 1.0
C      1  0.5782170000000  0.4791450000000  0.4834190000000 1.0
C      1  0.5085940000000  0.4789240000000  0.4205660000000 1.0
C      1  0.4273070000000  0.4781380000000  0.4673580000000 1.0
C      1  0.4466910000000  0.4778730000000  0.5591290000000 1.0
C      1  0.5399580000000  0.4784950000000  0.5690550000000 1.0
C      1  0.5778520000000  0.5219680000000  0.5168570000000 1.0
C      1  0.5080120000000  0.5211940000000  0.5794630000000 1.0
C      1  0.4268870000000  0.5208220000000  0.5323840000000 1.0
C      1  0.4465900000000  0.5213660000000  0.4406820000000 1.0
C      1  0.5398910000000  0.5220750000000  0.4310860000000 1.0
END
