TITL C-2222974-2064-6 -1.55028682608366e-06 125000 -370.09339847427 0 0 60 (C1) n - 1
REM
REM in /home/bkarasulu/CARBON/AIRSS/Generating-Clusters/EDIP-Nigel-Params/Higher-Symm/Box-15A/Only-C60/SD-CG/HFTN-CG
REM
REM
REM
REM
REM
REM ./C.cell (414f73aa93bd7a1190c7fd0f31ff2f98)
REM
REM compiler GCC version 9.2.1 20190827 (Red Hat 9.2.1-1)
REM options -cpp -mtune=generic -march=x86-64 -g -O0 -fpre-include=/usr/include/finclude/math-vector-fortran.h
REM seed 74923968 273962258 -1205275489 -1297834063 424834714 -1946362120 1840238042 301982827 -14174687 -1582880862 1105852957 -654671271 -816841498 -611139157 -710932891 150329157 1678366749 73431113 -1441741602 -2046274757 -1280764449 -794164897 1515093655 902386843 1349889148 -1847930498 -1325363956 1415964723 -204485150 1715620549 -1300475758 -1105487194 2053145944
REM
CELL 1.54180   50.00000   50.00000   50.00000   90.00000   90.00000   90.00000
LATT -1
SFAC C  
C      1  0.4512670000000  0.5201910000000  0.5371920000000 1.0
C      1  0.4906210000000  0.5116800000000  0.4751650000000 1.0
C      1  0.4330530000000  0.4777860000000  0.5237750000000 1.0
C      1  0.5162910000000  0.5103740000000  0.5705000000000 1.0
C      1  0.4415250000000  0.5330920000000  0.4882950000000 1.0
C      1  0.5641820000000  0.4896700000000  0.5143790000000 1.0
C      1  0.5435910000000  0.4803460000000  0.4430180000000 1.0
C      1  0.5039810000000  0.5607250000000  0.4650100000000 1.0
C      1  0.5001130000000  0.4977610000000  0.4291190000000 1.0
C      1  0.5285330000000  0.5493930000000  0.4588380000000 1.0
C      1  0.5191580000000  0.5546030000000  0.5512160000000 1.0
C      1  0.5175660000000  0.4328900000000  0.5234650000000 1.0
C      1  0.4704900000000  0.4965530000000  0.4342520000000 1.0
C      1  0.4634170000000  0.4431430000000  0.4798930000000 1.0
C      1  0.4719080000000  0.4653550000000  0.4975350000000 1.0
C      1  0.5408040000000  0.5489940000000  0.5316440000000 1.0
C      1  0.5211440000000  0.4416990000000  0.4765000000000 1.0
C      1  0.4379660000000  0.4866620000000  0.4708900000000 1.0
C      1  0.4798750000000  0.4468040000000  0.5660870000000 1.0
C      1  0.4537640000000  0.5205050000000  0.4383250000000 1.0
C      1  0.4864420000000  0.5209910000000  0.5028510000000 1.0
C      1  0.5273760000000  0.4677530000000  0.5548680000000 1.0
C      1  0.5632530000000  0.4990500000000  0.4864060000000 1.0
C      1  0.5033770000000  0.4612670000000  0.4613930000000 1.0
C      1  0.4716930000000  0.5672930000000  0.5067440000000 1.0
C      1  0.4955820000000  0.4808810000000  0.4840160000000 1.0
C      1  0.4357860000000  0.5158810000000  0.4631680000000 1.0
C      1  0.5419770000000  0.5377910000000  0.4817070000000 1.0
C      1  0.5670780000000  0.5256930000000  0.4790800000000 1.0
C      1  0.5163280000000  0.4759800000000  0.4390890000000 1.0
C      1  0.4596490000000  0.5557820000000  0.4828680000000 1.0
C      1  0.5063640000000  0.4292940000000  0.4983130000000 1.0
C      1  0.4750100000000  0.4514300000000  0.4556190000000 1.0
C      1  0.5032010000000  0.4627040000000  0.5701300000000 1.0
C      1  0.5563710000000  0.4775290000000  0.4678280000000 1.0
C      1  0.5140770000000  0.5203280000000  0.4201150000000 1.0
C      1  0.4752630000000  0.4819800000000  0.5511760000000 1.0
C      1  0.4807490000000  0.5438690000000  0.4644930000000 1.0
C      1  0.4688190000000  0.5443900000000  0.4377550000000 1.0
C      1  0.5623190000000  0.5331250000000  0.5404320000000 1.0
C      1  0.5534570000000  0.5066170000000  0.5367340000000 1.0
C      1  0.4567810000000  0.5154230000000  0.5078450000000 1.0
C      1  0.4943860000000  0.5066460000000  0.5492970000000 1.0
C      1  0.5389360000000  0.4942380000000  0.5597000000000 1.0
C      1  0.4840690000000  0.4506840000000  0.5222220000000 1.0
C      1  0.4572580000000  0.4746620000000  0.4490890000000 1.0
C      1  0.5271830000000  0.5385710000000  0.5079650000000 1.0
C      1  0.4906240000000  0.5545780000000  0.5384020000000 1.0
C      1  0.5069060000000  0.5075150000000  0.5211180000000 1.0
C      1  0.5124650000000  0.4816830000000  0.5090810000000 1.0
C      1  0.4471770000000  0.4914880000000  0.5445550000000 1.0
C      1  0.5221820000000  0.5378170000000  0.5737460000000 1.0
C      1  0.4671190000000  0.4396840000000  0.5423700000000 1.0
C      1  0.5542920000000  0.4613020000000  0.5132740000000 1.0
C      1  0.5297790000000  0.5376680000000  0.4336100000000 1.0
C      1  0.4761530000000  0.5304120000000  0.5500270000000 1.0
C      1  0.4961490000000  0.5498250000000  0.5076020000000 1.0
C      1  0.5274150000000  0.4605170000000  0.5259160000000 1.0
C      1  0.4488620000000  0.4855570000000  0.5004750000000 1.0
C      1  0.5488420000000  0.4538760000000  0.4838250000000 1.0
END
