TITL C-2222979-9684-3 9.1943639694826e-07 125000 -369.42607382998 0 0 60 (C1) n - 1
REM
REM in /home/bkarasulu/CARBON/AIRSS/Generating-Clusters/EDIP-Nigel-Params/Higher-Symm/Box-15A/Only-C60/SD-CG/HFTN-CG
REM
REM
REM
REM
REM
REM ./C.cell (414f73aa93bd7a1190c7fd0f31ff2f98)
REM
REM compiler GCC version 9.2.1 20190827 (Red Hat 9.2.1-1)
REM options -cpp -mtune=generic -march=x86-64 -g -O0 -fpre-include=/usr/include/finclude/math-vector-fortran.h
REM seed 562930261 2032724153 -1052943815 281726124 594872877 -1112036495 -1950421294 -1037228362 -1945514578 1833074726 863646954 -250273347 1875998946 631962323 -1594078718 -769079976 -281747192 406276823 -965303562 -1967166856 1215950904 -391799868 -1529787894 1913434804 1114497941 56494412 -221854637 -1889092084 868134904 -1022338028 -1793570085 -2059753808 1874171210
REM
CELL 1.54180   50.00000   50.00000   50.00000   90.00000   90.00000   90.00000
LATT -1
SFAC C  
C      1  0.5579660000000  0.5105540000000  0.5482140000000 1.0
C      1  0.4629590000000  0.5402590000000  0.5442130000000 1.0
C      1  0.4838030000000  0.4464770000000  0.5455840000000 1.0
C      1  0.4520810000000  0.5157120000000  0.4566100000000 1.0
C      1  0.5356600000000  0.5342500000000  0.4621200000000 1.0
C      1  0.5110980000000  0.4504970000000  0.4579170000000 1.0
C      1  0.4470320000000  0.4875830000000  0.4530410000000 1.0
C      1  0.5382330000000  0.4586020000000  0.4536440000000 1.0
C      1  0.5145770000000  0.5536940000000  0.4562430000000 1.0
C      1  0.5493340000000  0.4837540000000  0.5426560000000 1.0
C      1  0.4630940000000  0.4659160000000  0.5411250000000 1.0
C      1  0.4895720000000  0.5506780000000  0.5409890000000 1.0
C      1  0.4437120000000  0.5435110000000  0.5234430000000 1.0
C      1  0.4915400000000  0.4289390000000  0.5245000000000 1.0
C      1  0.5714480000000  0.5227890000000  0.5272150000000 1.0
C      1  0.5497900000000  0.5372250000000  0.4871710000000 1.0
C      1  0.5057320000000  0.4386830000000  0.4836360000000 1.0
C      1  0.4449300000000  0.5261190000000  0.4826180000000 1.0
C      1  0.5569270000000  0.4577010000000  0.4750820000000 1.0
C      1  0.5084300000000  0.5746360000000  0.4748030000000 1.0
C      1  0.4361900000000  0.4722730000000  0.4744730000000 1.0
C      1  0.4488080000000  0.4633190000000  0.5160920000000 1.0
C      1  0.4954610000000  0.5606260000000  0.5146610000000 1.0
C      1  0.5569860000000  0.4738390000000  0.5164030000000 1.0
C      1  0.5400020000000  0.5126300000000  0.4438360000000 1.0
C      1  0.4615810000000  0.5323150000000  0.4352780000000 1.0
C      1  0.4914740000000  0.4536840000000  0.4373830000000 1.0
C      1  0.4557840000000  0.5227800000000  0.5655100000000 1.0
C      1  0.5430570000000  0.5266950000000  0.5662320000000 1.0
C      1  0.5028750000000  0.4499070000000  0.5664200000000 1.0
C      1  0.4557090000000  0.4843480000000  0.5616930000000 1.0
C      1  0.5365840000000  0.4684320000000  0.5631260000000 1.0
C      1  0.5096420000000  0.5455430000000  0.5606360000000 1.0
C      1  0.5447520000000  0.4757360000000  0.4319440000000 1.0
C      1  0.4583420000000  0.4723450000000  0.4318170000000 1.0
C      1  0.4955170000000  0.5503640000000  0.4350160000000 1.0
C      1  0.4734680000000  0.4868090000000  0.5848620000000 1.0
C      1  0.5252650000000  0.4832130000000  0.5858530000000 1.0
C      1  0.5022010000000  0.5291860000000  0.5835640000000 1.0
C      1  0.5227420000000  0.4847590000000  0.4139500000000 1.0
C      1  0.4730760000000  0.4840980000000  0.4098070000000 1.0
C      1  0.5009690000000  0.5297690000000  0.4157210000000 1.0
C      1  0.5165980000000  0.5092530000000  0.4278760000000 1.0
C      1  0.4736700000000  0.5200880000000  0.4111830000000 1.0
C      1  0.4979330000000  0.4675570000000  0.4123410000000 1.0
C      1  0.4750570000000  0.5161600000000  0.5863280000000 1.0
C      1  0.5268560000000  0.5136480000000  0.5866920000000 1.0
C      1  0.4988420000000  0.4701800000000  0.5868750000000 1.0
C      1  0.4568180000000  0.4462150000000  0.4943750000000 1.0
C      1  0.5660770000000  0.4900360000000  0.4942130000000 1.0
C      1  0.4761580000000  0.5645970000000  0.4938210000000 1.0
C      1  0.5501040000000  0.4492860000000  0.5022300000000 1.0
C      1  0.4320430000000  0.4823970000000  0.5015070000000 1.0
C      1  0.5190640000000  0.5723960000000  0.5019870000000 1.0
C      1  0.5440670000000  0.5598700000000  0.5022640000000 1.0
C      1  0.4348330000000  0.5108410000000  0.5046960000000 1.0
C      1  0.5243720000000  0.4366210000000  0.5053310000000 1.0
C      1  0.4504820000000  0.5515500000000  0.4960650000000 1.0
C      1  0.5675630000000  0.5181480000000  0.4998930000000 1.0
C      1  0.4810640000000  0.4309080000000  0.4972220000000 1.0
END
