TITL C-2222968-1352-19 -4.36088706909849e-06 125000 -369.299059137584 0 0 60 (C1) n - 1
REM
REM in /home/bkarasulu/CARBON/AIRSS/Generating-Clusters/EDIP-Nigel-Params/Higher-Symm/Box-15A/Only-C60/SD-CG/HFTN-CG
REM
REM
REM
REM
REM
REM ./C.cell (414f73aa93bd7a1190c7fd0f31ff2f98)
REM
REM compiler GCC version 9.2.1 20190827 (Red Hat 9.2.1-1)
REM options -cpp -mtune=generic -march=x86-64 -g -O0 -fpre-include=/usr/include/finclude/math-vector-fortran.h
REM seed -1242151414 1850308559 1881878337 1264098092 671197338 376188179 -169678515 -1383178854 401931345 1146092141 1412534435 -641303341 1887710534 2051810927 -15028280 -888960808 1878448233 328155713 -169690940 -477592828 -1724764752 -503462505 603724812 -157009112 -2099385038 481969272 -933837441 1154437745 1892678076 761416109 -1345759943 -1494159371 -1200797109
REM
CELL 1.54180   50.00000   50.00000   50.00000   90.00000   90.00000   90.00000
LATT -1
SFAC C  
C      1  0.5560140000000  0.4917260000000  0.4859030000000 1.0
C      1  0.4218210000000  0.4645480000000  0.5222620000000 1.0
C      1  0.4527510000000  0.5393270000000  0.4988080000000 1.0
C      1  0.5262390000000  0.5747630000000  0.5277470000000 1.0
C      1  0.4515370000000  0.5015590000000  0.5306630000000 1.0
C      1  0.5065680000000  0.5002660000000  0.4756610000000 1.0
C      1  0.4931930000000  0.5307060000000  0.5558550000000 1.0
C      1  0.5479740000000  0.4472810000000  0.5015030000000 1.0
C      1  0.5697200000000  0.5177090000000  0.4791970000000 1.0
C      1  0.5421520000000  0.5450940000000  0.4489180000000 1.0
C      1  0.5384840000000  0.5293450000000  0.5404550000000 1.0
C      1  0.4361050000000  0.4784660000000  0.5418610000000 1.0
C      1  0.5318030000000  0.5289750000000  0.5092220000000 1.0
C      1  0.5205830000000  0.4425180000000  0.5423120000000 1.0
C      1  0.4353230000000  0.5182270000000  0.5111760000000 1.0
C      1  0.5217680000000  0.4847620000000  0.5184750000000 1.0
C      1  0.5221520000000  0.4539720000000  0.5147600000000 1.0
C      1  0.4636730000000  0.5246900000000  0.4743720000000 1.0
C      1  0.4968100000000  0.5298860000000  0.5255310000000 1.0
C      1  0.5420230000000  0.5567250000000  0.4759260000000 1.0
C      1  0.4810150000000  0.5764450000000  0.5132660000000 1.0
C      1  0.4508330000000  0.4555040000000  0.4856600000000 1.0
C      1  0.4939070000000  0.4367400000000  0.5482870000000 1.0
C      1  0.4695450000000  0.5126530000000  0.5591540000000 1.0
C      1  0.5549090000000  0.4791580000000  0.5370790000000 1.0
C      1  0.5568680000000  0.5397470000000  0.4946190000000 1.0
C      1  0.4792550000000  0.5355050000000  0.4487220000000 1.0
C      1  0.4401450000000  0.5107190000000  0.4622910000000 1.0
C      1  0.5348640000000  0.4660770000000  0.5559610000000 1.0
C      1  0.4827830000000  0.5061230000000  0.4358870000000 1.0
C      1  0.5376400000000  0.4958980000000  0.4395540000000 1.0
C      1  0.5152340000000  0.5460450000000  0.4383450000000 1.0
C      1  0.4956260000000  0.4971270000000  0.5273190000000 1.0
C      1  0.5153340000000  0.4448660000000  0.4713270000000 1.0
C      1  0.4697090000000  0.4443320000000  0.5363010000000 1.0
C      1  0.5142980000000  0.5600140000000  0.4833640000000 1.0
C      1  0.4265810000000  0.5000330000000  0.4879930000000 1.0
C      1  0.4731980000000  0.4879360000000  0.5110040000000 1.0
C      1  0.5581260000000  0.5195500000000  0.4494560000000 1.0
C      1  0.5437400000000  0.4422380000000  0.4740550000000 1.0
C      1  0.4995700000000  0.4474360000000  0.4969480000000 1.0
C      1  0.4781380000000  0.4510340000000  0.4447120000000 1.0
C      1  0.4641100000000  0.4695250000000  0.4618830000000 1.0
C      1  0.4815520000000  0.4848230000000  0.5615170000000 1.0
C      1  0.5085260000000  0.4903880000000  0.4479130000000 1.0
C      1  0.5396270000000  0.5574380000000  0.5436130000000 1.0
C      1  0.4779740000000  0.4981990000000  0.4823070000000 1.0
C      1  0.4590090000000  0.4641920000000  0.5546690000000 1.0
C      1  0.4267370000000  0.4698540000000  0.4949100000000 1.0
C      1  0.5139660000000  0.4864800000000  0.5654990000000 1.0
C      1  0.5194350000000  0.5166150000000  0.5613600000000 1.0
C      1  0.5547260000000  0.4816630000000  0.4579460000000 1.0
C      1  0.5288730000000  0.5013010000000  0.4955390000000 1.0
C      1  0.5045410000000  0.4593050000000  0.4478940000000 1.0
C      1  0.5080210000000  0.5760630000000  0.5065870000000 1.0
C      1  0.4989910000000  0.5586870000000  0.4583880000000 1.0
C      1  0.4723800000000  0.4566780000000  0.5080010000000 1.0
C      1  0.4739920000000  0.5492990000000  0.5165770000000 1.0
C      1  0.4558390000000  0.4924870000000  0.4443080000000 1.0
C      1  0.5636900000000  0.4712780000000  0.5091750000000 1.0
END
