TITL C-2222970-3987-15 -1.37326760714288e-06 125000 -360.028077789572 0 0 60 (C1) n - 1
REM
REM in /home/bkarasulu/CARBON/AIRSS/Generating-Clusters/EDIP-Nigel-Params/Higher-Symm/Box-15A/Only-C60/SD-CG/HFTN-CG
REM
REM
REM
REM
REM
REM ./C.cell (414f73aa93bd7a1190c7fd0f31ff2f98)
REM
REM compiler GCC version 9.2.1 20190827 (Red Hat 9.2.1-1)
REM options -cpp -mtune=generic -march=x86-64 -g -O0 -fpre-include=/usr/include/finclude/math-vector-fortran.h
REM seed 566085099 -859507928 -1825469216 -1745773045 2097618902 1220357763 786261998 -2041038200 -1021186186 -534717418 -440661800 -12454857 -1745340864 1566322593 1107906940 462458073 260013956 1395904246 180256510 -1387334269 -1897492458 -1736392976 493358619 1194812493 -495295280 -1966321875 -1764847493 293308803 -2015303643 1192287747 -241824202 -1299955289 -535887580
REM
CELL 1.54180   50.00000   50.00000   50.00000   90.00000   90.00000   90.00000
LATT -1
SFAC C  
C      1  0.5675000000000  0.4937820000000  0.5060430000000 1.0
C      1  0.4319350000000  0.4924890000000  0.4942350000000 1.0
C      1  0.5346940000000  0.4526370000000  0.4522850000000 1.0
C      1  0.4653100000000  0.4525750000000  0.5477870000000 1.0
C      1  0.4744640000000  0.4724230000000  0.5686480000000 1.0
C      1  0.5252190000000  0.4720410000000  0.4310720000000 1.0
C      1  0.4665720000000  0.5554060000000  0.5563570000000 1.0
C      1  0.5337210000000  0.5580230000000  0.4436360000000 1.0
C      1  0.5293450000000  0.5473740000000  0.4895340000000 1.0
C      1  0.4707190000000  0.5484910000000  0.5098940000000 1.0
C      1  0.4624590000000  0.4964210000000  0.5572930000000 1.0
C      1  0.5379570000000  0.4960710000000  0.4415870000000 1.0
C      1  0.5172040000000  0.5619420000000  0.4663080000000 1.0
C      1  0.4837290000000  0.5597860000000  0.5342740000000 1.0
C      1  0.4868630000000  0.5081840000000  0.5410990000000 1.0
C      1  0.5133030000000  0.5067120000000  0.4583090000000 1.0
C      1  0.5031440000000  0.4800160000000  0.5705970000000 1.0
C      1  0.4963110000000  0.4790340000000  0.4284290000000 1.0
C      1  0.5695120000000  0.5166100000000  0.4892340000000 1.0
C      1  0.4311030000000  0.5170740000000  0.5091680000000 1.0
C      1  0.4425870000000  0.5475590000000  0.5455520000000 1.0
C      1  0.5572390000000  0.5477880000000  0.4532960000000 1.0
C      1  0.4424970000000  0.5414190000000  0.5181060000000 1.0
C      1  0.5571100000000  0.5403640000000  0.4803720000000 1.0
C      1  0.4849790000000  0.5216550000000  0.5063560000000 1.0
C      1  0.5134280000000  0.5212930000000  0.4918670000000 1.0
C      1  0.4865580000000  0.4246830000000  0.5064370000000 1.0
C      1  0.5140680000000  0.4247260000000  0.4945290000000 1.0
C      1  0.5129260000000  0.4444030000000  0.4715710000000 1.0
C      1  0.4871390000000  0.4456040000000  0.5281850000000 1.0
C      1  0.4937210000000  0.5164190000000  0.4379800000000 1.0
C      1  0.5047580000000  0.5177860000000  0.5634990000000 1.0
C      1  0.5278530000000  0.4538430000000  0.5554620000000 1.0
C      1  0.4724850000000  0.4521670000000  0.4438890000000 1.0
C      1  0.4389150000000  0.4990820000000  0.4667020000000 1.0
C      1  0.5609850000000  0.5020310000000  0.5325160000000 1.0
C      1  0.4764980000000  0.5335080000000  0.4532820000000 1.0
C      1  0.5250220000000  0.5354530000000  0.5539090000000 1.0
C      1  0.5213830000000  0.4608410000000  0.5812480000000 1.0
C      1  0.4786600000000  0.4592680000000  0.4180830000000 1.0
C      1  0.5488520000000  0.5224080000000  0.5462040000000 1.0
C      1  0.4501100000000  0.5246880000000  0.4612810000000 1.0
C      1  0.5510030000000  0.4708370000000  0.4946680000000 1.0
C      1  0.4503960000000  0.4711460000000  0.5054260000000 1.0
C      1  0.4429410000000  0.4653970000000  0.5328450000000 1.0
C      1  0.5573590000000  0.4655110000000  0.4667880000000 1.0
C      1  0.4875990000000  0.5582460000000  0.4647600000000 1.0
C      1  0.5131040000000  0.5548820000000  0.5351920000000 1.0
C      1  0.4720680000000  0.5034370000000  0.4852510000000 1.0
C      1  0.5248710000000  0.5029150000000  0.5105820000000 1.0
C      1  0.5303030000000  0.4503660000000  0.5065300000000 1.0
C      1  0.4694100000000  0.4494780000000  0.4931100000000 1.0
C      1  0.5072030000000  0.4892540000000  0.5275320000000 1.0
C      1  0.4926960000000  0.4875310000000  0.4715840000000 1.0
C      1  0.5635830000000  0.4893290000000  0.4525010000000 1.0
C      1  0.4367220000000  0.4895390000000  0.5466520000000 1.0
C      1  0.5134800000000  0.4602380000000  0.5304400000000 1.0
C      1  0.4864340000000  0.4586150000000  0.4691080000000 1.0
C      1  0.5287680000000  0.5629000000000  0.5135970000000 1.0
C      1  0.4732240000000  0.5662990000000  0.4873140000000 1.0
END
