TITL C-2222977-2433-9 -1.99001168350441e-06 125000 -367.65558671562 0 0 60 (C1) n - 1
REM
REM in /home/bkarasulu/CARBON/AIRSS/Generating-Clusters/EDIP-Nigel-Params/Higher-Symm/Box-15A/Only-C60/SD-CG/HFTN-CG
REM
REM
REM
REM
REM
REM ./C.cell (414f73aa93bd7a1190c7fd0f31ff2f98)
REM
REM compiler GCC version 9.2.1 20190827 (Red Hat 9.2.1-1)
REM options -cpp -mtune=generic -march=x86-64 -g -O0 -fpre-include=/usr/include/finclude/math-vector-fortran.h
REM seed -599030231 1897733138 -585915094 1786495573 701794858 1342524016 504475129 1475957944 37048068 -402803956 1486583701 -5419174 1549135823 -1002253433 1322310554 -1260213069 -478204726 -438716258 1038560075 -844339168 -816339846 -892120801 734625123 411272887 -1043822970 1190265236 -826309502 -1948948273 -2115163903 -1079867584 -798519216 1308940672 -1422430739
REM
CELL 1.54180   50.00000   50.00000   50.00000   90.00000   90.00000   90.00000
LATT -1
SFAC C  
C      1  0.4731960000000  0.5135240000000  0.4388780000000 1.0
C      1  0.5291790000000  0.5227380000000  0.4387280000000 1.0
C      1  0.5034430000000  0.4582720000000  0.4369570000000 1.0
C      1  0.5168230000000  0.5728450000000  0.5466740000000 1.0
C      1  0.5545640000000  0.4515520000000  0.5475480000000 1.0
C      1  0.4345740000000  0.4772530000000  0.5473700000000 1.0
C      1  0.5107030000000  0.5431790000000  0.4389420000000 1.0
C      1  0.5277100000000  0.4740800000000  0.4358410000000 1.0
C      1  0.4651590000000  0.4872140000000  0.4424400000000 1.0
C      1  0.4757770000000  0.5331740000000  0.5025640000000 1.0
C      1  0.5343350000000  0.5039670000000  0.5040200000000 1.0
C      1  0.4867460000000  0.4609750000000  0.5044650000000 1.0
C      1  0.5457480000000  0.5313500000000  0.5291970000000 1.0
C      1  0.5031250000000  0.4392950000000  0.5324380000000 1.0
C      1  0.4465330000000  0.5195260000000  0.5237120000000 1.0
C      1  0.5313830000000  0.4987540000000  0.4541400000000 1.0
C      1  0.4831900000000  0.4670780000000  0.4561260000000 1.0
C      1  0.4864150000000  0.5342890000000  0.4534230000000 1.0
C      1  0.4378800000000  0.4821030000000  0.4442450000000 1.0
C      1  0.5192420000000  0.5682250000000  0.4475360000000 1.0
C      1  0.5405840000000  0.4495420000000  0.4445410000000 1.0
C      1  0.5477400000000  0.4471030000000  0.4722360000000 1.0
C      1  0.4288360000000  0.4776950000000  0.4703720000000 1.0
C      1  0.5183000000000  0.5755900000000  0.4745540000000 1.0
C      1  0.4337080000000  0.5233500000000  0.4978530000000 1.0
C      1  0.5527790000000  0.5430490000000  0.5020630000000 1.0
C      1  0.5084450000000  0.4250720000000  0.5032960000000 1.0
C      1  0.4226420000000  0.5004260000000  0.4859340000000 1.0
C      1  0.5385110000000  0.5648430000000  0.4911160000000 1.0
C      1  0.5328390000000  0.4301790000000  0.4894660000000 1.0
C      1  0.4865190000000  0.4771760000000  0.5592390000000 1.0
C      1  0.4877200000000  0.5277630000000  0.5612370000000 1.0
C      1  0.5296970000000  0.5013310000000  0.5578850000000 1.0
C      1  0.4440440000000  0.4560190000000  0.4843050000000 1.0
C      1  0.4906360000000  0.5747790000000  0.4860580000000 1.0
C      1  0.5593300000000  0.4718270000000  0.4840500000000 1.0
C      1  0.4579050000000  0.4656300000000  0.5081950000000 1.0
C      1  0.4901880000000  0.5581550000000  0.5106370000000 1.0
C      1  0.5464450000000  0.4777710000000  0.5092730000000 1.0
C      1  0.5620150000000  0.4752650000000  0.5337880000000 1.0
C      1  0.4493750000000  0.4570780000000  0.5342890000000 1.0
C      1  0.4903210000000  0.5689260000000  0.5380090000000 1.0
C      1  0.5314770000000  0.5485900000000  0.5499300000000 1.0
C      1  0.5261570000000  0.4529090000000  0.5476830000000 1.0
C      1  0.4458980000000  0.5032890000000  0.5479180000000 1.0
C      1  0.4760410000000  0.5526450000000  0.5561150000000 1.0
C      1  0.5567170000000  0.5000700000000  0.5482220000000 1.0
C      1  0.4763220000000  0.4526300000000  0.5465600000000 1.0
C      1  0.4671810000000  0.4438060000000  0.4682560000000 1.0
C      1  0.4686150000000  0.5641480000000  0.4684420000000 1.0
C      1  0.5583850000000  0.4975890000000  0.4675010000000 1.0
C      1  0.5166940000000  0.5266430000000  0.5623870000000 1.0
C      1  0.5151260000000  0.4766920000000  0.5600180000000 1.0
C      1  0.4727220000000  0.5029220000000  0.5595780000000 1.0
C      1  0.5134270000000  0.5006430000000  0.4804270000000 1.0
C      1  0.4967380000000  0.4763740000000  0.4809980000000 1.0
C      1  0.4939700000000  0.5229760000000  0.4800280000000 1.0
C      1  0.4842150000000  0.4267350000000  0.4861060000000 1.0
C      1  0.4535350000000  0.5413860000000  0.4820330000000 1.0
C      1  0.5624820000000  0.5219940000000  0.4841580000000 1.0
END
