TITL C-2222981-4176-23 -2.35058747759673e-07 125000 -364.141461492434 0 0 60 (C1) n - 1
REM
REM in /home/bkarasulu/CARBON/AIRSS/Generating-Clusters/EDIP-Nigel-Params/Higher-Symm/Box-15A/Only-C60/SD-CG/HFTN-CG
REM
REM
REM
REM
REM
REM ./C.cell (414f73aa93bd7a1190c7fd0f31ff2f98)
REM
REM compiler GCC version 9.2.1 20190827 (Red Hat 9.2.1-1)
REM options -cpp -mtune=generic -march=x86-64 -g -O0 -fpre-include=/usr/include/finclude/math-vector-fortran.h
REM seed -948163612 749757217 -1252709843 1733005009 -293114844 775960540 689098111 -2066499782 44838323 -1488486303 738037794 -1926627767 179587723 670352426 -1844522250 -1406289443 1896879226 -1530964253 1892679316 194308515 796843817 -1794955868 -587546998 1847737054 1269830267 -2064897407 -1874015523 -2076747478 -112110617 -1292783964 1119531332 551697023 -77618782
REM
CELL 1.54180   50.00000   50.00000   50.00000   90.00000   90.00000   90.00000
LATT -1
SFAC C  
C      1  0.4882130000000  0.4316400000000  0.5022920000000 1.0
C      1  0.4838730000000  0.4303370000000  0.4747070000000 1.0
C      1  0.5147830000000  0.4316460000000  0.5105880000000 1.0
C      1  0.4905890000000  0.5686810000000  0.5004600000000 1.0
C      1  0.4845340000000  0.5708430000000  0.4732800000000 1.0
C      1  0.5172000000000  0.5700690000000  0.5082620000000 1.0
C      1  0.4815530000000  0.4684840000000  0.4426280000000 1.0
C      1  0.5445370000000  0.4697160000000  0.5152110000000 1.0
C      1  0.4705300000000  0.4634890000000  0.5398590000000 1.0
C      1  0.4815270000000  0.5318170000000  0.4426810000000 1.0
C      1  0.5449110000000  0.5307160000000  0.5154220000000 1.0
C      1  0.4716370000000  0.5361320000000  0.5356540000000 1.0
C      1  0.5409220000000  0.5436550000000  0.4451660000000 1.0
C      1  0.5299140000000  0.5544850000000  0.5622630000000 1.0
C      1  0.4308760000000  0.5414420000000  0.4901290000000 1.0
C      1  0.5408440000000  0.4563950000000  0.4455760000000 1.0
C      1  0.5331020000000  0.4433820000000  0.5623570000000 1.0
C      1  0.4319050000000  0.4600330000000  0.4915530000000 1.0
C      1  0.4664850000000  0.5152450000000  0.4852510000000 1.0
C      1  0.5217000000000  0.5141110000000  0.4760070000000 1.0
C      1  0.5082510000000  0.5131470000000  0.5612340000000 1.0
C      1  0.4706240000000  0.4873770000000  0.4851870000000 1.0
C      1  0.5217330000000  0.4864150000000  0.4760880000000 1.0
C      1  0.5092570000000  0.4839020000000  0.5655410000000 1.0
C      1  0.4592070000000  0.4811160000000  0.4582780000000 1.0
C      1  0.5483970000000  0.4806860000000  0.4876470000000 1.0
C      1  0.4923220000000  0.4608010000000  0.5590960000000 1.0
C      1  0.4580670000000  0.5200890000000  0.4575230000000 1.0
C      1  0.5484310000000  0.5198920000000  0.4876550000000 1.0
C      1  0.4894270000000  0.5359890000000  0.5590350000000 1.0
C      1  0.5570930000000  0.4602660000000  0.4685650000000 1.0
C      1  0.5055570000000  0.4361560000000  0.5624990000000 1.0
C      1  0.4370890000000  0.4629230000000  0.4639570000000 1.0
C      1  0.5568970000000  0.5403390000000  0.4684530000000 1.0
C      1  0.5023650000000  0.5606190000000  0.5639420000000 1.0
C      1  0.4363120000000  0.5389630000000  0.4623330000000 1.0
C      1  0.5399810000000  0.4409310000000  0.5183880000000 1.0
C      1  0.4656850000000  0.4410580000000  0.5192350000000 1.0
C      1  0.4936140000000  0.4427600000000  0.4516300000000 1.0
C      1  0.5404140000000  0.5594350000000  0.5192310000000 1.0
C      1  0.4686390000000  0.5605540000000  0.5184860000000 1.0
C      1  0.4936080000000  0.5579020000000  0.4502930000000 1.0
C      1  0.5369470000000  0.4730990000000  0.5646660000000 1.0
C      1  0.4497250000000  0.4797010000000  0.5050290000000 1.0
C      1  0.5236070000000  0.4805680000000  0.4469580000000 1.0
C      1  0.5349230000000  0.5253060000000  0.5634130000000 1.0
C      1  0.4413720000000  0.5159880000000  0.5027230000000 1.0
C      1  0.5235460000000  0.5196020000000  0.4467570000000 1.0
C      1  0.5204960000000  0.5630120000000  0.4434410000000 1.0
C      1  0.5467630000000  0.5687950000000  0.5449130000000 1.0
C      1  0.4442280000000  0.5612840000000  0.5043830000000 1.0
C      1  0.5203620000000  0.4370620000000  0.4447310000000 1.0
C      1  0.5494490000000  0.4311700000000  0.5430320000000 1.0
C      1  0.4404340000000  0.4373580000000  0.5059660000000 1.0
C      1  0.4538960000000  0.4878710000000  0.5425500000000 1.0
C      1  0.4942760000000  0.4856980000000  0.4229790000000 1.0
C      1  0.5512270000000  0.4847270000000  0.5400600000000 1.0
C      1  0.4508410000000  0.5154650000000  0.5316510000000 1.0
C      1  0.4939640000000  0.5145090000000  0.4229800000000 1.0
C      1  0.5513360000000  0.5151480000000  0.5401300000000 1.0
END
