TITL C-2287170-9663-2 -3.30541649573663e-05 125000 -350.251077886991 0 0 60 (C1) n - 1
REM
REM in /home/bkarasulu/CARBON/AIRSS/Generating-Clusters/EDIP-Nigel-Params/Higher-Symm/Box-15A/Only-C60/SD-CG/HFTN-CG
REM
REM
REM
REM
REM
REM ./C.cell (414f73aa93bd7a1190c7fd0f31ff2f98)
REM
REM compiler GCC version 9.2.1 20190827 (Red Hat 9.2.1-1)
REM options -cpp -mtune=generic -march=x86-64 -g -O0 -fpre-include=/usr/include/finclude/math-vector-fortran.h
REM seed -1205881168 1306352749 -2100692749 1942495896 -2033242905 1518417297 400852082 -98603556 1236786928 920291702 -1521077331 35887537 575835317 1902074337 1824230958 -1878855241 1980534514 1489114978 2040699906 603063571 637306450 1469306949 -1687378503 452426701 -1734527111 -991277677 -1357157464 -151046920 1928134852 1735527762 1396384163 750832374 571088742
REM
CELL 1.54180   50.00000   50.00000   50.00000   90.00000   90.00000   90.00000
LATT -1
SFAC C  
C      1  0.5352760000000  0.4918470000000  0.5512340000000 1.0
C      1  0.4752860000000  0.5050340000000  0.5366270000000 1.0
C      1  0.4346450000000  0.4940720000000  0.5049490000000 1.0
C      1  0.4581240000000  0.5077070000000  0.4507150000000 1.0
C      1  0.5236550000000  0.4956210000000  0.4648590000000 1.0
C      1  0.5622860000000  0.5035520000000  0.4992970000000 1.0
C      1  0.4340290000000  0.4674940000000  0.5027410000000 1.0
C      1  0.4591410000000  0.5337810000000  0.4451100000000 1.0
C      1  0.5165790000000  0.4700790000000  0.4554180000000 1.0
C      1  0.5642740000000  0.5303890000000  0.4984700000000 1.0
C      1  0.5382300000000  0.4657890000000  0.5562350000000 1.0
C      1  0.4765680000000  0.5311250000000  0.5442820000000 1.0
C      1  0.5190890000000  0.5224460000000  0.5166400000000 1.0
C      1  0.4979480000000  0.4719580000000  0.5067890000000 1.0
C      1  0.4740010000000  0.5212020000000  0.4954630000000 1.0
C      1  0.4901230000000  0.4890470000000  0.4824380000000 1.0
C      1  0.5025010000000  0.5295260000000  0.4940980000000 1.0
C      1  0.5265170000000  0.4705930000000  0.5069290000000 1.0
C      1  0.4720350000000  0.4580670000000  0.5472920000000 1.0
C      1  0.4290690000000  0.5415350000000  0.5022050000000 1.0
C      1  0.4695320000000  0.4622390000000  0.4442870000000 1.0
C      1  0.5295560000000  0.5433680000000  0.4541750000000 1.0
C      1  0.5716620000000  0.4565260000000  0.4952370000000 1.0
C      1  0.5377620000000  0.5385390000000  0.5591890000000 1.0
C      1  0.4677470000000  0.4843080000000  0.4622080000000 1.0
C      1  0.5136630000000  0.5229560000000  0.4668520000000 1.0
C      1  0.5523950000000  0.4774770000000  0.4973180000000 1.0
C      1  0.5340850000000  0.5173610000000  0.5403890000000 1.0
C      1  0.4859060000000  0.4790290000000  0.5332870000000 1.0
C      1  0.4465850000000  0.5191890000000  0.5058050000000 1.0
C      1  0.5181430000000  0.5857200000000  0.5063480000000 1.0
C      1  0.5168980000000  0.4057040000000  0.5238900000000 1.0
C      1  0.4911080000000  0.5874930000000  0.5007810000000 1.0
C      1  0.4807460000000  0.4133280000000  0.4938980000000 1.0
C      1  0.4832510000000  0.5936020000000  0.4748580000000 1.0
C      1  0.5079420000000  0.4119070000000  0.4983380000000 1.0
C      1  0.5421780000000  0.5741040000000  0.5454970000000 1.0
C      1  0.4872110000000  0.4239500000000  0.5562990000000 1.0
C      1  0.4443930000000  0.5760370000000  0.5086720000000 1.0
C      1  0.4596280000000  0.4262610000000  0.4534630000000 1.0
C      1  0.5137100000000  0.5764420000000  0.4428090000000 1.0
C      1  0.5540790000000  0.4233270000000  0.4873840000000 1.0
C      1  0.5585880000000  0.5569300000000  0.5597290000000 1.0
C      1  0.4793920000000  0.4459810000000  0.5712140000000 1.0
C      1  0.4238370000000  0.5617210000000  0.5205230000000 1.0
C      1  0.4478780000000  0.4459970000000  0.4379590000000 1.0
C      1  0.5239120000000  0.5544790000000  0.4293250000000 1.0
C      1  0.5740130000000  0.4378600000000  0.4748530000000 1.0
C      1  0.4866210000000  0.5792670000000  0.4512560000000 1.0
C      1  0.5264460000000  0.4248620000000  0.4804060000000 1.0
C      1  0.5410920000000  0.5747900000000  0.5171170000000 1.0
C      1  0.5140360000000  0.4196850000000  0.5477740000000 1.0
C      1  0.4713870000000  0.5750150000000  0.5176490000000 1.0
C      1  0.4590630000000  0.4252750000000  0.4818620000000 1.0
C      1  0.4692210000000  0.5584400000000  0.4457040000000 1.0
C      1  0.5180730000000  0.4435650000000  0.4614440000000 1.0
C      1  0.5553780000000  0.5553250000000  0.5032250000000 1.0
C      1  0.5318800000000  0.4400490000000  0.5534680000000 1.0
C      1  0.4779120000000  0.5573150000000  0.5380780000000 1.0
C      1  0.4437140000000  0.4437150000000  0.4956390000000 1.0
END
