TITL C-2222975-3889-14 9.05600012423664e-08 125000 -364.362653809218 0 0 60 (C1) n - 1
REM
REM in /home/bkarasulu/CARBON/AIRSS/Generating-Clusters/EDIP-Nigel-Params/Higher-Symm/Box-15A/Only-C60/SD-CG/HFTN-CG
REM
REM
REM
REM
REM
REM ./C.cell (414f73aa93bd7a1190c7fd0f31ff2f98)
REM
REM compiler GCC version 9.2.1 20190827 (Red Hat 9.2.1-1)
REM options -cpp -mtune=generic -march=x86-64 -g -O0 -fpre-include=/usr/include/finclude/math-vector-fortran.h
REM seed -182758338 1819163232 1475433994 313315342 467945948 801333224 1535221257 -1513439905 2006064995 1284886581 -1916003066 -535976949 1909805357 -110404967 -1147039100 -50580803 350798163 930242421 1813880170 1828887483 1226893191 683276096 383235902 1856168933 -1682160512 -917278210 -21805763 182333128 459262576 -684112397 1641921885 -844358321 592490419
REM
CELL 1.54180   50.00000   50.00000   50.00000   90.00000   90.00000   90.00000
LATT -1
SFAC C  
C      1  0.5006340000000  0.5488770000000  0.4865210000000 1.0
C      1  0.4598190000000  0.4535110000000  0.4395260000000 1.0
C      1  0.5326800000000  0.5234460000000  0.4360550000000 1.0
C      1  0.5264980000000  0.5486310000000  0.5000100000000 1.0
C      1  0.5247200000000  0.5064210000000  0.4782630000000 1.0
C      1  0.5911320000000  0.5098630000000  0.5022010000000 1.0
C      1  0.5615070000000  0.4669820000000  0.4881280000000 1.0
C      1  0.4981330000000  0.5001470000000  0.5253170000000 1.0
C      1  0.5108030000000  0.4714250000000  0.4377110000000 1.0
C      1  0.5248330000000  0.4774170000000  0.4650520000000 1.0
C      1  0.4891940000000  0.4910620000000  0.4326530000000 1.0
C      1  0.5399400000000  0.4882800000000  0.5528220000000 1.0
C      1  0.4751700000000  0.5336590000000  0.4480730000000 1.0
C      1  0.5032300000000  0.4690920000000  0.5360950000000 1.0
C      1  0.5331780000000  0.4762020000000  0.4189730000000 1.0
C      1  0.4745160000000  0.5537830000000  0.5009830000000 1.0
C      1  0.4621200000000  0.4817420000000  0.4392870000000 1.0
C      1  0.4919900000000  0.4647970000000  0.5632210000000 1.0
C      1  0.4529630000000  0.5432700000000  0.5424630000000 1.0
C      1  0.5965480000000  0.5298020000000  0.4837270000000 1.0
C      1  0.5389840000000  0.5124900000000  0.5354020000000 1.0
C      1  0.4372240000000  0.4795070000000  0.4829280000000 1.0
C      1  0.4767010000000  0.5150530000000  0.5805220000000 1.0
C      1  0.4637300000000  0.4510240000000  0.5140490000000 1.0
C      1  0.4750460000000  0.5596310000000  0.5302140000000 1.0
C      1  0.4127800000000  0.4935100000000  0.5465470000000 1.0
C      1  0.5529090000000  0.4696890000000  0.4601450000000 1.0
C      1  0.4925970000000  0.4499570000000  0.5162300000000 1.0
C      1  0.5472800000000  0.5018570000000  0.4212490000000 1.0
C      1  0.5500220000000  0.5463480000000  0.4817740000000 1.0
C      1  0.5009190000000  0.4467070000000  0.4661270000000 1.0
C      1  0.4643560000000  0.4621010000000  0.5618760000000 1.0
C      1  0.4448170000000  0.4962680000000  0.4590560000000 1.0
C      1  0.5756590000000  0.5443230000000  0.4948180000000 1.0
C      1  0.5370480000000  0.4618030000000  0.5045810000000 1.0
C      1  0.5013320000000  0.5535490000000  0.5441930000000 1.0
C      1  0.5317040000000  0.5054380000000  0.5077500000000 1.0
C      1  0.4181980000000  0.5091650000000  0.5227740000000 1.0
C      1  0.5118210000000  0.4484060000000  0.4942280000000 1.0
C      1  0.5650180000000  0.4858810000000  0.4391460000000 1.0
C      1  0.4815570000000  0.5067510000000  0.4995630000000 1.0
C      1  0.4710270000000  0.4463480000000  0.4643460000000 1.0
C      1  0.4528620000000  0.5243970000000  0.4651960000000 1.0
C      1  0.4176870000000  0.4867980000000  0.5033510000000 1.0
C      1  0.5445430000000  0.5232150000000  0.4635490000000 1.0
C      1  0.4535260000000  0.4548060000000  0.4867910000000 1.0
C      1  0.4602430000000  0.5328460000000  0.5673440000000 1.0
C      1  0.4976140000000  0.5201970000000  0.4768900000000 1.0
C      1  0.4587320000000  0.5279600000000  0.4970100000000 1.0
C      1  0.5337870000000  0.4643030000000  0.5348600000000 1.0
C      1  0.5053740000000  0.5132200000000  0.5771750000000 1.0
C      1  0.4431810000000  0.5242480000000  0.5222850000000 1.0
C      1  0.5814680000000  0.4847310000000  0.4963260000000 1.0
C      1  0.5270040000000  0.5598460000000  0.5271140000000 1.0
C      1  0.5378010000000  0.5397680000000  0.5456280000000 1.0
C      1  0.5191550000000  0.4880210000000  0.5744940000000 1.0
C      1  0.4502420000000  0.4617390000000  0.5377310000000 1.0
C      1  0.4981530000000  0.5225960000000  0.5489030000000 1.0
C      1  0.4221720000000  0.4680780000000  0.5365730000000 1.0
C      1  0.4961200000000  0.5190180000000  0.4341750000000 1.0
END
