TITL C-2222979-9684-4 -8.6556062417956e-07 125000 -364.797253656246 0 0 60 (C1) n - 1
REM
REM in /home/bkarasulu/CARBON/AIRSS/Generating-Clusters/EDIP-Nigel-Params/Higher-Symm/Box-15A/Only-C60/SD-CG/HFTN-CG
REM
REM
REM
REM
REM
REM ./C.cell (414f73aa93bd7a1190c7fd0f31ff2f98)
REM
REM compiler GCC version 9.2.1 20190827 (Red Hat 9.2.1-1)
REM options -cpp -mtune=generic -march=x86-64 -g -O0 -fpre-include=/usr/include/finclude/math-vector-fortran.h
REM seed -851494898 -230955013 -2076473927 -1665568767 -2039602156 829125217 908901108 -1426864258 59314455 -1446866667 -1756233529 -893785017 1160354168 -86666714 -891336392 1807643529 -81034232 -1363960604 1420752475 -1753873386 1695268163 1470117991 -1760174246 1423572000 -1239178825 333230334 1514573259 1518760801 762868128 -1911167043 110513318 1514521271 1125509051
REM
CELL 1.54180   50.00000   50.00000   50.00000   90.00000   90.00000   90.00000
LATT -1
SFAC C  
C      1  0.4285650000000  0.4746770000000  0.5408830000000 1.0
C      1  0.5714110000000  0.4724460000000  0.5426940000000 1.0
C      1  0.5012120000000  0.4767700000000  0.4178850000000 1.0
C      1  0.5232040000000  0.5402920000000  0.4840490000000 1.0
C      1  0.4684390000000  0.5369670000000  0.4922460000000 1.0
C      1  0.5115240000000  0.5327290000000  0.5290660000000 1.0
C      1  0.5711320000000  0.5438300000000  0.4817620000000 1.0
C      1  0.4458680000000  0.5465160000000  0.4508670000000 1.0
C      1  0.4860400000000  0.5489910000000  0.5660900000000 1.0
C      1  0.5367070000000  0.4576360000000  0.4440030000000 1.0
C      1  0.4328620000000  0.4558920000000  0.4968050000000 1.0
C      1  0.5307580000000  0.4538780000000  0.5604840000000 1.0
C      1  0.4376080000000  0.5218850000000  0.5216460000000 1.0
C      1  0.5511080000000  0.5200010000000  0.5455450000000 1.0
C      1  0.5134210000000  0.5243110000000  0.4391070000000 1.0
C      1  0.5288280000000  0.5377060000000  0.5529710000000 1.0
C      1  0.5326260000000  0.5402130000000  0.4552330000000 1.0
C      1  0.4388450000000  0.5381960000000  0.4968320000000 1.0
C      1  0.5302270000000  0.4441580000000  0.4878020000000 1.0
C      1  0.4743410000000  0.4449380000000  0.4796520000000 1.0
C      1  0.4953720000000  0.4438230000000  0.5325250000000 1.0
C      1  0.4839560000000  0.5425510000000  0.5367630000000 1.0
C      1  0.5491990000000  0.5429190000000  0.5003810000000 1.0
C      1  0.4730180000000  0.5446070000000  0.4627990000000 1.0
C      1  0.5631270000000  0.4697270000000  0.5148550000000 1.0
C      1  0.4815400000000  0.4730250000000  0.4390570000000 1.0
C      1  0.4568270000000  0.4715790000000  0.5473310000000 1.0
C      1  0.4868500000000  0.5215570000000  0.4510600000000 1.0
C      1  0.4637350000000  0.5199430000000  0.5359510000000 1.0
C      1  0.5515350000000  0.5180920000000  0.5159470000000 1.0
C      1  0.4164940000000  0.4611430000000  0.5192610000000 1.0
C      1  0.5584910000000  0.4586430000000  0.5636810000000 1.0
C      1  0.5262110000000  0.4637160000000  0.4184990000000 1.0
C      1  0.4322220000000  0.5276360000000  0.4681240000000 1.0
C      1  0.5062070000000  0.5290280000000  0.5728320000000 1.0
C      1  0.5605690000000  0.5277710000000  0.4604820000000 1.0
C      1  0.4523480000000  0.4883840000000  0.4901390000000 1.0
C      1  0.5160760000000  0.4868530000000  0.5477110000000 1.0
C      1  0.5314250000000  0.4893570000000  0.4651050000000 1.0
C      1  0.4814980000000  0.5586040000000  0.5094910000000 1.0
C      1  0.5035450000000  0.5638830000000  0.4888370000000 1.0
C      1  0.4899580000000  0.5687810000000  0.4640170000000 1.0
C      1  0.4722670000000  0.4573930000000  0.5259450000000 1.0
C      1  0.5366100000000  0.4564240000000  0.5117070000000 1.0
C      1  0.4918010000000  0.4583710000000  0.4630000000000 1.0
C      1  0.4790200000000  0.5073380000000  0.4971080000000 1.0
C      1  0.5102330000000  0.5040250000000  0.5193960000000 1.0
C      1  0.5121200000000  0.5092230000000  0.4852260000000 1.0
C      1  0.5446690000000  0.4944840000000  0.5583760000000 1.0
C      1  0.5267550000000  0.4986170000000  0.4355910000000 1.0
C      1  0.4290930000000  0.4966300000000  0.5097830000000 1.0
C      1  0.5663970000000  0.4968800000000  0.5009110000000 1.0
C      1  0.4678690000000  0.4997700000000  0.4442960000000 1.0
C      1  0.4679990000000  0.4987950000000  0.5563560000000 1.0
C      1  0.4590250000000  0.4469960000000  0.5023470000000 1.0
C      1  0.5226310000000  0.4456890000000  0.5346990000000 1.0
C      1  0.5186270000000  0.4477000000000  0.4631760000000 1.0
C      1  0.4440360000000  0.4995590000000  0.4634280000000 1.0
C      1  0.4966010000000  0.4997380000000  0.5671630000000 1.0
C      1  0.5593170000000  0.4987140000000  0.4710240000000 1.0
END
