TITL C-2222970-3987-2 5.38336001152067e-07 125000 -367.383706977771 0 0 60 (C4) n - 1
REM
REM in /home/bkarasulu/CARBON/AIRSS/Generating-Clusters/EDIP-Nigel-Params/Higher-Symm/Box-15A/Only-C60/SD-CG/HFTN-CG
REM
REM
REM
REM
REM
REM ./C.cell (414f73aa93bd7a1190c7fd0f31ff2f98)
REM
REM compiler GCC version 9.2.1 20190827 (Red Hat 9.2.1-1)
REM options -cpp -mtune=generic -march=x86-64 -g -O0 -fpre-include=/usr/include/finclude/math-vector-fortran.h
REM seed 616367214 -1976301043 972207964 1328151 -1777465564 20510657 -2140177750 850312310 -129196916 603122392 -2110937548 -350145416 -1672627555 54843030 1019487134 796580136 -556931946 101978753 1491252576 -1423216450 207236393 -1318925464 -853456711 1694370655 -1534588292 -1637087899 1058770201 -347892414 -1501017166 1889855381 1405624605 -50953619 -1255535113
REM
CELL 1.54180   50.00000   50.00000   50.00000   90.00000   90.00000   90.00000
LATT -1
SFAC C  
C      1  0.5225560000000  0.4471600000000  0.5463860000000 1.0
C      1  0.5272330000000  0.4765160000000  0.5854940000000 1.0
C      1  0.5217210000000  0.5214130000000  0.5666520000000 1.0
C      1  0.5224770000000  0.5464190000000  0.5528440000000 1.0
C      1  0.5271020000000  0.5855340000000  0.5234900000000 1.0
C      1  0.5216270000000  0.5666840000000  0.4785910000000 1.0
C      1  0.5224090000000  0.5528780000000  0.4535860000000 1.0
C      1  0.5270850000000  0.5235300000000  0.4144720000000 1.0
C      1  0.5216730000000  0.4786230000000  0.4333200000000 1.0
C      1  0.5224880000000  0.4536190000000  0.4471270000000 1.0
C      1  0.5272160000000  0.4145120000000  0.4764760000000 1.0
C      1  0.5217670000000  0.4333520000000  0.5213810000000 1.0
C      1  0.4569620000000  0.5915640000000  0.5020610000000 1.0
C      1  0.4602170000000  0.5681540000000  0.4586880000000 1.0
C      1  0.4578190000000  0.5471790000000  0.4243380000000 1.0
C      1  0.4569780000000  0.5019970000000  0.4084270000000 1.0
C      1  0.4602930000000  0.4586300000000  0.4318380000000 1.0
C      1  0.4579400000000  0.4242760000000  0.4528120000000 1.0
C      1  0.4571130000000  0.4083640000000  0.4979940000000 1.0
C      1  0.4603840000000  0.4317790000000  0.5413620000000 1.0
C      1  0.4579930000000  0.4527500000000  0.5757150000000 1.0
C      1  0.4570970000000  0.4979300000000  0.5916270000000 1.0
C      1  0.4603090000000  0.5413030000000  0.5682130000000 1.0
C      1  0.4578720000000  0.5756530000000  0.5472410000000 1.0
C      1  0.5460440000000  0.5565530000000  0.4905700000000 1.0
C      1  0.5461800000000  0.5370460000000  0.4568710000000 1.0
C      1  0.5468860000000  0.5181690000000  0.4348410000000 1.0
C      1  0.5460700000000  0.4906380000000  0.4434570000000 1.0
C      1  0.5462520000000  0.4569390000000  0.4629640000000 1.0
C      1  0.5469860000000  0.4349100000000  0.4818400000000 1.0
C      1  0.5461510000000  0.4435250000000  0.5093720000000 1.0
C      1  0.5462970000000  0.4630320000000  0.5430710000000 1.0
C      1  0.5469990000000  0.4819100000000  0.5651000000000 1.0
C      1  0.5461250000000  0.5094400000000  0.5564850000000 1.0
C      1  0.5462260000000  0.5431390000000  0.5369780000000 1.0
C      1  0.5468990000000  0.5651690000000  0.5181000000000 1.0
C      1  0.4721390000000  0.5176900000000  0.5788700000000 1.0
C      1  0.4769360000000  0.5605260000000  0.5590730000000 1.0
C      1  0.4715970000000  0.5897380000000  0.5259780000000 1.0
C      1  0.4720260000000  0.5788290000000  0.4823040000000 1.0
C      1  0.4768620000000  0.5590390000000  0.4394690000000 1.0
C      1  0.4715780000000  0.5259370000000  0.4102560000000 1.0
C      1  0.4720690000000  0.4822630000000  0.4211650000000 1.0
C      1  0.4769630000000  0.4394350000000  0.4409560000000 1.0
C      1  0.4717150000000  0.4102140000000  0.4740570000000 1.0
C      1  0.4721820000000  0.4211240000000  0.5177310000000 1.0
C      1  0.4770380000000  0.4409220000000  0.5605600000000 1.0
C      1  0.4717340000000  0.4740160000000  0.5897800000000 1.0
C      1  0.4991250000000  0.5211120000000  0.4238750000000 1.0
C      1  0.4964050000000  0.4929420000000  0.4326540000000 1.0
C      1  0.4978170000000  0.4457910000000  0.4590960000000 1.0
C      1  0.4992410000000  0.4238730000000  0.4788880000000 1.0
C      1  0.4965020000000  0.4326490000000  0.5070580000000 1.0
C      1  0.4978660000000  0.4590930000000  0.5542080000000 1.0
C      1  0.4992560000000  0.4788870000000  0.5761260000000 1.0
C      1  0.4964780000000  0.5070520000000  0.5673510000000 1.0
C      1  0.4977770000000  0.5542050000000  0.5409070000000 1.0
C      1  0.4991400000000  0.5761250000000  0.5211130000000 1.0
C      1  0.4963800000000  0.5673450000000  0.4929470000000 1.0
C      1  0.4977290000000  0.5409040000000  0.4457950000000 1.0
END
