TITL C-2205171-3741-3 -0.000116168948321437 3375 -373.545371263581 0 0 60 (Ci) n - 1
REM
REM in /home/bkarasulu/CARBON/AIRSS/Generating-Clusters/EDIP-Nigel-Params/Higher-Symm/Box-15A/Only-C60/SD-CG/HFTN-CG
REM
REM
REM
REM
REM
REM ./C.cell (a2850807a9bf4ad07a5b6933b78d9264)
REM
REM compiler GCC version 9.2.1 20190827 (Red Hat 9.2.1-1)
REM options -cpp -mtune=generic -march=x86-64 -g -O0 -fpre-include=/usr/include/finclude/math-vector-fortran.h
REM seed -1295532898 2036508453 362684605 -1266782596 -338638883 -460516014 -731937473 1142302145 1048082334 -534343297 -690430939 -1868695513 453789125 240147486 1672214165 -1524406435 736540162 -1528669425 -2050567004 -1045980458 -1527628896 -1580806518 330598269 -2101848888 965402409 1669907699 1783367108 755484076 -1461009884 -1551293930 -1972584651 399437429 -869050008
REM
CELL 1.54180   15.00000   15.00000   15.00000   90.00000   90.00000   90.00000
LATT -1
SFAC C  
C      1  0.3496420000000  0.5122190000000  0.6172960000000 1.0
C      1  0.6499140000000  0.4879980000000  0.3827120000000 1.0
C      1  0.2663950000000  0.5242260000000  0.5586120000000 1.0
C      1  0.7333290000000  0.4758810000000  0.4411400000000 1.0
C      1  0.5581280000000  0.6128230000000  0.3033770000000 1.0
C      1  0.4417180000000  0.3876050000000  0.6963980000000 1.0
C      1  0.5758780000000  0.4847350000000  0.4487410000000 1.0
C      1  0.4238990000000  0.5153560000000  0.5514960000000 1.0
C      1  0.6687720000000  0.4539770000000  0.5855960000000 1.0
C      1  0.3313020000000  0.5457720000000  0.4142400000000 1.0
C      1  0.6353530000000  0.4229230000000  0.3060280000000 1.0
C      1  0.3638840000000  0.5776380000000  0.6938180000000 1.0
C      1  0.5213900000000  0.5373780000000  0.2472490000000 1.0
C      1  0.4792980000000  0.4626670000000  0.7525300000000 1.0
C      1  0.5419200000000  0.2413950000000  0.4387680000000 1.0
C      1  0.4578250000000  0.7588570000000  0.5606440000000 1.0
C      1  0.6653940000000  0.5526560000000  0.5618830000000 1.0
C      1  0.3344860000000  0.4472310000000  0.4381660000000 1.0
C      1  0.5160190000000  0.3582790000000  0.6349580000000 1.0
C      1  0.4837620000000  0.6416160000000  0.3649770000000 1.0
C      1  0.5747260000000  0.4836750000000  0.7240630000000 1.0
C      1  0.4262700000000  0.5154400000000  0.2762890000000 1.0
C      1  0.4206420000000  0.5371140000000  0.7571570000000 1.0
C      1  0.5814080000000  0.4647120000000  0.2418480000000 1.0
C      1  0.5958720000000  0.4211300000000  0.6481840000000 1.0
C      1  0.4045470000000  0.5781510000000  0.3518820000000 1.0
C      1  0.3552530000000  0.2965320000000  0.3890900000000 1.0
C      1  0.6442350000000  0.7034190000000  0.6109770000000 1.0
C      1  0.6722420000000  0.3274000000000  0.4728460000000 1.0
C      1  0.3276720000000  0.6726450000000  0.5265310000000 1.0
C      1  0.4933600000000  0.4536040000000  0.4189320000000 1.0
C      1  0.5065170000000  0.5458840000000  0.5817280000000 1.0
C      1  0.6622980000000  0.6163870000000  0.6416930000000 1.0
C      1  0.3377600000000  0.3836380000000  0.3581910000000 1.0
C      1  0.4721640000000  0.2604260000000  0.4978970000000 1.0
C      1  0.5277240000000  0.7394860000000  0.5018400000000 1.0
C      1  0.6493610000000  0.5844060000000  0.3507380000000 1.0
C      1  0.3502770000000  0.4159840000000  0.6495550000000 1.0
C      1  0.2893570000000  0.5948230000000  0.4908630000000 1.0
C      1  0.7105740000000  0.4051120000000  0.5087420000000 1.0
C      1  0.6221140000000  0.7461950000000  0.5304310000000 1.0
C      1  0.3776470000000  0.2538710000000  0.4696460000000 1.0
C      1  0.6175900000000  0.2870010000000  0.4094220000000 1.0
C      1  0.3823190000000  0.7130470000000  0.5899160000000 1.0
C      1  0.2646190000000  0.4332340000000  0.5126000000000 1.0
C      1  0.7351490000000  0.5667860000000  0.4873840000000 1.0
C      1  0.3252220000000  0.2835220000000  0.5412440000000 1.0
C      1  0.6748670000000  0.7167250000000  0.4590200000000 1.0
C      1  0.6029280000000  0.3346140000000  0.3278890000000 1.0
C      1  0.3970060000000  0.6656080000000  0.6713960000000 1.0
C      1  0.2984090000000  0.3655210000000  0.5783290000000 1.0
C      1  0.7013950000000  0.6346830000000  0.4218700000000 1.0
C      1  0.4935380000000  0.3999220000000  0.3397510000000 1.0
C      1  0.5058800000000  0.5986280000000  0.6622170000000 1.0
C      1  0.5916980000000  0.5882780000000  0.7091350000000 1.0
C      1  0.4094630000000  0.4114620000000  0.2916520000000 1.0
C      1  0.4810970000000  0.3419720000000  0.5467160000000 1.0
C      1  0.5187860000000  0.6577800000000  0.4532760000000 1.0
C      1  0.5748250000000  0.5596850000000  0.5135420000000 1.0
C      1  0.4248820000000  0.4402660000000  0.4868920000000 1.0
END
