TITL C-2287170-9663-6 -4.71737840825566e-07 125000 -360.279382564925 0 0 60 (C1) n - 1
REM
REM in /home/bkarasulu/CARBON/AIRSS/Generating-Clusters/EDIP-Nigel-Params/Higher-Symm/Box-15A/Only-C60/SD-CG/HFTN-CG
REM
REM
REM
REM
REM
REM ./C.cell (414f73aa93bd7a1190c7fd0f31ff2f98)
REM
REM compiler GCC version 9.2.1 20190827 (Red Hat 9.2.1-1)
REM options -cpp -mtune=generic -march=x86-64 -g -O0 -fpre-include=/usr/include/finclude/math-vector-fortran.h
REM seed 276775209 447484078 -21724121 3885783 2049618372 226771706 1748838406 424364158 -1585623141 1658345964 824402484 603030453 -600783690 -1048842027 856428141 1953991061 -1294958304 718117031 -1516661863 -2100450022 2018680743 -799505120 423797208 1126301925 2044851568 1576663455 1595234007 -745824204 -413838185 -773608461 -1663272220 1856451998 1820503592
REM
CELL 1.54180   50.00000   50.00000   50.00000   90.00000   90.00000   90.00000
LATT -1
SFAC C  
C      1  0.4974130000000  0.5122050000000  0.4796820000000 1.0
C      1  0.4973960000000  0.4845200000000  0.4821010000000 1.0
C      1  0.4970330000000  0.4782240000000  0.5091740000000 1.0
C      1  0.4971380000000  0.5020240000000  0.5235140000000 1.0
C      1  0.4973960000000  0.5230150000000  0.5052940000000 1.0
C      1  0.4314340000000  0.4560040000000  0.4954200000000 1.0
C      1  0.4311390000000  0.4829230000000  0.5401830000000 1.0
C      1  0.4313780000000  0.5337410000000  0.5284770000000 1.0
C      1  0.4318760000000  0.5381780000000  0.4764740000000 1.0
C      1  0.4320050000000  0.4901500000000  0.4560100000000 1.0
C      1  0.5407760000000  0.5495590000000  0.5211800000000 1.0
C      1  0.5406830000000  0.5348060000000  0.4600050000000 1.0
C      1  0.5414410000000  0.4722200000000  0.4546310000000 1.0
C      1  0.5399130000000  0.4478560000000  0.5125100000000 1.0
C      1  0.5402900000000  0.4951870000000  0.5540230000000 1.0
C      1  0.4947470000000  0.4780760000000  0.5640670000000 1.0
C      1  0.4953280000000  0.5540650000000  0.5406740000000 1.0
C      1  0.4958650000000  0.5555130000000  0.4609870000000 1.0
C      1  0.4961830000000  0.4801240000000  0.4352320000000 1.0
C      1  0.4951760000000  0.4322410000000  0.4987720000000 1.0
C      1  0.4956210000000  0.5267290000000  0.4545370000000 1.0
C      1  0.4955710000000  0.4651400000000  0.4605530000000 1.0
C      1  0.4947250000000  0.4517230000000  0.5209190000000 1.0
C      1  0.4947680000000  0.5050700000000  0.5523030000000 1.0
C      1  0.4952820000000  0.5513310000000  0.5113480000000 1.0
C      1  0.5535360000000  0.4742560000000  0.5063320000000 1.0
C      1  0.5550320000000  0.4970920000000  0.5271830000000 1.0
C      1  0.5552760000000  0.5246220000000  0.5106990000000 1.0
C      1  0.5539240000000  0.5170190000000  0.4807140000000 1.0
C      1  0.5563590000000  0.4861430000000  0.4777140000000 1.0
C      1  0.5222480000000  0.4494830000000  0.4625330000000 1.0
C      1  0.5211780000000  0.4482360000000  0.5368890000000 1.0
C      1  0.5214610000000  0.5186050000000  0.5604190000000 1.0
C      1  0.5219680000000  0.5631780000000  0.5010310000000 1.0
C      1  0.5224230000000  0.5202130000000  0.4401470000000 1.0
C      1  0.5227340000000  0.4699160000000  0.5582360000000 1.0
C      1  0.5232650000000  0.5456660000000  0.5465220000000 1.0
C      1  0.5237190000000  0.5582710000000  0.4710220000000 1.0
C      1  0.5241950000000  0.4901500000000  0.4359180000000 1.0
C      1  0.5232570000000  0.4355750000000  0.4895690000000 1.0
C      1  0.5920440000000  0.4760590000000  0.5062090000000 1.0
C      1  0.5862990000000  0.4968040000000  0.5263560000000 1.0
C      1  0.5865430000000  0.5236090000000  0.5102980000000 1.0
C      1  0.5924020000000  0.5155500000000  0.4825490000000 1.0
C      1  0.5865680000000  0.4868260000000  0.4793100000000 1.0
C      1  0.4672620000000  0.4537480000000  0.5313180000000 1.0
C      1  0.4674210000000  0.5159480000000  0.5535190000000 1.0
C      1  0.4680140000000  0.5561730000000  0.5013050000000 1.0
C      1  0.4683170000000  0.5189460000000  0.4467650000000 1.0
C      1  0.4680880000000  0.4556000000000  0.4653360000000 1.0
C      1  0.4595910000000  0.4784790000000  0.5467310000000 1.0
C      1  0.4598600000000  0.5383170000000  0.5348150000000 1.0
C      1  0.4604140000000  0.5453550000000  0.4742260000000 1.0
C      1  0.4606180000000  0.4898730000000  0.4486420000000 1.0
C      1  0.4599270000000  0.4485450000000  0.4934770000000 1.0
C      1  0.4235330000000  0.5158430000000  0.4622480000000 1.0
C      1  0.4232460000000  0.4698630000000  0.4728100000000 1.0
C      1  0.4228020000000  0.4659250000000  0.5198760000000 1.0
C      1  0.4227450000000  0.5093250000000  0.5384650000000 1.0
C      1  0.4231520000000  0.5401660000000  0.5027500000000 1.0
END
