TITL C-2222970-3987-5 -4.76726722226411e-05 125000 -352.358145471924 0 0 60 (C1) n - 1
REM
REM in /home/bkarasulu/CARBON/AIRSS/Generating-Clusters/EDIP-Nigel-Params/Higher-Symm/Box-15A/Only-C60/SD-CG/HFTN-CG
REM
REM
REM
REM
REM
REM ./C.cell (414f73aa93bd7a1190c7fd0f31ff2f98)
REM
REM compiler GCC version 9.2.1 20190827 (Red Hat 9.2.1-1)
REM options -cpp -mtune=generic -march=x86-64 -g -O0 -fpre-include=/usr/include/finclude/math-vector-fortran.h
REM seed -647373091 -1475800556 141767375 1195666793 1327443254 -800750906 -1746910973 764205899 -1251881253 -1867547067 1050022810 -138513683 -2039083850 -2011363995 96646338 -1058454274 -763870636 624661318 1417038849 -1851058785 -2080089767 174904047 1807697297 282509157 -85283131 172480140 1170864054 30170826 -1977390403 -1929852323 -706843338 -2076777284 -1811007562
REM
CELL 1.54180   50.00000   50.00000   50.00000   90.00000   90.00000   90.00000
LATT -1
SFAC C  
C      1  0.5760610000000  0.5178050000000  0.5515920000000 1.0
C      1  0.5539300000000  0.5563790000000  0.5478950000000 1.0
C      1  0.5143290000000  0.5760890000000  0.5427990000000 1.0
C      1  0.4700720000000  0.5744520000000  0.5433040000000 1.0
C      1  0.4363850000000  0.5437460000000  0.5441860000000 1.0
C      1  0.4223130000000  0.5009830000000  0.5432690000000 1.0
C      1  0.4305580000000  0.4564150000000  0.5409870000000 1.0
C      1  0.4645920000000  0.4280470000000  0.5402570000000 1.0
C      1  0.5079880000000  0.4196540000000  0.5457480000000 1.0
C      1  0.5490080000000  0.4367600000000  0.5504480000000 1.0
C      1  0.5755830000000  0.4729430000000  0.5531570000000 1.0
C      1  0.5317300000000  0.4566910000000  0.5653370000000 1.0
C      1  0.5505390000000  0.4810610000000  0.5690620000000 1.0
C      1  0.5501510000000  0.5119630000000  0.5661530000000 1.0
C      1  0.5357270000000  0.5393420000000  0.5659030000000 1.0
C      1  0.5086900000000  0.5523680000000  0.5601060000000 1.0
C      1  0.4784970000000  0.5523920000000  0.5630890000000 1.0
C      1  0.4563450000000  0.5298040000000  0.5623860000000 1.0
C      1  0.4464450000000  0.4995510000000  0.5616810000000 1.0
C      1  0.4503500000000  0.4681870000000  0.5614680000000 1.0
C      1  0.4742640000000  0.4498570000000  0.5583430000000 1.0
C      1  0.5036120000000  0.4437370000000  0.5643590000000 1.0
C      1  0.4531630000000  0.5591340000000  0.5257240000000 1.0
C      1  0.4264040000000  0.5237350000000  0.5247570000000 1.0
C      1  0.4266380000000  0.4793630000000  0.5239950000000 1.0
C      1  0.4451420000000  0.4391140000000  0.5211190000000 1.0
C      1  0.4878040000000  0.4219790000000  0.5240110000000 1.0
C      1  0.5318560000000  0.4253690000000  0.5293890000000 1.0
C      1  0.5671670000000  0.4524160000000  0.5333950000000 1.0
C      1  0.5810440000000  0.4948800000000  0.5339430000000 1.0
C      1  0.5695290000000  0.5378790000000  0.5309910000000 1.0
C      1  0.5365780000000  0.5674520000000  0.5264450000000 1.0
C      1  0.4922410000000  0.5800400000000  0.5239920000000 1.0
C      1  0.5096800000000  0.4552020000000  0.4453710000000 1.0
C      1  0.5256590000000  0.4737910000000  0.4314320000000 1.0
C      1  0.5414930000000  0.4948170000000  0.4452790000000 1.0
C      1  0.5344420000000  0.5218170000000  0.4493330000000 1.0
C      1  0.5166560000000  0.5410050000000  0.4575970000000 1.0
C      1  0.4934480000000  0.5500970000000  0.4708980000000 1.0
C      1  0.4694140000000  0.5370710000000  0.4634630000000 1.0
C      1  0.4540280000000  0.5142860000000  0.4630260000000 1.0
C      1  0.4533850000000  0.4868700000000  0.4621310000000 1.0
C      1  0.4627680000000  0.4614580000000  0.4700510000000 1.0
C      1  0.4849760000000  0.4518310000000  0.4560090000000 1.0
C      1  0.4509680000000  0.5159670000000  0.5070710000000 1.0
C      1  0.4531080000000  0.4858310000000  0.5116520000000 1.0
C      1  0.4646110000000  0.4588120000000  0.5001980000000 1.0
C      1  0.4935910000000  0.4468920000000  0.5080540000000 1.0
C      1  0.5241330000000  0.4483460000000  0.5111210000000 1.0
C      1  0.5489720000000  0.4662730000000  0.5132930000000 1.0
C      1  0.5580940000000  0.4953880000000  0.5140600000000 1.0
C      1  0.5496340000000  0.5248930000000  0.5119860000000 1.0
C      1  0.5262120000000  0.5447000000000  0.5096600000000 1.0
C      1  0.4962010000000  0.5527390000000  0.5011040000000 1.0
C      1  0.4705790000000  0.5386070000000  0.5127330000000 1.0
C      1  0.5081950000000  0.4959980000000  0.4251150000000 1.0
C      1  0.5033720000000  0.4991530000000  0.4738740000000 1.0
C      1  0.5010490000000  0.4982220000000  0.5264740000000 1.0
C      1  0.5003580000000  0.4973160000000  0.5006840000000 1.0
C      1  0.4940570000000  0.5037340000000  0.4480190000000 1.0
END
