TITL C-2222974-2064-24 1.04174844981742e-05 125000 -357.910338174259 0 0 60 (C1) n - 1
REM
REM in /home/bkarasulu/CARBON/AIRSS/Generating-Clusters/EDIP-Nigel-Params/Higher-Symm/Box-15A/Only-C60/SD-CG/HFTN-CG
REM
REM
REM
REM
REM
REM ./C.cell (414f73aa93bd7a1190c7fd0f31ff2f98)
REM
REM compiler GCC version 9.2.1 20190827 (Red Hat 9.2.1-1)
REM options -cpp -mtune=generic -march=x86-64 -g -O0 -fpre-include=/usr/include/finclude/math-vector-fortran.h
REM seed 1990706170 -2089131364 535841771 -2018931372 1874865662 -734815845 383996968 101678300 -1483100449 1719440921 -810225077 466882973 1472048600 -1877509123 -1104632811 1913465739 104920911 484099108 817189926 -1311103519 -2137658271 243490379 -839863668 -581331073 349619502 1220264032 542104546 -735428935 -1428606307 -1688502456 1939575712 -1831020103 -962622688
REM
CELL 1.54180   50.00000   50.00000   50.00000   90.00000   90.00000   90.00000
LATT -1
SFAC C  
C      1  0.5535570000000  0.4715010000000  0.4577580000000 1.0
C      1  0.5090820000000  0.4712550000000  0.5628660000000 1.0
C      1  0.4374210000000  0.4731750000000  0.4751280000000 1.0
C      1  0.4849110000000  0.4186390000000  0.5334380000000 1.0
C      1  0.4792940000000  0.4131000000000  0.4772790000000 1.0
C      1  0.5417300000000  0.4171090000000  0.4937920000000 1.0
C      1  0.5337290000000  0.5458230000000  0.5119500000000 1.0
C      1  0.4664910000000  0.5453430000000  0.5269790000000 1.0
C      1  0.4963660000000  0.5460740000000  0.4500150000000 1.0
C      1  0.5353740000000  0.5170490000000  0.5177670000000 1.0
C      1  0.4636330000000  0.5161090000000  0.5245780000000 1.0
C      1  0.4987640000000  0.5165980000000  0.4534270000000 1.0
C      1  0.5451360000000  0.4753300000000  0.5006680000000 1.0
C      1  0.4720750000000  0.4698130000000  0.5395140000000 1.0
C      1  0.4796420000000  0.4762160000000  0.4619190000000 1.0
C      1  0.4320290000000  0.4969390000000  0.4888790000000 1.0
C      1  0.5437920000000  0.4951290000000  0.4464000000000 1.0
C      1  0.5233950000000  0.4955400000000  0.5620940000000 1.0
C      1  0.4542510000000  0.4555630000000  0.4914430000000 1.0
C      1  0.5299400000000  0.4550450000000  0.4644520000000 1.0
C      1  0.5177900000000  0.4542720000000  0.5407510000000 1.0
C      1  0.5253530000000  0.5624910000000  0.5328290000000 1.0
C      1  0.4541080000000  0.5629060000000  0.5084560000000 1.0
C      1  0.5195260000000  0.5617560000000  0.4512870000000 1.0
C      1  0.4901080000000  0.5039190000000  0.4282730000000 1.0
C      1  0.5633950000000  0.5102170000000  0.5241860000000 1.0
C      1  0.4449600000000  0.5064300000000  0.5453430000000 1.0
C      1  0.5152400000000  0.5113220000000  0.5394440000000 1.0
C      1  0.4569240000000  0.5093860000000  0.4961390000000 1.0
C      1  0.5263520000000  0.5097560000000  0.4642530000000 1.0
C      1  0.4580400000000  0.4249660000000  0.4906520000000 1.0
C      1  0.5293430000000  0.4265600000000  0.4707390000000 1.0
C      1  0.5114750000000  0.4265040000000  0.5355340000000 1.0
C      1  0.5178740000000  0.5903920000000  0.4859170000000 1.0
C      1  0.4921070000000  0.5929430000000  0.5252890000000 1.0
C      1  0.4926270000000  0.5884310000000  0.4975090000000 1.0
C      1  0.5020450000000  0.5738690000000  0.5437830000000 1.0
C      1  0.4740600000000  0.5673680000000  0.4893090000000 1.0
C      1  0.5347300000000  0.5734500000000  0.4714410000000 1.0
C      1  0.4872590000000  0.5308580000000  0.5675620000000 1.0
C      1  0.4529670000000  0.5324960000000  0.4585960000000 1.0
C      1  0.5628540000000  0.5318020000000  0.4756970000000 1.0
C      1  0.4812350000000  0.5533230000000  0.5507530000000 1.0
C      1  0.4717140000000  0.5536670000000  0.4630980000000 1.0
C      1  0.5490580000000  0.5535550000000  0.4883510000000 1.0
C      1  0.5261930000000  0.4989220000000  0.4934280000000 1.0
C      1  0.4900140000000  0.5012160000000  0.5280120000000 1.0
C      1  0.4806080000000  0.4995990000000  0.4808530000000 1.0
C      1  0.5295630000000  0.4149700000000  0.5177870000000 1.0
C      1  0.4598050000000  0.4245100000000  0.5221110000000 1.0
C      1  0.5040020000000  0.4156880000000  0.4674530000000 1.0
C      1  0.5685680000000  0.5029890000000  0.4749540000000 1.0
C      1  0.4863810000000  0.5018420000000  0.5716500000000 1.0
C      1  0.4462030000000  0.5042350000000  0.4536070000000 1.0
C      1  0.4536110000000  0.4549480000000  0.5225790000000 1.0
C      1  0.5047740000000  0.4642770000000  0.4556760000000 1.0
C      1  0.5393960000000  0.4630890000000  0.5255380000000 1.0
C      1  0.4679220000000  0.4891260000000  0.4384810000000 1.0
C      1  0.5690910000000  0.4920340000000  0.5029320000000 1.0
C      1  0.4621120000000  0.4885620000000  0.5594040000000 1.0
END
