TITL C-2222970-3987-29 -1.66556208639817e-07 125000 -359.789876718985 0 0 60 (C3) n - 1
REM
REM in /home/bkarasulu/CARBON/AIRSS/Generating-Clusters/EDIP-Nigel-Params/Higher-Symm/Box-15A/Only-C60/SD-CG/HFTN-CG
REM
REM
REM
REM
REM
REM ./C.cell (414f73aa93bd7a1190c7fd0f31ff2f98)
REM
REM compiler GCC version 9.2.1 20190827 (Red Hat 9.2.1-1)
REM options -cpp -mtune=generic -march=x86-64 -g -O0 -fpre-include=/usr/include/finclude/math-vector-fortran.h
REM seed 2090597663 1142786261 -1480188805 -1433592726 -1011343016 466322180 2106292278 1339160124 357399884 437892254 1647960875 1188813347 -1566582046 -633407302 581445852 550264567 1672836550 -1821715571 -1623848258 -1285535850 1280606650 1249932081 -354013277 -1083708945 1509600211 -1604357438 -1187727320 752482171 -1956781117 1380462168 -359613852 -551376861 -1970173210
REM
CELL 1.54180   50.00000   50.00000   50.00000   90.00000   90.00000   90.00000
LATT -1
SFAC C  
C      1  0.4563630000000  0.4555130000000  0.4964740000000 1.0
C      1  0.4563680000000  0.5191860000000  0.5402970000000 1.0
C      1  0.4563600000000  0.5253010000000  0.4632430000000 1.0
C      1  0.4563630000000  0.5444870000000  0.4964740000000 1.0
C      1  0.4563680000000  0.4808140000000  0.5402970000000 1.0
C      1  0.4563600000000  0.4746990000000  0.4632430000000 1.0
C      1  0.5017820000000  0.4331810000000  0.4966840000000 1.0
C      1  0.5017890000000  0.5305380000000  0.5595250000000 1.0
C      1  0.5017760000000  0.5362820000000  0.4437910000000 1.0
C      1  0.5017820000000  0.5668190000000  0.4966840000000 1.0
C      1  0.5017890000000  0.4694620000000  0.5595250000000 1.0
C      1  0.5017760000000  0.4637180000000  0.4437910000000 1.0
C      1  0.4994810000000  0.5366560000000  0.4988650000000 1.0
C      1  0.4994780000000  0.4806890000000  0.4688230000000 1.0
C      1  0.4994850000000  0.4826550000000  0.5323130000000 1.0
C      1  0.4994810000000  0.4633440000000  0.4988650000000 1.0
C      1  0.4994780000000  0.5193110000000  0.4688230000000 1.0
C      1  0.4994850000000  0.5173450000000  0.5323130000000 1.0
C      1  0.5272520000000  0.4601710000000  0.4332240000000 1.0
C      1  0.5272670000000  0.4620870000000  0.5678770000000 1.0
C      1  0.5272600000000  0.5777420000000  0.4988900000000 1.0
C      1  0.5272520000000  0.5398300000000  0.4332240000000 1.0
C      1  0.5272670000000  0.5379130000000  0.5678770000000 1.0
C      1  0.5272600000000  0.4222580000000  0.4988900000000 1.0
C      1  0.4825100000000  0.4182720000000  0.4831280000000 1.0
C      1  0.4825210000000  0.5262510000000  0.5792170000000 1.0
C      1  0.4825050000000  0.5554770000000  0.4376600000000 1.0
C      1  0.4825100000000  0.5817280000000  0.4831280000000 1.0
C      1  0.4825210000000  0.4737490000000  0.5792170000000 1.0
C      1  0.4825050000000  0.4445230000000  0.4376600000000 1.0
C      1  0.4314610000000  0.4852230000000  0.5257650000000 1.0
C      1  0.4314580000000  0.5296950000000  0.4999260000000 1.0
C      1  0.4314550000000  0.4850820000000  0.4743310000000 1.0
C      1  0.4314610000000  0.5147770000000  0.5257650000000 1.0
C      1  0.4314580000000  0.4703050000000  0.4999260000000 1.0
C      1  0.4314550000000  0.5149180000000  0.4743310000000 1.0
C      1  0.5661700000000  0.4551220000000  0.5413830000000 1.0
C      1  0.5661680000000  0.5582840000000  0.5181640000000 1.0
C      1  0.5661590000000  0.4865950000000  0.4404320000000 1.0
C      1  0.5661700000000  0.5448780000000  0.5413830000000 1.0
C      1  0.5661670000000  0.4417160000000  0.5181640000000 1.0
C      1  0.5661590000000  0.5134050000000  0.4404320000000 1.0
C      1  0.4594280000000  0.4853030000000  0.5686610000000 1.0
C      1  0.4594180000000  0.5668070000000  0.4784040000000 1.0
C      1  0.4594150000000  0.4478900000000  0.4529480000000 1.0
C      1  0.4594280000000  0.5146970000000  0.5686610000000 1.0
C      1  0.4594180000000  0.4331930000000  0.4784040000000 1.0
C      1  0.4594150000000  0.5521100000000  0.4529480000000 1.0
C      1  0.5449750000000  0.4720620000000  0.4507670000000 1.0
C      1  0.5449860000000  0.4713360000000  0.5488040000000 1.0
C      1  0.5449810000000  0.5566020000000  0.5004150000000 1.0
C      1  0.5449750000000  0.5279380000000  0.4507670000000 1.0
C      1  0.5449860000000  0.5286640000000  0.5488040000000 1.0
C      1  0.5449810000000  0.4433980000000  0.5004150000000 1.0
C      1  0.5305790000000  0.4845730000000  0.5264520000000 1.0
C      1  0.5305760000000  0.5306240000000  0.5001300000000 1.0
C      1  0.5305730000000  0.4848030000000  0.4734090000000 1.0
C      1  0.5305790000000  0.5154270000000  0.5264520000000 1.0
C      1  0.5305760000000  0.4693760000000  0.5001300000000 1.0
C      1  0.5305730000000  0.5151970000000  0.4734090000000 1.0
END
