TITL C-2205174-3576-2 -4.88077506764891e-05 3375 -367.608564799822 0 0 60 (C1) n - 1
REM
REM in /home/bkarasulu/CARBON/AIRSS/Generating-Clusters/EDIP-Nigel-Params/Higher-Symm/Box-15A/Only-C60/SD-CG/HFTN-CG
REM
REM
REM
REM
REM
REM ./C.cell (a2850807a9bf4ad07a5b6933b78d9264)
REM
REM compiler GCC version 9.2.1 20190827 (Red Hat 9.2.1-1)
REM options -cpp -mtune=generic -march=x86-64 -g -O0 -fpre-include=/usr/include/finclude/math-vector-fortran.h
REM seed -1783218567 -1356197527 339212598 453164373 -1988505189 324454114 141628132 389960274 -1764306066 1349382681 1609575326 -1941878343 397777475 -1892622572 233016550 1433022356 -524469537 760019136 288015213 968345106 -204118080 -1794938615 1052820674 -274386609 -1644276352 -818855209 102390456 -688845482 -1962974131 -2011601807 1406230369 1988280162 -1578351062
REM
CELL 1.54180   15.00000   15.00000   15.00000   90.00000   90.00000   90.00000
LATT -1
SFAC C  
C      1  0.3885430000000  0.2460620000000  0.5452490000000 1.0
C      1  0.5993530000000  0.2467480000000  0.4569770000000 1.0
C      1  0.4014000000000  0.7498590000000  0.5461290000000 1.0
C      1  0.6114790000000  0.7644250000000  0.4574970000000 1.0
C      1  0.2903880000000  0.6036210000000  0.4880370000000 1.0
C      1  0.7231710000000  0.6058810000000  0.5308510000000 1.0
C      1  0.2790030000000  0.3988110000000  0.4714160000000 1.0
C      1  0.7114260000000  0.4034480000000  0.5166540000000 1.0
C      1  0.3553460000000  0.3259310000000  0.4878200000000 1.0
C      1  0.6314570000000  0.3320710000000  0.5058910000000 1.0
C      1  0.3778810000000  0.6643340000000  0.4953170000000 1.0
C      1  0.6429260000000  0.6764080000000  0.5081820000000 1.0
C      1  0.5312860000000  0.2512770000000  0.6068600000000 1.0
C      1  0.4624320000000  0.2410210000000  0.3984030000000 1.0
C      1  0.5368910000000  0.7600410000000  0.6052500000000 1.0
C      1  0.4748450000000  0.7519650000000  0.3995850000000 1.0
C      1  0.5710070000000  0.4079140000000  0.4667550000000 1.0
C      1  0.4347400000000  0.3847770000000  0.5309540000000 1.0
C      1  0.5807180000000  0.6076260000000  0.4674600000000 1.0
C      1  0.4406500000000  0.5806640000000  0.5333250000000 1.0
C      1  0.7178800000000  0.4611080000000  0.4364630000000 1.0
C      1  0.2567020000000  0.4585730000000  0.5396420000000 1.0
C      1  0.7495670000000  0.5454630000000  0.4636640000000 1.0
C      1  0.2900660000000  0.5417000000000  0.5666860000000 1.0
C      1  0.3981920000000  0.5776570000000  0.3686560000000 1.0
C      1  0.5884270000000  0.5922550000000  0.6281310000000 1.0
C      1  0.3982510000000  0.4035770000000  0.3602140000000 1.0
C      1  0.5952600000000  0.4205800000000  0.6288030000000 1.0
C      1  0.5485590000000  0.8117200000000  0.5209510000000 1.0
C      1  0.4578560000000  0.8032250000000  0.4826440000000 1.0
C      1  0.5420280000000  0.1976300000000  0.5232340000000 1.0
C      1  0.4501830000000  0.1936510000000  0.4849740000000 1.0
C      1  0.5527750000000  0.2589170000000  0.3757240000000 1.0
C      1  0.4390060000000  0.2700480000000  0.6223900000000 1.0
C      1  0.5667120000000  0.7526380000000  0.3740360000000 1.0
C      1  0.4468950000000  0.7401050000000  0.6280190000000 1.0
C      1  0.3902270000000  0.3079720000000  0.3932400000000 1.0
C      1  0.5999930000000  0.3221840000000  0.6020390000000 1.0
C      1  0.4113290000000  0.6748050000000  0.4009800000000 1.0
C      1  0.6042690000000  0.6891010000000  0.6029220000000 1.0
C      1  0.5651000000000  0.4322310000000  0.3161580000000 1.0
C      1  0.4537860000000  0.4258290000000  0.6934610000000 1.0
C      1  0.5462060000000  0.5724420000000  0.3096120000000 1.0
C      1  0.4319950000000  0.5634730000000  0.6885230000000 1.0
C      1  0.5276690000000  0.5539540000000  0.7034420000000 1.0
C      1  0.4582920000000  0.5428160000000  0.2928050000000 1.0
C      1  0.5421970000000  0.4559070000000  0.7086570000000 1.0
C      1  0.4710150000000  0.4448940000000  0.2951850000000 1.0
C      1  0.6206960000000  0.4617180000000  0.3947200000000 1.0
C      1  0.4084080000000  0.4385270000000  0.6112570000000 1.0
C      1  0.6026420000000  0.5596630000000  0.3845850000000 1.0
C      1  0.3869990000000  0.5343680000000  0.6045870000000 1.0
C      1  0.6863390000000  0.4561300000000  0.6039640000000 1.0
C      1  0.3034120000000  0.4461010000000  0.3858590000000 1.0
C      1  0.6843000000000  0.5557730000000  0.6095830000000 1.0
C      1  0.2990240000000  0.5488800000000  0.3886680000000 1.0
C      1  0.5419690000000  0.4560160000000  0.5516830000000 1.0
C      1  0.4476550000000  0.4368390000000  0.4413030000000 1.0
C      1  0.5412090000000  0.5582480000000  0.5451790000000 1.0
C      1  0.4319670000000  0.5304010000000  0.4487470000000 1.0
END
