TITL C-2222983-2349-1 5.87665098157708e-07 125000 -366.828117631769 0 0 60 (C1) n - 1
REM
REM in /home/bkarasulu/CARBON/AIRSS/Generating-Clusters/EDIP-Nigel-Params/Higher-Symm/Box-15A/Only-C60/SD-CG/HFTN-CG
REM
REM
REM
REM
REM
REM ./C.cell (414f73aa93bd7a1190c7fd0f31ff2f98)
REM
REM compiler GCC version 9.2.1 20190827 (Red Hat 9.2.1-1)
REM options -cpp -mtune=generic -march=x86-64 -g -O0 -fpre-include=/usr/include/finclude/math-vector-fortran.h
REM seed 1696132933 2103356831 661232726 109030944 984583152 200884224 -2030645328 -905886804 -2047280452 -1333711448 -2067742516 1366423561 -167876544 -1161391026 -1396548278 -505376269 -731628194 688409719 -239729873 1793630426 249212001 -636813693 799047996 -1365380702 2031963294 -2060814304 -1577205049 1896004817 -1877359409 2045412015 -1756832614 1038894535 409658765
REM
CELL 1.54180   50.00000   50.00000   50.00000   90.00000   90.00000   90.00000
LATT -1
SFAC C  
C      1  0.4968450000000  0.4723350000000  0.4304270000000 1.0
C      1  0.4919330000000  0.5600140000000  0.4704230000000 1.0
C      1  0.4902530000000  0.5389250000000  0.5783650000000 1.0
C      1  0.4980670000000  0.4263720000000  0.5359760000000 1.0
C      1  0.5009380000000  0.4664690000000  0.5765460000000 1.0
C      1  0.4960420000000  0.5726480000000  0.5392500000000 1.0
C      1  0.4949680000000  0.5367830000000  0.4234510000000 1.0
C      1  0.4956230000000  0.4247570000000  0.4544730000000 1.0
C      1  0.5126750000000  0.5417590000000  0.4681650000000 1.0
C      1  0.5151570000000  0.5366210000000  0.5640300000000 1.0
C      1  0.5182080000000  0.4468000000000  0.5337620000000 1.0
C      1  0.5193710000000  0.4644410000000  0.4459380000000 1.0
C      1  0.5157770000000  0.5529250000000  0.5401100000000 1.0
C      1  0.5163950000000  0.5321930000000  0.4418400000000 1.0
C      1  0.5178740000000  0.4399520000000  0.4613200000000 1.0
C      1  0.5195420000000  0.4672370000000  0.5547840000000 1.0
C      1  0.5365170000000  0.4863680000000  0.4523170000000 1.0
C      1  0.5332200000000  0.5402520000000  0.4885380000000 1.0
C      1  0.5315870000000  0.5138030000000  0.5659480000000 1.0
C      1  0.5354060000000  0.4494410000000  0.5103640000000 1.0
C      1  0.5374600000000  0.4899180000000  0.5527070000000 1.0
C      1  0.5244230000000  0.5402600000000  0.5158820000000 1.0
C      1  0.5361670000000  0.5117130000000  0.4380630000000 1.0
C      1  0.5306460000000  0.4367230000000  0.4860080000000 1.0
C      1  0.4737860000000  0.4291560000000  0.5533170000000 1.0
C      1  0.4717090000000  0.4578310000000  0.4267950000000 1.0
C      1  0.4720940000000  0.5705560000000  0.4532060000000 1.0
C      1  0.4648570000000  0.5527160000000  0.5705160000000 1.0
C      1  0.4702130000000  0.4322170000000  0.4444990000000 1.0
C      1  0.4754490000000  0.4515820000000  0.5757430000000 1.0
C      1  0.4689400000000  0.5727140000000  0.5469380000000 1.0
C      1  0.4726780000000  0.5558110000000  0.4249690000000 1.0
C      1  0.5606650000000  0.5310410000000  0.4839780000000 1.0
C      1  0.5737010000000  0.5112320000000  0.5277410000000 1.0
C      1  0.5549880000000  0.4702950000000  0.5103680000000 1.0
C      1  0.5638490000000  0.4870610000000  0.4622660000000 1.0
C      1  0.5769290000000  0.5271830000000  0.5064100000000 1.0
C      1  0.5677120000000  0.5165550000000  0.4598330000000 1.0
C      1  0.5691310000000  0.4749960000000  0.4869760000000 1.0
C      1  0.5560920000000  0.4901140000000  0.5310030000000 1.0
C      1  0.4459640000000  0.5548710000000  0.4600700000000 1.0
C      1  0.4514070000000  0.5323800000000  0.5500740000000 1.0
C      1  0.4538350000000  0.4480380000000  0.5372500000000 1.0
C      1  0.4517330000000  0.4724390000000  0.4449590000000 1.0
C      1  0.4522210000000  0.5542790000000  0.5280950000000 1.0
C      1  0.4482210000000  0.5395380000000  0.4335730000000 1.0
C      1  0.4535780000000  0.4477190000000  0.4656360000000 1.0
C      1  0.4560710000000  0.4694820000000  0.5586930000000 1.0
C      1  0.4773450000000  0.4527710000000  0.5172600000000 1.0
C      1  0.4741200000000  0.4921480000000  0.4547720000000 1.0
C      1  0.4566640000000  0.5351100000000  0.4802010000000 1.0
C      1  0.4789190000000  0.5186390000000  0.5473910000000 1.0
C      1  0.4708420000000  0.4578420000000  0.4878090000000 1.0
C      1  0.4806520000000  0.4875490000000  0.5513530000000 1.0
C      1  0.4693490000000  0.5446900000000  0.5053270000000 1.0
C      1  0.4749320000000  0.5234920000000  0.4540000000000 1.0
C      1  0.4892440000000  0.4789150000000  0.5247150000000 1.0
C      1  0.4892840000000  0.4990650000000  0.5042750000000 1.0
C      1  0.4891320000000  0.5257860000000  0.5183250000000 1.0
C      1  0.4753840000000  0.4854760000000  0.4829740000000 1.0
END
