TITL C-2222973-3874-14 -6.91243038981436e-05 125000 -366.400608357817 0 0 60 (C1) n - 1
REM
REM in /home/bkarasulu/CARBON/AIRSS/Generating-Clusters/EDIP-Nigel-Params/Higher-Symm/Box-15A/Only-C60/SD-CG/HFTN-CG
REM
REM
REM
REM
REM
REM ./C.cell (414f73aa93bd7a1190c7fd0f31ff2f98)
REM
REM compiler GCC version 9.2.1 20190827 (Red Hat 9.2.1-1)
REM options -cpp -mtune=generic -march=x86-64 -g -O0 -fpre-include=/usr/include/finclude/math-vector-fortran.h
REM seed -209325648 -1221756691 -346450363 989734246 1098171516 1918582755 1169607463 289304694 1162493736 -86213157 866442936 -1416833038 2098890529 1095575091 507675644 1930789174 -1007257068 1598149491 1175465032 1545877298 -143284055 631000610 -1572769976 -941131134 323633798 1595513229 -394888097 1649865571 1202195941 93397042 1187609823 2116686307 501588799
REM
CELL 1.54180   50.00000   50.00000   50.00000   90.00000   90.00000   90.00000
LATT -1
SFAC C  
C      1  0.5387180000000  0.5054000000000  0.5700190000000 1.0
C      1  0.4178030000000  0.5073680000000  0.4999150000000 1.0
C      1  0.5410900000000  0.5059200000000  0.4313870000000 1.0
C      1  0.5629890000000  0.4957090000000  0.4758610000000 1.0
C      1  0.4888910000000  0.4965600000000  0.5679990000000 1.0
C      1  0.4461310000000  0.4981240000000  0.4572600000000 1.0
C      1  0.5293540000000  0.4361000000000  0.5357960000000 1.0
C      1  0.4509960000000  0.4401670000000  0.5073530000000 1.0
C      1  0.5164440000000  0.4326310000000  0.4531050000000 1.0
C      1  0.4843040000000  0.4696220000000  0.5655490000000 1.0
C      1  0.4520270000000  0.4720060000000  0.4503410000000 1.0
C      1  0.5640630000000  0.4684920000000  0.4807720000000 1.0
C      1  0.4979250000000  0.4996060000000  0.4647310000000 1.0
C      1  0.5295060000000  0.4960040000000  0.5160830000000 1.0
C      1  0.4691460000000  0.4987370000000  0.5191490000000 1.0
C      1  0.4766990000000  0.5369150000000  0.4475980000000 1.0
C      1  0.5568730000000  0.5340300000000  0.5067400000000 1.0
C      1  0.4651140000000  0.5359410000000  0.5472220000000 1.0
C      1  0.4947640000000  0.4514380000000  0.4471010000000 1.0
C      1  0.5498830000000  0.4503330000000  0.5219990000000 1.0
C      1  0.4545430000000  0.4537710000000  0.5321600000000 1.0
C      1  0.4684190000000  0.4540710000000  0.4900960000000 1.0
C      1  0.5240130000000  0.4411880000000  0.4788510000000 1.0
C      1  0.5057900000000  0.4488280000000  0.5271780000000 1.0
C      1  0.4977200000000  0.5301520000000  0.4298220000000 1.0
C      1  0.5618810000000  0.5283120000000  0.5338240000000 1.0
C      1  0.4385250000000  0.5307430000000  0.5378680000000 1.0
C      1  0.4821060000000  0.4800920000000  0.4989750000000 1.0
C      1  0.5162600000000  0.4691270000000  0.4813870000000 1.0
C      1  0.5090190000000  0.4737100000000  0.5093800000000 1.0
C      1  0.5016090000000  0.5653740000000  0.5385270000000 1.0
C      1  0.4709770000000  0.5685970000000  0.4838410000000 1.0
C      1  0.5320870000000  0.5665090000000  0.4828540000000 1.0
C      1  0.4745500000000  0.5595450000000  0.5329540000000 1.0
C      1  0.4876270000000  0.5592220000000  0.4630650000000 1.0
C      1  0.5396290000000  0.5573250000000  0.5082580000000 1.0
C      1  0.5165080000000  0.5190170000000  0.5340680000000 1.0
C      1  0.4623970000000  0.5229270000000  0.4993330000000 1.0
C      1  0.5209580000000  0.5209170000000  0.4679060000000 1.0
C      1  0.4692830000000  0.5143200000000  0.4669220000000 1.0
C      1  0.5427320000000  0.5115170000000  0.4910310000000 1.0
C      1  0.4857060000000  0.5124530000000  0.5429770000000 1.0
C      1  0.4211870000000  0.4864530000000  0.5182150000000 1.0
C      1  0.5258250000000  0.4831300000000  0.4272000000000 1.0
C      1  0.5501220000000  0.4831840000000  0.5578190000000 1.0
C      1  0.4816480000000  0.4503270000000  0.5455510000000 1.0
C      1  0.4672410000000  0.4506060000000  0.4604540000000 1.0
C      1  0.5517480000000  0.4456340000000  0.4917070000000 1.0
C      1  0.4348670000000  0.5290800000000  0.5094710000000 1.0
C      1  0.5257720000000  0.5300310000000  0.4310230000000 1.0
C      1  0.5450730000000  0.5294830000000  0.5562050000000 1.0
C      1  0.4237210000000  0.5015470000000  0.4732260000000 1.0
C      1  0.5623150000000  0.5033050000000  0.4492160000000 1.0
C      1  0.5129550000000  0.5028140000000  0.5801100000000 1.0
C      1  0.4459740000000  0.4824690000000  0.5308800000000 1.0
C      1  0.5018870000000  0.4799980000000  0.4412200000000 1.0
C      1  0.5510840000000  0.4795130000000  0.5301520000000 1.0
C      1  0.4779780000000  0.5489910000000  0.5045810000000 1.0
C      1  0.5114400000000  0.5482850000000  0.4758360000000 1.0
C      1  0.5141050000000  0.5463290000000  0.5198780000000 1.0
END
