TITL C-2222983-2349-11 1.06546399938319e-05 125000 -347.851903557874 0 0 60 (C1) n - 1
REM
REM in /home/bkarasulu/CARBON/AIRSS/Generating-Clusters/EDIP-Nigel-Params/Higher-Symm/Box-15A/Only-C60/SD-CG/HFTN-CG
REM
REM
REM
REM
REM
REM ./C.cell (414f73aa93bd7a1190c7fd0f31ff2f98)
REM
REM compiler GCC version 9.2.1 20190827 (Red Hat 9.2.1-1)
REM options -cpp -mtune=generic -march=x86-64 -g -O0 -fpre-include=/usr/include/finclude/math-vector-fortran.h
REM seed 82070938 -645527048 -462764843 -1442969604 1191845714 852541539 -117680589 -648242925 -1080640914 -551863767 1655917568 -734995468 -695411403 -1806876894 305063092 13624975 1672629250 -1398697465 -1428532590 -1475717705 -150534644 -982385593 -1536913910 1110587663 1444381826 1360434410 652907504 -1019000623 -338779355 2074264691 -368720623 1094323980 892372328
REM
CELL 1.54180   50.00000   50.00000   50.00000   90.00000   90.00000   90.00000
LATT -1
SFAC C  
C      1  0.4628540000000  0.4627880000000  0.5041450000000 1.0
C      1  0.5377720000000  0.4655420000000  0.4965310000000 1.0
C      1  0.5372980000000  0.5422440000000  0.5041980000000 1.0
C      1  0.4619040000000  0.5370780000000  0.4956050000000 1.0
C      1  0.5031460000000  0.4627180000000  0.4624640000000 1.0
C      1  0.4976270000000  0.4617660000000  0.5384220000000 1.0
C      1  0.5037040000000  0.5386050000000  0.5388670000000 1.0
C      1  0.4965340000000  0.5413660000000  0.4620050000000 1.0
C      1  0.5223440000000  0.4576570000000  0.4399640000000 1.0
C      1  0.4784640000000  0.4593120000000  0.5610380000000 1.0
C      1  0.4768250000000  0.5464320000000  0.4398780000000 1.0
C      1  0.5216060000000  0.5453810000000  0.5609630000000 1.0
C      1  0.4404400000000  0.4601090000000  0.5228880000000 1.0
C      1  0.5602590000000  0.4610780000000  0.4783330000000 1.0
C      1  0.4393880000000  0.5437520000000  0.4783290000000 1.0
C      1  0.5596860000000  0.5476210000000  0.5229980000000 1.0
C      1  0.5785970000000  0.5088210000000  0.4788840000000 1.0
C      1  0.4226350000000  0.5087190000000  0.5182980000000 1.0
C      1  0.4211900000000  0.4949220000000  0.4820770000000 1.0
C      1  0.5739230000000  0.4988740000000  0.5210980000000 1.0
C      1  0.4813180000000  0.5068000000000  0.5784550000000 1.0
C      1  0.5206000000000  0.5066040000000  0.4256640000000 1.0
C      1  0.4780370000000  0.4972910000000  0.4253970000000 1.0
C      1  0.5195220000000  0.4982340000000  0.5798040000000 1.0
C      1  0.5133360000000  0.5271760000000  0.5827150000000 1.0
C      1  0.4870940000000  0.5249470000000  0.4219520000000 1.0
C      1  0.4878290000000  0.4781570000000  0.5821800000000 1.0
C      1  0.5116100000000  0.4790350000000  0.4221860000000 1.0
C      1  0.5779770000000  0.5264300000000  0.5125120000000 1.0
C      1  0.4174060000000  0.5251970000000  0.4882200000000 1.0
C      1  0.5801410000000  0.4811560000000  0.4875690000000 1.0
C      1  0.4183310000000  0.4785240000000  0.5128090000000 1.0
C      1  0.5359930000000  0.5122830000000  0.5119400000000 1.0
C      1  0.4683770000000  0.5087090000000  0.4858560000000 1.0
C      1  0.4696860000000  0.4919240000000  0.5109530000000 1.0
C      1  0.5327610000000  0.4949170000000  0.4872540000000 1.0
C      1  0.5141340000000  0.5100440000000  0.5333960000000 1.0
C      1  0.4886040000000  0.5112100000000  0.4631440000000 1.0
C      1  0.5116400000000  0.4926860000000  0.4638410000000 1.0
C      1  0.4910010000000  0.4910060000000  0.5329270000000 1.0
C      1  0.5429820000000  0.5096980000000  0.4425200000000 1.0
C      1  0.4641400000000  0.5093150000000  0.5545930000000 1.0
C      1  0.4564600000000  0.4937840000000  0.4431860000000 1.0
C      1  0.5308550000000  0.4955810000000  0.5527380000000 1.0
C      1  0.4512310000000  0.5091650000000  0.5281120000000 1.0
C      1  0.5514350000000  0.5109390000000  0.4693910000000 1.0
C      1  0.4485420000000  0.4934830000000  0.4701500000000 1.0
C      1  0.5573880000000  0.4955390000000  0.5436120000000 1.0
C      1  0.4504250000000  0.5429940000000  0.4514400000000 1.0
C      1  0.5482660000000  0.5444200000000  0.5494640000000 1.0
C      1  0.5486190000000  0.4617220000000  0.4516740000000 1.0
C      1  0.4519970000000  0.4630320000000  0.5495000000000 1.0
C      1  0.5132390000000  0.4502200000000  0.4878250000000 1.0
C      1  0.4862300000000  0.5530310000000  0.4878280000000 1.0
C      1  0.4873700000000  0.4476860000000  0.5138330000000 1.0
C      1  0.5115880000000  0.5541360000000  0.5142170000000 1.0
C      1  0.5101860000000  0.5972720000000  0.4880820000000 1.0
C      1  0.4886070000000  0.4067270000000  0.4843240000000 1.0
C      1  0.4965620000000  0.5793840000000  0.5020020000000 1.0
C      1  0.5022860000000  0.4232970000000  0.4997470000000 1.0
END
