TITL C-2205180-3518-1 2.20468552437214e-06 3375 -350.069183741615 0 0 60 (C3) n - 1
REM
REM in /home/bkarasulu/CARBON/AIRSS/Generating-Clusters/EDIP-Nigel-Params/Higher-Symm/Box-15A/Only-C60/SD-CG/HFTN-CG
REM
REM
REM
REM
REM
REM ./C.cell (a2850807a9bf4ad07a5b6933b78d9264)
REM
REM compiler GCC version 9.2.1 20190827 (Red Hat 9.2.1-1)
REM options -cpp -mtune=generic -march=x86-64 -g -O0 -fpre-include=/usr/include/finclude/math-vector-fortran.h
REM seed 1825623163 225032003 -1124828804 -375327810 -1748405501 1081055845 -1083188291 -1376342377 -1763935338 -1524363793 100949460 -1878688677 692135330 -571206436 1843797594 1965798687 -1897867620 788087459 -1059120514 -1489690862 192558368 -1333202092 -1541776961 1307075124 1422356240 -277598702 951136645 293813497 -1362429674 -1783240338 473881288 1632891434 -1541828623
REM
CELL 1.54180   15.00000   15.00000   15.00000   90.00000   90.00000   90.00000
LATT -1
SFAC C  
C      1  0.4460160000000  0.5440480000000  0.5841580000000 1.0
C      1  0.4198060000000  0.4537700000000  0.5721220000000 1.0
C      1  0.4465050000000  0.4047870000000  0.4961060000000 1.0
C      1  0.4217350000000  0.4600210000000  0.4232730000000 1.0
C      1  0.4464840000000  0.5508950000000  0.4195620000000 1.0
C      1  0.4198820000000  0.5855820000000  0.5036360000000 1.0
C      1  0.5677570000000  0.4551820000000  0.5761770000000 1.0
C      1  0.5504090000000  0.5475450000000  0.5847250000000 1.0
C      1  0.5678390000000  0.5883840000000  0.5009490000000 1.0
C      1  0.5505500000000  0.5503860000000  0.4171740000000 1.0
C      1  0.5699150000000  0.4589750000000  0.4273360000000 1.0
C      1  0.5505650000000  0.4031080000000  0.4998630000000 1.0
C      1  0.4411750000000  0.6259690000000  0.7193180000000 1.0
C      1  0.4108280000000  0.3761300000000  0.6971370000000 1.0
C      1  0.4407610000000  0.2467780000000  0.4992460000000 1.0
C      1  0.4106780000000  0.3910080000000  0.2935290000000 1.0
C      1  0.4406080000000  0.6271080000000  0.2809850000000 1.0
C      1  0.4108740000000  0.7326710000000  0.5085680000000 1.0
C      1  0.5621370000000  0.3887090000000  0.7087590000000 1.0
C      1  0.5874210000000  0.6215010000000  0.7069380000000 1.0
C      1  0.5622890000000  0.7364100000000  0.4917300000000 1.0
C      1  0.5868080000000  0.6184910000000  0.2912730000000 1.0
C      1  0.5617580000000  0.3752640000000  0.2998840000000 1.0
C      1  0.5869570000000  0.2600290000000  0.5016030000000 1.0
C      1  0.5111580000000  0.2582980000000  0.5719490000000 1.0
C      1  0.4970010000000  0.3183530000000  0.3494380000000 1.0
C      1  0.5110520000000  0.5584640000000  0.2545220000000 1.0
C      1  0.4972840000000  0.7210680000000  0.4178050000000 1.0
C      1  0.5115320000000  0.6831260000000  0.6730160000000 1.0
C      1  0.4972850000000  0.4604660000000  0.7325170000000 1.0
C      1  0.4936850000000  0.7359750000000  0.5641730000000 1.0
C      1  0.5130370000000  0.6882730000000  0.3238740000000 1.0
C      1  0.4934340000000  0.4377320000000  0.2633410000000 1.0
C      1  0.5130910000000  0.2535130000000  0.4248410000000 1.0
C      1  0.4935350000000  0.3262670000000  0.6721400000000 1.0
C      1  0.5133900000000  0.5582420000000  0.7509130000000 1.0
C      1  0.3090700000000  0.5096720000000  0.6548960000000 1.0
C      1  0.3107740000000  0.3536450000000  0.5567840000000 1.0
C      1  0.3094570000000  0.3608430000000  0.4306300000000 1.0
C      1  0.3109480000000  0.5233690000000  0.3449860000000 1.0
C      1  0.3093050000000  0.6292990000000  0.4139000000000 1.0
C      1  0.3106930000000  0.6224360000000  0.5980560000000 1.0
C      1  0.6882960000000  0.4886640000000  0.6542160000000 1.0
C      1  0.6886610000000  0.6394070000000  0.5679290000000 1.0
C      1  0.6882000000000  0.6389020000000  0.4322860000000 1.0
C      1  0.6875870000000  0.4887100000000  0.3439140000000 1.0
C      1  0.6877770000000  0.3716330000000  0.4125410000000 1.0
C      1  0.6882710000000  0.3710610000000  0.5866350000000 1.0
C      1  0.6283840000000  0.4199570000000  0.6382750000000 1.0
C      1  0.6406370000000  0.3459590000000  0.4996310000000 1.0
C      1  0.6269750000000  0.4210180000000  0.3632630000000 1.0
C      1  0.6405510000000  0.5770670000000  0.3665190000000 1.0
C      1  0.6285660000000  0.6597240000000  0.4999960000000 1.0
C      1  0.6411190000000  0.5766520000000  0.6333180000000 1.0
C      1  0.3824230000000  0.5783650000000  0.6515540000000 1.0
C      1  0.3504480000000  0.6512050000000  0.5067430000000 1.0
C      1  0.3824700000000  0.5917860000000  0.3562410000000 1.0
C      1  0.3512640000000  0.4303000000000  0.3657200000000 1.0
C      1  0.3825230000000  0.3294900000000  0.4919600000000 1.0
C      1  0.3503630000000  0.4183070000000  0.6274260000000 1.0
END
