TITL C-2205182-3563-3 2.00643721440493e-05 3375 -362.055747981449 0 0 60 (C1) n - 1
REM
REM in /home/bkarasulu/CARBON/AIRSS/Generating-Clusters/EDIP-Nigel-Params/Higher-Symm/Box-15A/Only-C60/SD-CG/HFTN-CG
REM
REM
REM
REM
REM
REM ./C.cell (a2850807a9bf4ad07a5b6933b78d9264)
REM
REM compiler GCC version 9.2.1 20190827 (Red Hat 9.2.1-1)
REM options -cpp -mtune=generic -march=x86-64 -g -O0 -fpre-include=/usr/include/finclude/math-vector-fortran.h
REM seed 1292286013 744882754 889005420 965508985 161776773 1329151709 -232894697 -1102846014 -169766649 -1610529745 -139058527 -1670257144 -179250479 687772420 1461086059 168223299 2101058794 334720691 -983224479 -702425297 -1335004050 578028317 -452664134 -868397869 -927323002 1269570522 1339028120 256673265 -1771597461 -278393914 1037135823 703669244 1570320413
REM
CELL 1.54180   15.00000   15.00000   15.00000   90.00000   90.00000   90.00000
LATT -1
SFAC C  
C      1  0.4617730000000  0.4648590000000  0.2631170000000 1.0
C      1  0.4599480000000  0.4803940000000  0.7054350000000 1.0
C      1  0.4170660000000  0.5877630000000  0.6171940000000 1.0
C      1  0.4855570000000  0.5852900000000  0.3671240000000 1.0
C      1  0.3819830000000  0.2879070000000  0.4790530000000 1.0
C      1  0.6915860000000  0.3706410000000  0.5259930000000 1.0
C      1  0.6438060000000  0.6614440000000  0.3725680000000 1.0
C      1  0.4161200000000  0.6028440000000  0.5138770000000 1.0
C      1  0.4592030000000  0.3537970000000  0.4670750000000 1.0
C      1  0.5657320000000  0.3775030000000  0.6352210000000 1.0
C      1  0.7028520000000  0.4620670000000  0.6634080000000 1.0
C      1  0.4437790000000  0.4507370000000  0.4667320000000 1.0
C      1  0.3482120000000  0.4610750000000  0.4826970000000 1.0
C      1  0.7296110000000  0.4459540000000  0.5733300000000 1.0
C      1  0.5414980000000  0.6708430000000  0.3678650000000 1.0
C      1  0.3132440000000  0.5905860000000  0.3851250000000 1.0
C      1  0.6806270000000  0.6787720000000  0.4752770000000 1.0
C      1  0.2928500000000  0.3284350000000  0.4845070000000 1.0
C      1  0.4346010000000  0.7029950000000  0.5001430000000 1.0
C      1  0.5814860000000  0.4482060000000  0.3867220000000 1.0
C      1  0.2840440000000  0.3812040000000  0.4055760000000 1.0
C      1  0.6624540000000  0.5728190000000  0.3414760000000 1.0
C      1  0.5859380000000  0.6696390000000  0.5097660000000 1.0
C      1  0.6202930000000  0.6541510000000  0.6682530000000 1.0
C      1  0.4213520000000  0.2786440000000  0.5662010000000 1.0
C      1  0.3453480000000  0.3675670000000  0.3323990000000 1.0
C      1  0.3084730000000  0.6592740000000  0.6237770000000 1.0
C      1  0.3679820000000  0.5126130000000  0.7088550000000 1.0
C      1  0.5529970000000  0.5141490000000  0.7282630000000 1.0
C      1  0.3083530000000  0.5205190000000  0.3147100000000 1.0
C      1  0.5210600000000  0.7191050000000  0.4512520000000 1.0
C      1  0.4616290000000  0.7262550000000  0.5975410000000 1.0
C      1  0.7289800000000  0.6085840000000  0.5305760000000 1.0
C      1  0.3049030000000  0.4956740000000  0.6347560000000 1.0
C      1  0.5780190000000  0.6043840000000  0.7362240000000 1.0
C      1  0.4710840000000  0.2449350000000  0.3693110000000 1.0
C      1  0.3735230000000  0.4514410000000  0.2946590000000 1.0
C      1  0.4810470000000  0.5476800000000  0.4618910000000 1.0
C      1  0.6063530000000  0.4675020000000  0.6544740000000 1.0
C      1  0.5670270000000  0.2637880000000  0.5105730000000 1.0
C      1  0.6066260000000  0.5485600000000  0.2669710000000 1.0
C      1  0.6379840000000  0.5232410000000  0.4276990000000 1.0
C      1  0.5841090000000  0.5207890000000  0.5774480000000 1.0
C      1  0.7270560000000  0.5101670000000  0.4899990000000 1.0
C      1  0.7094990000000  0.3936490000000  0.4346760000000 1.0
C      1  0.4716710000000  0.3998760000000  0.6546200000000 1.0
C      1  0.6441490000000  0.3806740000000  0.3697630000000 1.0
C      1  0.6958950000000  0.6191670000000  0.6205740000000 1.0
C      1  0.5728560000000  0.5664720000000  0.4960800000000 1.0
C      1  0.3987450000000  0.6789060000000  0.6588700000000 1.0
C      1  0.3959520000000  0.6124180000000  0.3361140000000 1.0
C      1  0.6015820000000  0.3400800000000  0.5516660000000 1.0
C      1  0.5599570000000  0.6950500000000  0.6020920000000 1.0
C      1  0.3229510000000  0.4120920000000  0.5749980000000 1.0
C      1  0.5316890000000  0.5078920000000  0.3150280000000 1.0
C      1  0.3265560000000  0.5624400000000  0.4848420000000 1.0
C      1  0.4055730000000  0.2956810000000  0.3334860000000 1.0
C      1  0.3960560000000  0.3542980000000  0.6180100000000 1.0
C      1  0.2780030000000  0.5766920000000  0.5787910000000 1.0
C      1  0.5306970000000  0.2298170000000  0.4352740000000 1.0
END
