TITL C-2222974-2064-12 -6.20497790759203e-07 125000 -365.233965843045 0 0 60 (C2h) n - 1
REM
REM in /home/bkarasulu/CARBON/AIRSS/Generating-Clusters/EDIP-Nigel-Params/Higher-Symm/Box-15A/Only-C60/SD-CG/HFTN-CG
REM
REM
REM
REM
REM
REM ./C.cell (414f73aa93bd7a1190c7fd0f31ff2f98)
REM
REM compiler GCC version 9.2.1 20190827 (Red Hat 9.2.1-1)
REM options -cpp -mtune=generic -march=x86-64 -g -O0 -fpre-include=/usr/include/finclude/math-vector-fortran.h
REM seed -360994026 1421822046 1989600459 2057316071 -1241356478 -849350132 -793747258 606944376 256875831 749892772 -1384955759 -595141685 1499189027 270527662 -1775649696 -1770109868 62980554 1314071017 -1304713206 168149142 -1654343767 -1952421235 229123843 1197873294 -1181669556 953171943 1248189747 -1661096364 2042835496 -1952689722 1138762884 -1947141079 -354148361
REM
CELL 1.54180   50.00000   50.00000   50.00000   90.00000   90.00000   90.00000
LATT -1
SFAC C  
C      1  0.4857190000000  0.4305700000000  0.5249490000000 1.0
C      1  0.4857310000000  0.5694300000000  0.4750440000000 1.0
C      1  0.5142690000000  0.4305700000000  0.5249560000000 1.0
C      1  0.5142810000000  0.5694300000000  0.4750510000000 1.0
C      1  0.5311950000000  0.5527090000000  0.4592910000000 1.0
C      1  0.5311760000000  0.4472910000000  0.5407230000000 1.0
C      1  0.4688240000000  0.5527090000000  0.4592770000000 1.0
C      1  0.4688050000000  0.4472910000000  0.5407090000000 1.0
C      1  0.4429020000000  0.5449200000000  0.4692420000000 1.0
C      1  0.4428880000000  0.4550800000000  0.5307320000000 1.0
C      1  0.5571120000000  0.5449200000000  0.4692680000000 1.0
C      1  0.5570980000000  0.4550800000000  0.5307580000000 1.0
C      1  0.5543940000000  0.5061710000000  0.4441830000000 1.0
C      1  0.5543690000000  0.4938290000000  0.5558420000000 1.0
C      1  0.4456310000000  0.5061710000000  0.4441580000000 1.0
C      1  0.4456060000000  0.4938300000000  0.5558170000000 1.0
C      1  0.5752920000000  0.5280200000000  0.5222180000000 1.0
C      1  0.5753020000000  0.4719800000000  0.4778160000000 1.0
C      1  0.4246980000000  0.5280200000000  0.5221840000000 1.0
C      1  0.4247080000000  0.4719800000000  0.4777820000000 1.0
C      1  0.5145790000000  0.4972500000000  0.4650670000000 1.0
C      1  0.5145630000000  0.5027500000000  0.5349400000000 1.0
C      1  0.4854370000000  0.4972500000000  0.4650600000000 1.0
C      1  0.4854210000000  0.5027500000000  0.5349330000000 1.0
C      1  0.5287450000000  0.5494990000000  0.5220200000000 1.0
C      1  0.5287540000000  0.4505010000000  0.4779930000000 1.0
C      1  0.4712460000000  0.5494990000000  0.5220070000000 1.0
C      1  0.4712550000000  0.4505010000000  0.4779800000000 1.0
C      1  0.4709860000000  0.4896390000000  0.5121100000000 1.0
C      1  0.4709920000000  0.5103620000000  0.4878760000000 1.0
C      1  0.5290080000000  0.4896380000000  0.5121240000000 1.0
C      1  0.5290140000000  0.5103610000000  0.4878900000000 1.0
C      1  0.4842120000000  0.4618740000000  0.5024220000000 1.0
C      1  0.4842130000000  0.5381260000000  0.4975710000000 1.0
C      1  0.5157870000000  0.4618740000000  0.5024290000000 1.0
C      1  0.5157880000000  0.5381260000000  0.4975780000000 1.0
C      1  0.5773380000000  0.4986810000000  0.4855440000000 1.0
C      1  0.5773320000000  0.5013190000000  0.5144910000000 1.0
C      1  0.4226680000000  0.4986810000000  0.4855090000000 1.0
C      1  0.4226620000000  0.5013190000000  0.5144560000000 1.0
C      1  0.5558550000000  0.4540620000000  0.4740250000000 1.0
C      1  0.5558440000000  0.5459380000000  0.5260000000000 1.0
C      1  0.4441560000000  0.4540620000000  0.4740000000000 1.0
C      1  0.4441450000000  0.5459380000000  0.5259750000000 1.0
C      1  0.4441120000000  0.5157910000000  0.4720690000000 1.0
C      1  0.4441000000000  0.4842090000000  0.5279060000000 1.0
C      1  0.5559000000000  0.5157910000000  0.4720940000000 1.0
C      1  0.5558880000000  0.4842090000000  0.5279310000000 1.0
C      1  0.4845400000000  0.4653070000000  0.5587250000000 1.0
C      1  0.4845670000000  0.5346930000000  0.4412680000000 1.0
C      1  0.5154330000000  0.4653070000000  0.5587320000000 1.0
C      1  0.5154600000000  0.5346930000000  0.4412750000000 1.0
C      1  0.5266090000000  0.4931940000000  0.5603200000000 1.0
C      1  0.5266370000000  0.5068060000000  0.4396920000000 1.0
C      1  0.4733630000000  0.4931940000000  0.5603080000000 1.0
C      1  0.4733910000000  0.5068060000000  0.4396800000000 1.0
C      1  0.5133640000000  0.5654120000000  0.5385950000000 1.0
C      1  0.5133810000000  0.4345880000000  0.4614110000000 1.0
C      1  0.4866190000000  0.5654120000000  0.5385890000000 1.0
C      1  0.4866360000000  0.4345880000000  0.4614050000000 1.0
END
