TITL C-2222977-2433-3 -6.3096012149069e-08 125000 -358.331333191667 0 0 60 (C1) n - 1
REM
REM in /home/bkarasulu/CARBON/AIRSS/Generating-Clusters/EDIP-Nigel-Params/Higher-Symm/Box-15A/Only-C60/SD-CG/HFTN-CG
REM
REM
REM
REM
REM
REM ./C.cell (414f73aa93bd7a1190c7fd0f31ff2f98)
REM
REM compiler GCC version 9.2.1 20190827 (Red Hat 9.2.1-1)
REM options -cpp -mtune=generic -march=x86-64 -g -O0 -fpre-include=/usr/include/finclude/math-vector-fortran.h
REM seed 1980270118 524265755 -499652877 1865161205 -2046175646 2115268873 447515538 -1019584635 -91234171 -842356984 84172139 2116611647 -2050830645 -1107385938 -1611702967 36912777 -232837409 -1971716662 -1605172926 -2088701919 -1383072278 255567779 -1013114286 1609382300 1564457516 -1135010720 -1119071892 2045209790 446693098 -1903598916 -1521902481 686078301 -1548248926
REM
CELL 1.54180   50.00000   50.00000   50.00000   90.00000   90.00000   90.00000
LATT -1
SFAC C  
C      1  0.4305990000000  0.4981610000000  0.4497140000000 1.0
C      1  0.5395840000000  0.5031360000000  0.4342370000000 1.0
C      1  0.5713800000000  0.4988590000000  0.5472450000000 1.0
C      1  0.4590850000000  0.5043920000000  0.5655430000000 1.0
C      1  0.4359510000000  0.5036390000000  0.5461350000000 1.0
C      1  0.5499710000000  0.4983580000000  0.5696320000000 1.0
C      1  0.5617740000000  0.5050990000000  0.4547760000000 1.0
C      1  0.4542140000000  0.4978850000000  0.4293200000000 1.0
C      1  0.4461380000000  0.5467660000000  0.5099130000000 1.0
C      1  0.4817480000000  0.5454100000000  0.4400390000000 1.0
C      1  0.5518240000000  0.5487370000000  0.4902330000000 1.0
C      1  0.5212510000000  0.5418890000000  0.5556680000000 1.0
C      1  0.4441000000000  0.5414850000000  0.4815910000000 1.0
C      1  0.4929570000000  0.5478070000000  0.5537600000000 1.0
C      1  0.5551530000000  0.5422090000000  0.5183500000000 1.0
C      1  0.5101800000000  0.5493410000000  0.4417120000000 1.0
C      1  0.5009250000000  0.4409580000000  0.5328540000000 1.0
C      1  0.4653840000000  0.4396400000000  0.5009380000000 1.0
C      1  0.4995050000000  0.4352180000000  0.4674050000000 1.0
C      1  0.5353740000000  0.4370420000000  0.4998220000000 1.0
C      1  0.5268320000000  0.4391980000000  0.4731920000000 1.0
C      1  0.4732740000000  0.4420830000000  0.4743090000000 1.0
C      1  0.4753450000000  0.4490220000000  0.5252870000000 1.0
C      1  0.5273920000000  0.4447360000000  0.5253150000000 1.0
C      1  0.5369080000000  0.4710220000000  0.5671140000000 1.0
C      1  0.4350930000000  0.4759630000000  0.5351290000000 1.0
C      1  0.4685610000000  0.4723570000000  0.4340300000000 1.0
C      1  0.5588200000000  0.4785790000000  0.4706350000000 1.0
C      1  0.5228340000000  0.4794480000000  0.4440610000000 1.0
C      1  0.4323250000000  0.4709450000000  0.4631890000000 1.0
C      1  0.4706060000000  0.4769300000000  0.5656840000000 1.0
C      1  0.5689540000000  0.4716360000000  0.5340550000000 1.0
C      1  0.5405820000000  0.4909450000000  0.5168760000000 1.0
C      1  0.4873440000000  0.4902090000000  0.5353420000000 1.0
C      1  0.4577100000000  0.4908570000000  0.4836800000000 1.0
C      1  0.5091800000000  0.4866060000000  0.4700350000000 1.0
C      1  0.5348760000000  0.4924740000000  0.4863810000000 1.0
C      1  0.4809060000000  0.4932070000000  0.4635100000000 1.0
C      1  0.4628150000000  0.4900270000000  0.5144680000000 1.0
C      1  0.5184740000000  0.4906250000000  0.5400010000000 1.0
C      1  0.5377070000000  0.5702570000000  0.4797960000000 1.0
C      1  0.5418730000000  0.5602360000000  0.5612320000000 1.0
C      1  0.4619670000000  0.5668600000000  0.5207100000000 1.0
C      1  0.4623400000000  0.5636300000000  0.4478630000000 1.0
C      1  0.5586370000000  0.5598230000000  0.5398430000000 1.0
C      1  0.5216770000000  0.5686070000000  0.4581610000000 1.0
C      1  0.4397780000000  0.5616390000000  0.4626090000000 1.0
C      1  0.4820640000000  0.5683020000000  0.5385510000000 1.0
C      1  0.4440550000000  0.5221620000000  0.5246480000000 1.0
C      1  0.4743620000000  0.5184620000000  0.4348780000000 1.0
C      1  0.5510580000000  0.5253610000000  0.4737140000000 1.0
C      1  0.5242840000000  0.5131650000000  0.5614190000000 1.0
C      1  0.4372510000000  0.5131530000000  0.4765430000000 1.0
C      1  0.4781240000000  0.5231480000000  0.5531090000000 1.0
C      1  0.5616690000000  0.5136850000000  0.5218610000000 1.0
C      1  0.5255080000000  0.5277320000000  0.4329100000000 1.0
C      1  0.5463840000000  0.4567560000000  0.5439520000000 1.0
C      1  0.5414650000000  0.4590530000000  0.4558370000000 1.0
C      1  0.4572420000000  0.4597750000000  0.5457970000000 1.0
C      1  0.4566240000000  0.4572170000000  0.4553860000000 1.0
END
