TITL C-2222973-3874-15 -1.67263036826258e-05 125000 -354.33033602808 0 0 60 (C1) n - 1
REM
REM in /home/bkarasulu/CARBON/AIRSS/Generating-Clusters/EDIP-Nigel-Params/Higher-Symm/Box-15A/Only-C60/SD-CG/HFTN-CG
REM
REM
REM
REM
REM
REM ./C.cell (414f73aa93bd7a1190c7fd0f31ff2f98)
REM
REM compiler GCC version 9.2.1 20190827 (Red Hat 9.2.1-1)
REM options -cpp -mtune=generic -march=x86-64 -g -O0 -fpre-include=/usr/include/finclude/math-vector-fortran.h
REM seed -1095390485 1958139679 1851978979 293582977 -1264237970 239278581 -1735838180 -2111445815 1856415349 -570479560 702286461 996205678 -249074149 1771322362 183884571 -1435475271 1501285966 537688547 1815684001 -865648656 -1743998757 1618168532 -530883619 -1899753800 -449367812 -1579906542 1581944731 1982575424 1262576480 -35091844 644407485 -1584811954 -1445087208
REM
CELL 1.54180   50.00000   50.00000   50.00000   90.00000   90.00000   90.00000
LATT -1
SFAC C  
C      1  0.4933650000000  0.4254210000000  0.5293470000000 1.0
C      1  0.5268830000000  0.4918110000000  0.4346090000000 1.0
C      1  0.4392080000000  0.5339020000000  0.4949470000000 1.0
C      1  0.5116410000000  0.5711070000000  0.5354160000000 1.0
C      1  0.5047910000000  0.4180970000000  0.4652810000000 1.0
C      1  0.4880890000000  0.5848550000000  0.4758690000000 1.0
C      1  0.4658920000000  0.5152720000000  0.4380990000000 1.0
C      1  0.4848040000000  0.4753980000000  0.5498990000000 1.0
C      1  0.5200640000000  0.5187980000000  0.5505340000000 1.0
C      1  0.5822240000000  0.4628290000000  0.5005830000000 1.0
C      1  0.5541810000000  0.5255220000000  0.4986380000000 1.0
C      1  0.4446660000000  0.4743780000000  0.5063050000000 1.0
C      1  0.4858000000000  0.4376740000000  0.4719770000000 1.0
C      1  0.5350150000000  0.4980430000000  0.5616320000000 1.0
C      1  0.4259330000000  0.5331490000000  0.5207420000000 1.0
C      1  0.5080010000000  0.5650780000000  0.4767400000000 1.0
C      1  0.5165260000000  0.4368010000000  0.5188530000000 1.0
C      1  0.4866600000000  0.5610480000000  0.5283470000000 1.0
C      1  0.4709160000000  0.4945550000000  0.5645020000000 1.0
C      1  0.4713940000000  0.4899620000000  0.4483640000000 1.0
C      1  0.5216110000000  0.5157940000000  0.4476810000000 1.0
C      1  0.5618480000000  0.4738480000000  0.5163580000000 1.0
C      1  0.5706840000000  0.5202170000000  0.4767570000000 1.0
C      1  0.4292940000000  0.4729390000000  0.4831920000000 1.0
C      1  0.5061890000000  0.4643410000000  0.5638410000000 1.0
C      1  0.5922680000000  0.4759520000000  0.4792650000000 1.0
C      1  0.4688080000000  0.5930150000000  0.4929140000000 1.0
C      1  0.5000940000000  0.5280100000000  0.5675940000000 1.0
C      1  0.5113450000000  0.4728300000000  0.4233870000000 1.0
C      1  0.4799380000000  0.5356940000000  0.4273940000000 1.0
C      1  0.4264260000000  0.5187380000000  0.4753970000000 1.0
C      1  0.4303490000000  0.4833290000000  0.5284500000000 1.0
C      1  0.5680330000000  0.5241410000000  0.5231170000000 1.0
C      1  0.5269990000000  0.4089760000000  0.4776380000000 1.0
C      1  0.5333960000000  0.5771180000000  0.5206230000000 1.0
C      1  0.4691050000000  0.4208570000000  0.5184220000000 1.0
C      1  0.4851970000000  0.4739420000000  0.4301320000000 1.0
C      1  0.5699460000000  0.4976190000000  0.5290250000000 1.0
C      1  0.4700130000000  0.5799370000000  0.5164490000000 1.0
C      1  0.5064230000000  0.5333440000000  0.4322260000000 1.0
C      1  0.5310710000000  0.4726870000000  0.5701790000000 1.0
C      1  0.4757230000000  0.5189810000000  0.5748800000000 1.0
C      1  0.4250980000000  0.5091100000000  0.5340130000000 1.0
C      1  0.4193450000000  0.4935780000000  0.4690820000000 1.0
C      1  0.5867440000000  0.5001420000000  0.4691220000000 1.0
C      1  0.5307590000000  0.4197110000000  0.5020700000000 1.0
C      1  0.5287040000000  0.5718400000000  0.4945220000000 1.0
C      1  0.4688020000000  0.4290810000000  0.4926600000000 1.0
C      1  0.5092650000000  0.5129190000000  0.4749950000000 1.0
C      1  0.4929380000000  0.4846270000000  0.5225040000000 1.0
C      1  0.4689220000000  0.4916980000000  0.5030210000000 1.0
C      1  0.4995450000000  0.4631220000000  0.4789070000000 1.0
C      1  0.4858310000000  0.4898300000000  0.4748700000000 1.0
C      1  0.5294740000000  0.5079750000000  0.4995120000000 1.0
C      1  0.5370800000000  0.4790160000000  0.5015240000000 1.0
C      1  0.4617090000000  0.5203200000000  0.5117340000000 1.0
C      1  0.4959140000000  0.5387660000000  0.4834740000000 1.0
C      1  0.5117810000000  0.4641040000000  0.5065410000000 1.0
C      1  0.4884050000000  0.5352400000000  0.5126170000000 1.0
C      1  0.5088710000000  0.5129120000000  0.5232290000000 1.0
END
