TITL C-2222980-4410-11 -0.0298143437758198 125000 -363.331791543895 0 0 60 (C1) n - 1
REM
REM in /home/bkarasulu/CARBON/AIRSS/Generating-Clusters/EDIP-Nigel-Params/Higher-Symm/Box-15A/Only-C60/SD-CG/HFTN-CG
REM
REM
REM
REM
REM
REM ./C.cell (414f73aa93bd7a1190c7fd0f31ff2f98)
REM
REM compiler GCC version 9.2.1 20190827 (Red Hat 9.2.1-1)
REM options -cpp -mtune=generic -march=x86-64 -g -O0 -fpre-include=/usr/include/finclude/math-vector-fortran.h
REM seed -137760139 -677825694 1130365502 1386841008 160525291 425367364 -74393489 1832974623 -1243590398 1435116479 -1737863698 1051604113 -948715567 79235776 1259489088 -1111373753 -1233204013 -1398174497 947149907 1581987677 54101098 651059119 1014951015 1863253024 -557282796 665851214 -1608454599 1190938234 -1224954462 -1177212456 -335601837 -1782961260 1866136063
REM
CELL 1.54180   50.00000   50.00000   50.00000   90.00000   90.00000   90.00000
LATT -1
SFAC C  
C      1  0.5606830000000  0.4973620000000  0.4915750000000 1.0
C      1  0.4729660000000  0.5521010000000  0.4924340000000 1.0
C      1  0.4663230000000  0.4506040000000  0.4908070000000 1.0
C      1  0.4750230000000  0.4723210000000  0.5778850000000 1.0
C      1  0.5360760000000  0.4959420000000  0.5773150000000 1.0
C      1  0.4922120000000  0.5297170000000  0.5747250000000 1.0
C      1  0.5101570000000  0.5511210000000  0.4496590000000 1.0
C      1  0.4457690000000  0.4774540000000  0.4457020000000 1.0
C      1  0.5447380000000  0.4679740000000  0.4459680000000 1.0
C      1  0.5638260000000  0.5143380000000  0.5148040000000 1.0
C      1  0.4576950000000  0.5423810000000  0.5152730000000 1.0
C      1  0.4821760000000  0.4430950000000  0.5136800000000 1.0
C      1  0.4743230000000  0.4427380000000  0.4646790000000 1.0
C      1  0.5641610000000  0.5087340000000  0.4657500000000 1.0
C      1  0.4642310000000  0.5462880000000  0.4660900000000 1.0
C      1  0.5122560000000  0.4408680000000  0.5114530000000 1.0
C      1  0.5531190000000  0.5419940000000  0.5134030000000 1.0
C      1  0.4392520000000  0.5177970000000  0.5122220000000 1.0
C      1  0.4445550000000  0.4638100000000  0.5428540000000 1.0
C      1  0.5556870000000  0.4713320000000  0.5430010000000 1.0
C      1  0.4946000000000  0.5642430000000  0.5445220000000 1.0
C      1  0.5346500000000  0.4714230000000  0.5630750000000 1.0
C      1  0.5109580000000  0.5465930000000  0.5613200000000 1.0
C      1  0.4516150000000  0.4821870000000  0.5651970000000 1.0
C      1  0.5026240000000  0.4918620000000  0.5290780000000 1.0
C      1  0.5186450000000  0.5140690000000  0.5277490000000 1.0
C      1  0.4759030000000  0.4985140000000  0.5268220000000 1.0
C      1  0.4560050000000  0.5065170000000  0.5465050000000 1.0
C      1  0.5115850000000  0.4660450000000  0.5423570000000 1.0
C      1  0.5327880000000  0.5328290000000  0.5440340000000 1.0
C      1  0.5394640000000  0.4582230000000  0.4725900000000 1.0
C      1  0.5194240000000  0.5549110000000  0.4767470000000 1.0
C      1  0.4394620000000  0.4861590000000  0.4725730000000 1.0
C      1  0.5589140000000  0.4918920000000  0.4441820000000 1.0
C      1  0.4825890000000  0.5506110000000  0.4456480000000 1.0
C      1  0.4599860000000  0.4535940000000  0.4433920000000 1.0
C      1  0.5471930000000  0.5502720000000  0.4853410000000 1.0
C      1  0.4335360000000  0.5129050000000  0.4824780000000 1.0
C      1  0.5198010000000  0.4389910000000  0.4819140000000 1.0
C      1  0.4407310000000  0.4932470000000  0.4238610000000 1.0
C      1  0.5326460000000  0.4569500000000  0.4239790000000 1.0
C      1  0.5273680000000  0.5450450000000  0.4291650000000 1.0
C      1  0.5229550000000  0.4452410000000  0.4033660000000 1.0
C      1  0.5406460000000  0.5408710000000  0.4076320000000 1.0
C      1  0.4344780000000  0.5075040000000  0.4035250000000 1.0
C      1  0.4396940000000  0.5333910000000  0.4643170000000 1.0
C      1  0.4998030000000  0.4317540000000  0.4635680000000 1.0
C      1  0.5627930000000  0.5366540000000  0.4659290000000 1.0
C      1  0.4665890000000  0.5301780000000  0.5623090000000 1.0
C      1  0.4887280000000  0.4552620000000  0.5599450000000 1.0
C      1  0.5499160000000  0.5154960000000  0.5620980000000 1.0
C      1  0.4374720000000  0.4797580000000  0.5191540000000 1.0
C      1  0.5456730000000  0.4585980000000  0.5189610000000 1.0
C      1  0.5067840000000  0.5719850000000  0.5207810000000 1.0
C      1  0.4994600000000  0.5631130000000  0.4957170000000 1.0
C      1  0.4432640000000  0.4675760000000  0.4938510000000 1.0
C      1  0.5541340000000  0.4695910000000  0.4940650000000 1.0
C      1  0.4695220000000  0.4467870000000  0.5399020000000 1.0
C      1  0.5644540000000  0.5003560000000  0.5411880000000 1.0
C      1  0.4679240000000  0.5508290000000  0.5418890000000 1.0
END
