TITL C-2222968-1352-22 2.21185217244809e-07 125000 -374.339593177003 0 0 60 (C3) n - 1
REM
REM in /home/bkarasulu/CARBON/AIRSS/Generating-Clusters/EDIP-Nigel-Params/Higher-Symm/Box-15A/Only-C60/SD-CG/HFTN-CG
REM
REM
REM
REM
REM
REM ./C.cell (414f73aa93bd7a1190c7fd0f31ff2f98)
REM
REM compiler GCC version 9.2.1 20190827 (Red Hat 9.2.1-1)
REM options -cpp -mtune=generic -march=x86-64 -g -O0 -fpre-include=/usr/include/finclude/math-vector-fortran.h
REM seed -1431433443 1341089099 399345718 17845714 -1660362415 826862601 -1141275324 -1024037984 1000823734 -551307123 -995014694 -1076734341 1679356250 -1785886766 1120430564 -805137166 -328551002 290735406 -1717670788 414035902 -1212175917 743634307 -191419097 1160186456 2005263976 -297780572 585774134 912099168 1468404942 193197188 -563290617 -618115497 284647916
REM
CELL 1.54180   50.00000   50.00000   50.00000   90.00000   90.00000   90.00000
LATT -1
SFAC C  
C      1  0.4705790000000  0.4704720000000  0.4500660000000 1.0
C      1  0.4711770000000  0.4702440000000  0.5504640000000 1.0
C      1  0.5579430000000  0.4704980000000  0.4996220000000 1.0
C      1  0.4728830000000  0.5287560000000  0.4488240000000 1.0
C      1  0.4690350000000  0.5278550000000  0.5498940000000 1.0
C      1  0.5578880000000  0.5286940000000  0.5020900000000 1.0
C      1  0.5273450000000  0.4731550000000  0.4482280000000 1.0
C      1  0.5311550000000  0.4732030000000  0.5497280000000 1.0
C      1  0.4413640000000  0.4731630000000  0.5021470000000 1.0
C      1  0.5292050000000  0.5282910000000  0.4495870000000 1.0
C      1  0.5290580000000  0.5284970000000  0.5505180000000 1.0
C      1  0.4418050000000  0.5284200000000  0.5000200000000 1.0
C      1  0.4712250000000  0.5619040000000  0.4984510000000 1.0
C      1  0.5135690000000  0.5619590000000  0.5254560000000 1.0
C      1  0.5157830000000  0.5620330000000  0.4753610000000 1.0
C      1  0.4709720000000  0.4369590000000  0.5010160000000 1.0
C      1  0.5154350000000  0.4369710000000  0.5246350000000 1.0
C      1  0.5136410000000  0.4369800000000  0.4743500000000 1.0
C      1  0.5293370000000  0.5628800000000  0.5011000000000 1.0
C      1  0.4845540000000  0.5628770000000  0.5241960000000 1.0
C      1  0.4867580000000  0.5628750000000  0.4738850000000 1.0
C      1  0.5290550000000  0.4367600000000  0.4990050000000 1.0
C      1  0.4863810000000  0.4367280000000  0.5256140000000 1.0
C      1  0.4846290000000  0.4367660000000  0.4753590000000 1.0
C      1  0.4843820000000  0.5188350000000  0.5263700000000 1.0
C      1  0.5302060000000  0.5188590000000  0.5004950000000 1.0
C      1  0.4851990000000  0.5188710000000  0.4736670000000 1.0
C      1  0.4852170000000  0.4807440000000  0.5266320000000 1.0
C      1  0.5302380000000  0.4807720000000  0.4995270000000 1.0
C      1  0.4843110000000  0.4807820000000  0.4741150000000 1.0
C      1  0.5153640000000  0.5153660000000  0.5276030000000 1.0
C      1  0.4684840000000  0.5153460000000  0.4998460000000 1.0
C      1  0.5160250000000  0.5153180000000  0.4729510000000 1.0
C      1  0.5161210000000  0.4852840000000  0.5272310000000 1.0
C      1  0.4683610000000  0.4852760000000  0.5005460000000 1.0
C      1  0.5153370000000  0.4852550000000  0.4724840000000 1.0
C      1  0.5206280000000  0.5160410000000  0.4250010000000 1.0
C      1  0.4246480000000  0.5161280000000  0.5195630000000 1.0
C      1  0.5546140000000  0.5161930000000  0.5553980000000 1.0
C      1  0.5168790000000  0.4871860000000  0.4250770000000 1.0
C      1  0.4264150000000  0.4872140000000  0.5227120000000 1.0
C      1  0.5564150000000  0.4873140000000  0.5521810000000 1.0
C      1  0.4827910000000  0.5132240000000  0.4261760000000 1.0
C      1  0.5725560000000  0.5132640000000  0.5220680000000 1.0
C      1  0.4442110000000  0.5127150000000  0.5520040000000 1.0
C      1  0.4790320000000  0.4842070000000  0.4260890000000 1.0
C      1  0.5744910000000  0.4842350000000  0.5189270000000 1.0
C      1  0.4460230000000  0.4836900000000  0.5550810000000 1.0
C      1  0.4744290000000  0.5566740000000  0.4492320000000 1.0
C      1  0.4695010000000  0.5556680000000  0.5469990000000 1.0
C      1  0.5568440000000  0.5566320000000  0.5028130000000 1.0
C      1  0.4703230000000  0.4425520000000  0.4516730000000 1.0
C      1  0.4729850000000  0.4423460000000  0.5498610000000 1.0
C      1  0.5567180000000  0.4425790000000  0.4984860000000 1.0
C      1  0.5302370000000  0.5561740000000  0.4519930000000 1.0
C      1  0.5265180000000  0.5563660000000  0.5497640000000 1.0
C      1  0.4436920000000  0.5562600000000  0.4978240000000 1.0
C      1  0.5258960000000  0.4452070000000  0.4503420000000 1.0
C      1  0.5300800000000  0.4452620000000  0.5472520000000 1.0
C      1  0.4440560000000  0.4452240000000  0.5024000000000 1.0
END
