TITL C-2222983-2349-8 2.2399663673728e-06 125000 -363.554725603751 0 0 60 (Cs) n - 1
REM
REM in /home/bkarasulu/CARBON/AIRSS/Generating-Clusters/EDIP-Nigel-Params/Higher-Symm/Box-15A/Only-C60/SD-CG/HFTN-CG
REM
REM
REM
REM
REM
REM ./C.cell (414f73aa93bd7a1190c7fd0f31ff2f98)
REM
REM compiler GCC version 9.2.1 20190827 (Red Hat 9.2.1-1)
REM options -cpp -mtune=generic -march=x86-64 -g -O0 -fpre-include=/usr/include/finclude/math-vector-fortran.h
REM seed -12431525 -2029202396 -2029226312 -468215599 1919313557 1535824056 -1957830509 -1838171962 -821691989 -952136077 -1900198666 1089205697 -141697356 190074853 1125888879 -1901004776 -770345592 -2057673236 -1609505110 -1391619884 -944161536 102163855 374149711 705545346 1874408775 626098493 -1492169372 -1394142681 458471939 1549198862 -579572543 -1959303525 -615148484
REM
CELL 1.54180   50.00000   50.00000   50.00000   90.00000   90.00000   90.00000
LATT -1
SFAC C  
C      1  0.4270560000000  0.5003530000000  0.4660380000000 1.0
C      1  0.4958610000000  0.4667050000000  0.4246720000000 1.0
C      1  0.4651750000000  0.4290660000000  0.5062080000000 1.0
C      1  0.5773500000000  0.4985110000000  0.4645680000000 1.0
C      1  0.4265850000000  0.4989210000000  0.5334740000000 1.0
C      1  0.5768550000000  0.5017680000000  0.5342520000000 1.0
C      1  0.5008070000000  0.5349590000000  0.4316170000000 1.0
C      1  0.4937070000000  0.5349890000000  0.5755430000000 1.0
C      1  0.5045880000000  0.4671960000000  0.5682060000000 1.0
C      1  0.5323990000000  0.5674790000000  0.5084220000000 1.0
C      1  0.4664360000000  0.5713620000000  0.4926170000000 1.0
C      1  0.5326580000000  0.4275530000000  0.4964480000000 1.0
C      1  0.4958510000000  0.4246610000000  0.4667310000000 1.0
C      1  0.4651930000000  0.5061910000000  0.4290550000000 1.0
C      1  0.4270480000000  0.4660550000000  0.5003480000000 1.0
C      1  0.5046120000000  0.5681930000000  0.4671730000000 1.0
C      1  0.5007830000000  0.4316300000000  0.5349840000000 1.0
C      1  0.4937170000000  0.5755570000000  0.5349600000000 1.0
C      1  0.5326740000000  0.4964140000000  0.4275620000000 1.0
C      1  0.5323850000000  0.5084390000000  0.5674840000000 1.0
C      1  0.4664180000000  0.4926510000000  0.5713570000000 1.0
C      1  0.5768620000000  0.5342350000000  0.5017740000000 1.0
C      1  0.5773420000000  0.4645500000000  0.4985420000000 1.0
C      1  0.4265930000000  0.5334910000000  0.4988920000000 1.0
C      1  0.4769760000000  0.4552610000000  0.4984770000000 1.0
C      1  0.4544190000000  0.4995420000000  0.4770120000000 1.0
C      1  0.4862100000000  0.4707390000000  0.4505880000000 1.0
C      1  0.5283280000000  0.5418480000000  0.4979770000000 1.0
C      1  0.4766350000000  0.5447770000000  0.5012340000000 1.0
C      1  0.5296720000000  0.4536400000000  0.5059700000000 1.0
C      1  0.5525790000000  0.5099720000000  0.4701480000000 1.0
C      1  0.4540870000000  0.5000750000000  0.5229310000000 1.0
C      1  0.5501800000000  0.4970860000000  0.5216040000000 1.0
C      1  0.5035690000000  0.5201300000000  0.4573150000000 1.0
C      1  0.4846460000000  0.5294850000000  0.5496340000000 1.0
C      1  0.5038090000000  0.4808230000000  0.5417090000000 1.0
C      1  0.4544140000000  0.4770220000000  0.4995390000000 1.0
C      1  0.4862060000000  0.4505810000000  0.4707540000000 1.0
C      1  0.4769860000000  0.4984660000000  0.4552560000000 1.0
C      1  0.5501850000000  0.5215910000000  0.4970900000000 1.0
C      1  0.5525700000000  0.4701400000000  0.5099950000000 1.0
C      1  0.4540930000000  0.5229420000000  0.5000560000000 1.0
C      1  0.5038240000000  0.5417010000000  0.4808090000000 1.0
C      1  0.5035540000000  0.4573210000000  0.5201470000000 1.0
C      1  0.4846510000000  0.5496480000000  0.5294640000000 1.0
C      1  0.5296840000000  0.5059470000000  0.4536450000000 1.0
C      1  0.5283180000000  0.4979860000000  0.5418550000000 1.0
C      1  0.4766250000000  0.5012560000000  0.5447710000000 1.0
C      1  0.4917450000000  0.5838970000000  0.4871230000000 1.0
C      1  0.5078450000000  0.4151110000000  0.4906860000000 1.0
C      1  0.5086050000000  0.5119490000000  0.5827410000000 1.0
C      1  0.5086220000000  0.5827440000000  0.5119210000000 1.0
C      1  0.5908000000000  0.5107570000000  0.5107740000000 1.0
C      1  0.4917230000000  0.4871560000000  0.5839000000000 1.0
C      1  0.5078630000000  0.4906540000000  0.4151170000000 1.0
C      1  0.4892330000000  0.5142020000000  0.4157650000000 1.0
C      1  0.4892100000000  0.4157720000000  0.5142300000000 1.0
C      1  0.4129780000000  0.4890840000000  0.5101680000000 1.0
C      1  0.5872190000000  0.4895830000000  0.4896070000000 1.0
C      1  0.4129830000000  0.5101840000000  0.4890600000000 1.0
END
