TITL C-2222973-3874-20 1.18412834690887e-05 125000 -378.576228761349 0 0 60 (C5) n - 1
REM
REM in /home/bkarasulu/CARBON/AIRSS/Generating-Clusters/EDIP-Nigel-Params/Higher-Symm/Box-15A/Only-C60/SD-CG/HFTN-CG
REM
REM
REM
REM
REM
REM ./C.cell (414f73aa93bd7a1190c7fd0f31ff2f98)
REM
REM compiler GCC version 9.2.1 20190827 (Red Hat 9.2.1-1)
REM options -cpp -mtune=generic -march=x86-64 -g -O0 -fpre-include=/usr/include/finclude/math-vector-fortran.h
REM seed 1099474417 -1072858766 -1040276650 -1420115178 874672360 1975908447 -1227614422 702948340 1668674524 -484136355 1386543206 -291665445 -433985302 -1425857572 652975668 -668079287 -184718692 1507367716 514527693 -931888055 -1075305001 -1241138962 1331681077 1115792424 -235448071 1287179299 1211916576 -394675885 1480087027 1700628104 -1902725125 -620418320 -2128134005
REM
CELL 1.54180   50.00000   50.00000   50.00000   90.00000   90.00000   90.00000
LATT -1
SFAC C  
C      1  0.5487580000000  0.5105820000000  0.4387830000000 1.0
C      1  0.4573060000000  0.5127820000000  0.4348030000000 1.0
C      1  0.4253050000000  0.5153270000000  0.5205570000000 1.0
C      1  0.4969800000000  0.5146980000000  0.5775350000000 1.0
C      1  0.5732770000000  0.5117660000000  0.5269960000000 1.0
C      1  0.5243650000000  0.4923170000000  0.5030230000000 1.0
C      1  0.5101320000000  0.4921570000000  0.4776920000000 1.0
C      1  0.4816510000000  0.4929830000000  0.4833900000000 1.0
C      1  0.4782820000000  0.4936550000000  0.5122430000000 1.0
C      1  0.5046810000000  0.4932430000000  0.5243780000000 1.0
C      1  0.4883900000000  0.5579740000000  0.4780700000000 1.0
C      1  0.4776900000000  0.5587860000000  0.5048170000000 1.0
C      1  0.4998240000000  0.5586090000000  0.5232730000000 1.0
C      1  0.5242040000000  0.5576890000000  0.5079330000000 1.0
C      1  0.5171380000000  0.5572960000000  0.4799950000000 1.0
C      1  0.5206970000000  0.4764350000000  0.4538870000000 1.0
C      1  0.4617260000000  0.4781500000000  0.4658280000000 1.0
C      1  0.4548870000000  0.4795380000000  0.5256150000000 1.0
C      1  0.5096310000000  0.4786810000000  0.5506240000000 1.0
C      1  0.5503040000000  0.4767640000000  0.5062940000000 1.0
C      1  0.4243880000000  0.4978430000000  0.4965830000000 1.0
C      1  0.4732770000000  0.4981350000000  0.5708230000000 1.0
C      1  0.5589590000000  0.4955180000000  0.5472990000000 1.0
C      1  0.5630250000000  0.4936090000000  0.4585210000000 1.0
C      1  0.4798560000000  0.4950460000000  0.4271770000000 1.0
C      1  0.4979610000000  0.5573310000000  0.5508150000000 1.0
C      1  0.5497520000000  0.5553750000000  0.5182100000000 1.0
C      1  0.5347240000000  0.5545410000000  0.4588580000000 1.0
C      1  0.4736470000000  0.5559820000000  0.4547820000000 1.0
C      1  0.4509260000000  0.5577060000000  0.5116150000000 1.0
C      1  0.4468720000000  0.5075760000000  0.5675910000000 1.0
C      1  0.5480620000000  0.5051310000000  0.5714990000000 1.0
C      1  0.5830000000000  0.5023240000000  0.4764610000000 1.0
C      1  0.5034020000000  0.5030350000000  0.4138160000000 1.0
C      1  0.4192710000000  0.5062810000000  0.4701370000000 1.0
C      1  0.4422440000000  0.4985840000000  0.4558860000000 1.0
C      1  0.4401580000000  0.5003740000000  0.5412630000000 1.0
C      1  0.5207040000000  0.4989430000000  0.5696710000000 1.0
C      1  0.5725700000000  0.4962680000000  0.5018510000000 1.0
C      1  0.5240790000000  0.4960460000000  0.4315290000000 1.0
C      1  0.5696670000000  0.5393280000000  0.5260930000000 1.0
C      1  0.5477910000000  0.5381660000000  0.4422030000000 1.0
C      1  0.4612650000000  0.5402200000000  0.4370470000000 1.0
C      1  0.4296660000000  0.5426520000000  0.5177500000000 1.0
C      1  0.4966620000000  0.5421000000000  0.5727840000000 1.0
C      1  0.5013150000000  0.4538100000000  0.4487670000000 1.0
C      1  0.4500350000000  0.4557750000000  0.4824570000000 1.0
C      1  0.4662510000000  0.4565760000000  0.5416590000000 1.0
C      1  0.5275530000000  0.4551050000000  0.5445580000000 1.0
C      1  0.5492240000000  0.4533960000000  0.4871470000000 1.0
C      1  0.4826840000000  0.4392830000000  0.5220820000000 1.0
C      1  0.5134030000000  0.4385290000000  0.5227100000000 1.0
C      1  0.5234780000000  0.4376870000000  0.4936850000000 1.0
C      1  0.4989860000000  0.4379200000000  0.4751190000000 1.0
C      1  0.4737730000000  0.4389060000000  0.4926690000000 1.0
C      1  0.5488160000000  0.4670390000000  0.4604740000000 1.0
C      1  0.4763420000000  0.4684510000000  0.4410360000000 1.0
C      1  0.4354970000000  0.4707510000000  0.5039540000000 1.0
C      1  0.4827270000000  0.4707600000000  0.5622770000000 1.0
C      1  0.5527620000000  0.4684660000000  0.5354050000000 1.0
END
