TITL C-2222971-1600-19 -1.533752752512e-06 125000 -373.122758070964 0 0 60 (C1) n - 1
REM
REM in /home/bkarasulu/CARBON/AIRSS/Generating-Clusters/EDIP-Nigel-Params/Higher-Symm/Box-15A/Only-C60/SD-CG/HFTN-CG
REM
REM
REM
REM
REM
REM ./C.cell (414f73aa93bd7a1190c7fd0f31ff2f98)
REM
REM compiler GCC version 9.2.1 20190827 (Red Hat 9.2.1-1)
REM options -cpp -mtune=generic -march=x86-64 -g -O0 -fpre-include=/usr/include/finclude/math-vector-fortran.h
REM seed 594569817 956605332 -837916422 -950121327 569981616 277971154 -812872107 -1272113920 -103402301 120696411 -289640994 586625657 1433217110 -601648517 1157145187 1715316542 -1774883671 1666400397 2065086400 171361343 -370515134 -1273223769 -41887015 1330452855 2117962504 587975170 -1310466398 -1735321109 88360593 2007470712 -998070840 1484648193 -1856299117
REM
CELL 1.54180   50.00000   50.00000   50.00000   90.00000   90.00000   90.00000
LATT -1
SFAC C  
C      1  0.4541880000000  0.4533970000000  0.5257160000000 1.0
C      1  0.4841200000000  0.5660730000000  0.5245450000000 1.0
C      1  0.5627480000000  0.4830910000000  0.5258250000000 1.0
C      1  0.4936080000000  0.5486210000000  0.4831230000000 1.0
C      1  0.5537560000000  0.4793980000000  0.4800430000000 1.0
C      1  0.4535210000000  0.4634610000000  0.4797450000000 1.0
C      1  0.5456360000000  0.4508580000000  0.4886450000000 1.0
C      1  0.4335640000000  0.4854150000000  0.4905050000000 1.0
C      1  0.5197230000000  0.5634490000000  0.4889250000000 1.0
C      1  0.4892340000000  0.4290940000000  0.5484600000000 1.0
C      1  0.4505190000000  0.5408310000000  0.5549800000000 1.0
C      1  0.5567330000000  0.5245490000000  0.5542110000000 1.0
C      1  0.5102290000000  0.4535070000000  0.4534400000000 1.0
C      1  0.4516980000000  0.5159160000000  0.4549760000000 1.0
C      1  0.5373610000000  0.5324500000000  0.4535000000000 1.0
C      1  0.5283120000000  0.5377220000000  0.5590840000000 1.0
C      1  0.5175260000000  0.4590700000000  0.5568080000000 1.0
C      1  0.4568800000000  0.5094060000000  0.5604110000000 1.0
C      1  0.5559710000000  0.5130640000000  0.4453180000000 1.0
C      1  0.4840170000000  0.4488540000000  0.4448360000000 1.0
C      1  0.4620130000000  0.5408690000000  0.4475590000000 1.0
C      1  0.4989510000000  0.5219730000000  0.4962930000000 1.0
C      1  0.5242390000000  0.4844440000000  0.5053030000000 1.0
C      1  0.4747580000000  0.4856300000000  0.5036470000000 1.0
C      1  0.4399650000000  0.5136520000000  0.4819920000000 1.0
C      1  0.5424270000000  0.5450640000000  0.4805190000000 1.0
C      1  0.5179150000000  0.4433750000000  0.4800950000000 1.0
C      1  0.4522920000000  0.5310850000000  0.5050650000000 1.0
C      1  0.5495370000000  0.5261060000000  0.5047160000000 1.0
C      1  0.4978540000000  0.4429700000000  0.5040790000000 1.0
C      1  0.5480190000000  0.4569380000000  0.5188220000000 1.0
C      1  0.4402050000000  0.4805580000000  0.5202920000000 1.0
C      1  0.5141020000000  0.5660540000000  0.5186210000000 1.0
C      1  0.4734270000000  0.4530270000000  0.5489660000000 1.0
C      1  0.4767870000000  0.5520910000000  0.5487140000000 1.0
C      1  0.5508980000000  0.4969500000000  0.5479530000000 1.0
C      1  0.5356420000000  0.5600830000000  0.5387210000000 1.0
C      1  0.5313850000000  0.4416750000000  0.5390610000000 1.0
C      1  0.4342750000000  0.5023200000000  0.5408870000000 1.0
C      1  0.4888060000000  0.5459970000000  0.4539860000000 1.0
C      1  0.5488320000000  0.4870150000000  0.4523340000000 1.0
C      1  0.4635370000000  0.4663110000000  0.4520700000000 1.0
C      1  0.4688800000000  0.5575980000000  0.4996690000000 1.0
C      1  0.5653270000000  0.4994700000000  0.5007960000000 1.0
C      1  0.4665780000000  0.4426710000000  0.5000480000000 1.0
C      1  0.4956210000000  0.4730270000000  0.5450400000000 1.0
C      1  0.4835420000000  0.5151510000000  0.5423350000000 1.0
C      1  0.5156750000000  0.5127220000000  0.5438480000000 1.0
C      1  0.5040980000000  0.5140530000000  0.4185280000000 1.0
C      1  0.5159950000000  0.4873600000000  0.4164400000000 1.0
C      1  0.4788310000000  0.4991160000000  0.4178110000000 1.0
C      1  0.4652450000000  0.4934830000000  0.4424420000000 1.0
C      1  0.5096340000000  0.5286990000000  0.4437670000000 1.0
C      1  0.5252410000000  0.4752460000000  0.4407090000000 1.0
C      1  0.5226820000000  0.5133760000000  0.5127580000000 1.0
C      1  0.4985290000000  0.4715380000000  0.5148050000000 1.0
C      1  0.4763360000000  0.5136830000000  0.5123340000000 1.0
C      1  0.5595790000000  0.5421800000000  0.5285620000000 1.0
C      1  0.5084620000000  0.4267630000000  0.5275560000000 1.0
C      1  0.4345350000000  0.5314520000000  0.5297600000000 1.0
END
