TITL C-2222980-4410-10 -8.63863153994978e-06 125000 -369.969038774639 0 0 60 (C1) n - 1
REM
REM in /home/bkarasulu/CARBON/AIRSS/Generating-Clusters/EDIP-Nigel-Params/Higher-Symm/Box-15A/Only-C60/SD-CG/HFTN-CG
REM
REM
REM
REM
REM
REM ./C.cell (414f73aa93bd7a1190c7fd0f31ff2f98)
REM
REM compiler GCC version 9.2.1 20190827 (Red Hat 9.2.1-1)
REM options -cpp -mtune=generic -march=x86-64 -g -O0 -fpre-include=/usr/include/finclude/math-vector-fortran.h
REM seed 817644729 1411808207 2083794329 -2030075846 88231263 1082449565 1692217261 -132178283 1302703572 -1754432841 1945482706 -586736171 -1928710921 380875255 1230678505 1171211767 -930727924 -1343222638 1081250123 -848009825 29346854 -799480154 -583854318 1389222329 -538632927 -1454531064 1554919719 2078693116 646460548 -1136047392 -561020185 1682511759 1870997779
REM
CELL 1.54180   50.00000   50.00000   50.00000   90.00000   90.00000   90.00000
LATT -1
SFAC C  
C      1  0.5678540000000  0.5311600000000  0.5433900000000 1.0
C      1  0.4320880000000  0.5308390000000  0.5436330000000 1.0
C      1  0.5141860000000  0.4527700000000  0.4401300000000 1.0
C      1  0.4855700000000  0.4525990000000  0.4399250000000 1.0
C      1  0.5279990000000  0.4421030000000  0.4890090000000 1.0
C      1  0.4720920000000  0.4421050000000  0.4890290000000 1.0
C      1  0.4843940000000  0.4889290000000  0.5685620000000 1.0
C      1  0.5159080000000  0.4890160000000  0.5684780000000 1.0
C      1  0.5550110000000  0.4598950000000  0.5254190000000 1.0
C      1  0.4452150000000  0.4596560000000  0.5257480000000 1.0
C      1  0.5194470000000  0.5606990000000  0.5408560000000 1.0
C      1  0.4803340000000  0.5606380000000  0.5411980000000 1.0
C      1  0.5157650000000  0.4668180000000  0.4760340000000 1.0
C      1  0.4841520000000  0.4667710000000  0.4757260000000 1.0
C      1  0.4353500000000  0.4765480000000  0.4864940000000 1.0
C      1  0.5648820000000  0.4765360000000  0.4861170000000 1.0
C      1  0.5560620000000  0.4492060000000  0.4971510000000 1.0
C      1  0.4440950000000  0.4491270000000  0.4974100000000 1.0
C      1  0.4694300000000  0.4758670000000  0.4361460000000 1.0
C      1  0.5304570000000  0.4760600000000  0.4365450000000 1.0
C      1  0.5283050000000  0.5702860000000  0.4952710000000 1.0
C      1  0.4714930000000  0.5707610000000  0.4957790000000 1.0
C      1  0.5390810000000  0.5648030000000  0.5204720000000 1.0
C      1  0.4606880000000  0.5646470000000  0.5208210000000 1.0
C      1  0.5141610000000  0.5329880000000  0.5480230000000 1.0
C      1  0.4858390000000  0.5329320000000  0.5482550000000 1.0
C      1  0.5144940000000  0.5571810000000  0.4748730000000 1.0
C      1  0.4850930000000  0.5570160000000  0.4756830000000 1.0
C      1  0.4845840000000  0.4594900000000  0.5598630000000 1.0
C      1  0.5158260000000  0.4595610000000  0.5598030000000 1.0
C      1  0.5596810000000  0.5439870000000  0.5198550000000 1.0
C      1  0.4402560000000  0.5436420000000  0.5200880000000 1.0
C      1  0.5664790000000  0.4864290000000  0.5233080000000 1.0
C      1  0.4335950000000  0.4861070000000  0.5238380000000 1.0
C      1  0.5155690000000  0.4888890000000  0.5203700000000 1.0
C      1  0.4844810000000  0.4888660000000  0.5204150000000 1.0
C      1  0.5568040000000  0.4775460000000  0.4485610000000 1.0
C      1  0.4435100000000  0.4772130000000  0.4488910000000 1.0
C      1  0.5264260000000  0.5056140000000  0.5450010000000 1.0
C      1  0.4736720000000  0.5055110000000  0.5451760000000 1.0
C      1  0.5289840000000  0.5357020000000  0.4609330000000 1.0
C      1  0.4700120000000  0.5365870000000  0.4610930000000 1.0
C      1  0.5253570000000  0.4607850000000  0.5309580000000 1.0
C      1  0.4748740000000  0.4607150000000  0.5310680000000 1.0
C      1  0.5146750000000  0.4381330000000  0.5148120000000 1.0
C      1  0.4855270000000  0.4381550000000  0.5148140000000 1.0
C      1  0.5646780000000  0.5026270000000  0.4586800000000 1.0
C      1  0.4353740000000  0.5023730000000  0.4586390000000 1.0
C      1  0.4543340000000  0.5157990000000  0.4770100000000 1.0
C      1  0.5453020000000  0.5156010000000  0.4770170000000 1.0
C      1  0.5144790000000  0.4998150000000  0.4300940000000 1.0
C      1  0.4858240000000  0.4997760000000  0.4334580000000 1.0
C      1  0.5199850000000  0.5279460000000  0.4348880000000 1.0
C      1  0.4808210000000  0.5279700000000  0.4362180000000 1.0
C      1  0.5609010000000  0.5302170000000  0.4958850000000 1.0
C      1  0.4385370000000  0.5300270000000  0.4960370000000 1.0
C      1  0.4738050000000  0.4928480000000  0.4909250000000 1.0
C      1  0.5261180000000  0.4928420000000  0.4909720000000 1.0
C      1  0.4437990000000  0.5055120000000  0.5427590000000 1.0
C      1  0.5562870000000  0.5057590000000  0.5423920000000 1.0
END
