TITL C-2222968-1352-9 1.41769471747159e-06 125000 -363.501208475484 0 0 60 (C1) n - 1
REM
REM in /home/bkarasulu/CARBON/AIRSS/Generating-Clusters/EDIP-Nigel-Params/Higher-Symm/Box-15A/Only-C60/SD-CG/HFTN-CG
REM
REM
REM
REM
REM
REM ./C.cell (414f73aa93bd7a1190c7fd0f31ff2f98)
REM
REM compiler GCC version 9.2.1 20190827 (Red Hat 9.2.1-1)
REM options -cpp -mtune=generic -march=x86-64 -g -O0 -fpre-include=/usr/include/finclude/math-vector-fortran.h
REM seed 343028601 47460505 1696818145 690693485 -821664508 378513137 1445152951 -1128391668 -1702620957 -307336385 -452974184 -1243857272 621790377 429859920 -1506034656 1605877881 -1447667505 286153031 1904935223 -1426342734 1634370177 753356095 -1650904906 -50253395 907348136 -789575042 26049285 -461493996 -1847105586 -1381210961 -183635668 -897292128 -1409752831
REM
CELL 1.54180   50.00000   50.00000   50.00000   90.00000   90.00000   90.00000
LATT -1
SFAC C  
C      1  0.4866250000000  0.5200770000000  0.4448830000000 1.0
C      1  0.5581580000000  0.5230250000000  0.5160950000000 1.0
C      1  0.4504140000000  0.5307790000000  0.5467770000000 1.0
C      1  0.4615630000000  0.5053240000000  0.5092760000000 1.0
C      1  0.5235360000000  0.5009750000000  0.4741530000000 1.0
C      1  0.5107330000000  0.5048670000000  0.5295280000000 1.0
C      1  0.5111260000000  0.4304770000000  0.4732780000000 1.0
C      1  0.5119600000000  0.4362750000000  0.5121090000000 1.0
C      1  0.4802650000000  0.4452090000000  0.4918480000000 1.0
C      1  0.4708940000000  0.5171000000000  0.5633990000000 1.0
C      1  0.4590780000000  0.5116190000000  0.4507850000000 1.0
C      1  0.5714900000000  0.5151840000000  0.4902960000000 1.0
C      1  0.4394930000000  0.5085960000000  0.5301860000000 1.0
C      1  0.5039660000000  0.4954910000000  0.4500230000000 1.0
C      1  0.5406850000000  0.4990320000000  0.5232440000000 1.0
C      1  0.5048910000000  0.5295990000000  0.5137340000000 1.0
C      1  0.4777390000000  0.5293980000000  0.5030520000000 1.0
C      1  0.5122240000000  0.5260610000000  0.4857870000000 1.0
C      1  0.5043820000000  0.5533390000000  0.5512220000000 1.0
C      1  0.4502310000000  0.5536530000000  0.4785540000000 1.0
C      1  0.5438900000000  0.5526010000000  0.4693690000000 1.0
C      1  0.5178570000000  0.4848190000000  0.4261960000000 1.0
C      1  0.5528700000000  0.4841670000000  0.5452540000000 1.0
C      1  0.4387890000000  0.4813120000000  0.5427370000000 1.0
C      1  0.4714520000000  0.5633140000000  0.4626440000000 1.0
C      1  0.5483150000000  0.5652820000000  0.4941470000000 1.0
C      1  0.4818230000000  0.5680410000000  0.5428260000000 1.0
C      1  0.4455050000000  0.5250400000000  0.4730720000000 1.0
C      1  0.5582230000000  0.5269600000000  0.4662680000000 1.0
C      1  0.4982240000000  0.5278490000000  0.5649740000000 1.0
C      1  0.4543230000000  0.4350420000000  0.4832290000000 1.0
C      1  0.5400620000000  0.4336990000000  0.4726530000000 1.0
C      1  0.5027500000000  0.4321140000000  0.5397930000000 1.0
C      1  0.4984660000000  0.4476750000000  0.4515650000000 1.0
C      1  0.5369220000000  0.4530670000000  0.5124850000000 1.0
C      1  0.4749540000000  0.4584500000000  0.5187620000000 1.0
C      1  0.5216420000000  0.4576850000000  0.4350440000000 1.0
C      1  0.5418100000000  0.4585150000000  0.5412600000000 1.0
C      1  0.4453930000000  0.4572130000000  0.5252800000000 1.0
C      1  0.4406540000000  0.4809940000000  0.4803320000000 1.0
C      1  0.5596430000000  0.4802120000000  0.4586180000000 1.0
C      1  0.5014380000000  0.4795710000000  0.5646330000000 1.0
C      1  0.5198910000000  0.5561600000000  0.4549480000000 1.0
C      1  0.5294940000000  0.5563810000000  0.5387520000000 1.0
C      1  0.4487910000000  0.5611670000000  0.5060080000000 1.0
C      1  0.4374980000000  0.4552330000000  0.4952230000000 1.0
C      1  0.5424620000000  0.4560640000000  0.4552230000000 1.0
C      1  0.5148070000000  0.4551940000000  0.5520950000000 1.0
C      1  0.4581790000000  0.4822870000000  0.4565160000000 1.0
C      1  0.5680770000000  0.4850200000000  0.4867300000000 1.0
C      1  0.4724830000000  0.4879970000000  0.5559100000000 1.0
C      1  0.4291290000000  0.5064750000000  0.4877080000000 1.0
C      1  0.5505370000000  0.5058950000000  0.4478870000000 1.0
C      1  0.5162760000000  0.5049800000000  0.5668330000000 1.0
C      1  0.4929630000000  0.5480680000000  0.4524580000000 1.0
C      1  0.5484860000000  0.5510800000000  0.5185220000000 1.0
C      1  0.4583600000000  0.5561130000000  0.5325630000000 1.0
C      1  0.5400560000000  0.4811330000000  0.4985440000000 1.0
C      1  0.4818540000000  0.4873110000000  0.5253630000000 1.0
C      1  0.4861980000000  0.4737430000000  0.4593440000000 1.0
END
