TITL C-2222971-1600-26 6.98277443490838e-07 125000 -360.648722438106 0 0 60 (Cs) n - 1
REM
REM in /home/bkarasulu/CARBON/AIRSS/Generating-Clusters/EDIP-Nigel-Params/Higher-Symm/Box-15A/Only-C60/SD-CG/HFTN-CG
REM
REM
REM
REM
REM
REM ./C.cell (414f73aa93bd7a1190c7fd0f31ff2f98)
REM
REM compiler GCC version 9.2.1 20190827 (Red Hat 9.2.1-1)
REM options -cpp -mtune=generic -march=x86-64 -g -O0 -fpre-include=/usr/include/finclude/math-vector-fortran.h
REM seed -1554683933 776311972 -70525086 499189794 -790487402 2011617197 1692313703 1523789871 989370797 462371329 652098309 -160330172 -1144988171 -437561987 2085857616 443027998 -242721715 -643412796 1919303047 773285312 -251432183 -1238827267 -1239622945 596223289 -108161498 845866256 1331220266 1822778253 1516526655 106106941 -2075046864 2065147318 854830477
REM
CELL 1.54180   50.00000   50.00000   50.00000   90.00000   90.00000   90.00000
LATT -1
SFAC C  
C      1  0.4506160000000  0.4703210000000  0.4933590000000 1.0
C      1  0.4505410000000  0.5295850000000  0.4934960000000 1.0
C      1  0.5634400000000  0.4841980000000  0.4694620000000 1.0
C      1  0.5634000000000  0.5161030000000  0.4695360000000 1.0
C      1  0.4433470000000  0.4425520000000  0.5303180000000 1.0
C      1  0.4432030000000  0.5571640000000  0.5305840000000 1.0
C      1  0.5165310000000  0.5149550000000  0.4397950000000 1.0
C      1  0.5165680000000  0.4853660000000  0.4397270000000 1.0
C      1  0.5116370000000  0.4807540000000  0.5671350000000 1.0
C      1  0.5115890000000  0.5189640000000  0.5672230000000 1.0
C      1  0.4468500000000  0.5577940000000  0.5024880000000 1.0
C      1  0.4469950000000  0.4420620000000  0.5022200000000 1.0
C      1  0.5376070000000  0.5150320000000  0.4879160000000 1.0
C      1  0.5376440000000  0.4851190000000  0.4878470000000 1.0
C      1  0.4955290000000  0.4405100000000  0.4424380000000 1.0
C      1  0.4953790000000  0.5597450000000  0.4427150000000 1.0
C      1  0.5824490000000  0.4674770000000  0.4820930000000 1.0
C      1  0.5823660000000  0.5328130000000  0.4822450000000 1.0
C      1  0.4721460000000  0.4750290000000  0.4560310000000 1.0
C      1  0.4720830000000  0.5251050000000  0.4561470000000 1.0
C      1  0.4629440000000  0.4696030000000  0.5638470000000 1.0
C      1  0.4628680000000  0.5300070000000  0.5639870000000 1.0
C      1  0.4728330000000  0.4323020000000  0.4906910000000 1.0
C      1  0.4726620000000  0.5676720000000  0.4910050000000 1.0
C      1  0.4912050000000  0.5296020000000  0.5237770000000 1.0
C      1  0.4912800000000  0.4702660000000  0.5236400000000 1.0
C      1  0.5595970000000  0.5149150000000  0.5506420000000 1.0
C      1  0.5596350000000  0.4850000000000  0.5505730000000 1.0
C      1  0.5747320000000  0.5193630000000  0.5263260000000 1.0
C      1  0.5747810000000  0.4807040000000  0.5262370000000 1.0
C      1  0.4471060000000  0.4686460000000  0.5407130000000 1.0
C      1  0.4470280000000  0.5310310000000  0.5408580000000 1.0
C      1  0.5141310000000  0.5283960000000  0.4744870000000 1.0
C      1  0.5142020000000  0.4717590000000  0.4743560000000 1.0
C      1  0.4932800000000  0.5321580000000  0.4356690000000 1.0
C      1  0.4933600000000  0.4681240000000  0.4355210000000 1.0
C      1  0.4615990000000  0.5160060000000  0.5190740000000 1.0
C      1  0.4616400000000  0.4838090000000  0.5189990000000 1.0
C      1  0.5197360000000  0.4448840000000  0.4903980000000 1.0
C      1  0.5195970000000  0.5552090000000  0.4906540000000 1.0
C      1  0.4890540000000  0.5324340000000  0.5542520000000 1.0
C      1  0.4891360000000  0.4672870000000  0.5541010000000 1.0
C      1  0.5448310000000  0.5547180000000  0.5045760000000 1.0
C      1  0.5449690000000  0.4453740000000  0.5043230000000 1.0
C      1  0.4953850000000  0.5566930000000  0.5075900000000 1.0
C      1  0.4955270000000  0.4432610000000  0.5073260000000 1.0
C      1  0.4286890000000  0.4778400000000  0.4753640000000 1.0
C      1  0.4286330000000  0.5220940000000  0.4754670000000 1.0
C      1  0.5692750000000  0.5397810000000  0.5064020000000 1.0
C      1  0.5693740000000  0.4603640000000  0.5062180000000 1.0
C      1  0.5322670000000  0.4743570000000  0.5470810000000 1.0
C      1  0.5322030000000  0.5255060000000  0.5472000000000 1.0
C      1  0.5191420000000  0.4846460000000  0.5219330000000 1.0
C      1  0.5191040000000  0.5153000000000  0.5220040000000 1.0
C      1  0.4745260000000  0.4372650000000  0.4612860000000 1.0
C      1  0.4743680000000  0.5628500000000  0.4615780000000 1.0
C      1  0.4859480000000  0.4847100000000  0.4819040000000 1.0
C      1  0.4859100000000  0.5153380000000  0.4819750000000 1.0
C      1  0.4437780000000  0.4855160000000  0.4525600000000 1.0
C      1  0.4437420000000  0.5145620000000  0.4526280000000 1.0
END
