TITL C-2222971-1600-25 1.35842201719862e-07 125000 -369.069183579325 0 0 60 (C1) n - 1
REM
REM in /home/bkarasulu/CARBON/AIRSS/Generating-Clusters/EDIP-Nigel-Params/Higher-Symm/Box-15A/Only-C60/SD-CG/HFTN-CG
REM
REM
REM
REM
REM
REM ./C.cell (414f73aa93bd7a1190c7fd0f31ff2f98)
REM
REM compiler GCC version 9.2.1 20190827 (Red Hat 9.2.1-1)
REM options -cpp -mtune=generic -march=x86-64 -g -O0 -fpre-include=/usr/include/finclude/math-vector-fortran.h
REM seed -1883415704 -1031602583 1135395424 1315966647 -1063680428 100554234 -1852628939 -1197349460 26910609 -1114774614 1242152431 1740149091 1032718680 -565160526 868636740 1106734312 234920585 371148559 -1087745728 1385644013 -1442537267 -1121296858 -142063384 -1285761347 -756532421 1668929461 384921446 -1555451775 1253394105 93871838 -1611715333 -1904913924 1512618040
REM
CELL 1.54180   50.00000   50.00000   50.00000   90.00000   90.00000   90.00000
LATT -1
SFAC C  
C      1  0.4666210000000  0.4374910000000  0.5054860000000 1.0
C      1  0.5330250000000  0.4377050000000  0.4942980000000 1.0
C      1  0.5155210000000  0.5249640000000  0.4996300000000 1.0
C      1  0.4854670000000  0.5246890000000  0.5003450000000 1.0
C      1  0.5274530000000  0.5652890000000  0.5141790000000 1.0
C      1  0.4721700000000  0.5649640000000  0.4855310000000 1.0
C      1  0.5421150000000  0.5295800000000  0.4539790000000 1.0
C      1  0.4578860000000  0.5292620000000  0.5454380000000 1.0
C      1  0.5509840000000  0.4552040000000  0.4531950000000 1.0
C      1  0.4487110000000  0.4551180000000  0.5464780000000 1.0
C      1  0.5302640000000  0.4412150000000  0.4660720000000 1.0
C      1  0.4695070000000  0.4411650000000  0.5336610000000 1.0
C      1  0.5289060000000  0.4754320000000  0.5436040000000 1.0
C      1  0.4728890000000  0.4760170000000  0.4579730000000 1.0
C      1  0.5011730000000  0.5632890000000  0.5297220000000 1.0
C      1  0.4984330000000  0.5633550000000  0.4698370000000 1.0
C      1  0.4802660000000  0.4323080000000  0.4699110000000 1.0
C      1  0.5195410000000  0.4323720000000  0.5298470000000 1.0
C      1  0.4770470000000  0.5297760000000  0.4404310000000 1.0
C      1  0.5227350000000  0.5293730000000  0.5596620000000 1.0
C      1  0.4492140000000  0.5453840000000  0.4780840000000 1.0
C      1  0.5494700000000  0.5446250000000  0.5211260000000 1.0
C      1  0.5033840000000  0.4412600000000  0.4539510000000 1.0
C      1  0.4964440000000  0.4416020000000  0.5455300000000 1.0
C      1  0.4437840000000  0.5043480000000  0.5411600000000 1.0
C      1  0.5556460000000  0.5044000000000  0.4587520000000 1.0
C      1  0.4929960000000  0.4808880000000  0.4808220000000 1.0
C      1  0.5084260000000  0.4823570000000  0.5219680000000 1.0
C      1  0.5528070000000  0.4551780000000  0.5078340000000 1.0
C      1  0.4472540000000  0.4556240000000  0.4920850000000 1.0
C      1  0.4987460000000  0.4621810000000  0.4335540000000 1.0
C      1  0.5009900000000  0.4621240000000  0.5661880000000 1.0
C      1  0.4970930000000  0.5510930000000  0.4420990000000 1.0
C      1  0.5026900000000  0.5507900000000  0.5575070000000 1.0
C      1  0.4930980000000  0.5098910000000  0.5738430000000 1.0
C      1  0.5064690000000  0.5100190000000  0.4261800000000 1.0
C      1  0.5514530000000  0.4867090000000  0.5051140000000 1.0
C      1  0.4490910000000  0.4871930000000  0.4952810000000 1.0
C      1  0.5673800000000  0.5059110000000  0.4865600000000 1.0
C      1  0.4321660000000  0.5059570000000  0.5132000000000 1.0
C      1  0.4791030000000  0.5338240000000  0.5653090000000 1.0
C      1  0.5206330000000  0.5340160000000  0.4342980000000 1.0
C      1  0.4582520000000  0.4506070000000  0.4646300000000 1.0
C      1  0.5421950000000  0.4498150000000  0.5353540000000 1.0
C      1  0.4655700000000  0.5232580000000  0.4667140000000 1.0
C      1  0.5346540000000  0.5222910000000  0.5337670000000 1.0
C      1  0.5491180000000  0.5500730000000  0.4729200000000 1.0
C      1  0.4511040000000  0.5496380000000  0.5263930000000 1.0
C      1  0.4586950000000  0.4808920000000  0.5502670000000 1.0
C      1  0.5409460000000  0.4809650000000  0.4494460000000 1.0
C      1  0.5649690000000  0.5363890000000  0.4949540000000 1.0
C      1  0.4343890000000  0.5366700000000  0.5047150000000 1.0
C      1  0.4819870000000  0.4838230000000  0.5678290000000 1.0
C      1  0.5176720000000  0.4839510000000  0.4319610000000 1.0
C      1  0.4783430000000  0.4939030000000  0.5051210000000 1.0
C      1  0.5219320000000  0.4937300000000  0.4964410000000 1.0
C      1  0.4521180000000  0.4973150000000  0.4664810000000 1.0
C      1  0.5489080000000  0.4967100000000  0.5340280000000 1.0
C      1  0.4774850000000  0.5526800000000  0.5127480000000 1.0
C      1  0.5226120000000  0.5533470000000  0.4865080000000 1.0
END
