TITL C-2205171-3741-4 2.32805664578707e-06 3375 -359.483627179607 0 0 60 (C1) n - 1
REM
REM in /home/bkarasulu/CARBON/AIRSS/Generating-Clusters/EDIP-Nigel-Params/Higher-Symm/Box-15A/Only-C60/SD-CG/HFTN-CG
REM
REM
REM
REM
REM
REM ./C.cell (a2850807a9bf4ad07a5b6933b78d9264)
REM
REM compiler GCC version 9.2.1 20190827 (Red Hat 9.2.1-1)
REM options -cpp -mtune=generic -march=x86-64 -g -O0 -fpre-include=/usr/include/finclude/math-vector-fortran.h
REM seed 1733970696 654213888 -1084357663 128844511 -1454603595 1369289203 365896670 -1628527873 -399909994 -1532777698 1051896176 -751922565 1457715097 -1009586361 -1667132503 -1465631330 -762544041 80287602 2022715887 960620722 -1613009781 818723862 -1437468197 241280137 1922068321 408089306 455943997 -1870619504 -1959714987 -1411568246 176842295 -1403680308 1928711158
REM
CELL 1.54180   15.00000   15.00000   15.00000   90.00000   90.00000   90.00000
LATT -1
SFAC C  
C      1  0.5144040000000  0.7002060000000  0.3530300000000 1.0
C      1  0.3898100000000  0.5034400000000  0.6910200000000 1.0
C      1  0.7038660000000  0.3511800000000  0.5163730000000 1.0
C      1  0.4857030000000  0.3028730000000  0.3628100000000 1.0
C      1  0.4887430000000  0.6986290000000  0.6318340000000 1.0
C      1  0.5100840000000  0.2998950000000  0.6243360000000 1.0
C      1  0.6150760000000  0.5015230000000  0.6829130000000 1.0
C      1  0.6487720000000  0.5144360000000  0.2954850000000 1.0
C      1  0.3479780000000  0.4801210000000  0.2909730000000 1.0
C      1  0.3029680000000  0.6384310000000  0.5135850000000 1.0
C      1  0.3056030000000  0.3771370000000  0.4947950000000 1.0
C      1  0.7120110000000  0.6484160000000  0.4796960000000 1.0
C      1  0.6912830000000  0.5026050000000  0.3824680000000 1.0
C      1  0.5191940000000  0.3505210000000  0.7066300000000 1.0
C      1  0.3810320000000  0.6949250000000  0.5079470000000 1.0
C      1  0.3021390000000  0.4886630000000  0.3762530000000 1.0
C      1  0.6834510000000  0.5010010000000  0.6152400000000 1.0
C      1  0.3074380000000  0.5138420000000  0.6408810000000 1.0
C      1  0.4817210000000  0.6522900000000  0.7170780000000 1.0
C      1  0.5019810000000  0.6142290000000  0.3099010000000 1.0
C      1  0.4968390000000  0.3859450000000  0.3140140000000 1.0
C      1  0.6219240000000  0.2998690000000  0.5092140000000 1.0
C      1  0.3594930000000  0.2971300000000  0.4883380000000 1.0
C      1  0.6247240000000  0.6901510000000  0.4907140000000 1.0
C      1  0.3493710000000  0.2655800000000  0.5804220000000 1.0
C      1  0.5805700000000  0.3646760000000  0.2686610000000 1.0
C      1  0.2622070000000  0.5762700000000  0.3623320000000 1.0
C      1  0.6409110000000  0.7347880000000  0.5752420000000 1.0
C      1  0.6370250000000  0.2602680000000  0.4216240000000 1.0
C      1  0.3637730000000  0.7353160000000  0.4207400000000 1.0
C      1  0.4156950000000  0.6318720000000  0.2678950000000 1.0
C      1  0.4263090000000  0.3430300000000  0.7373610000000 1.0
C      1  0.5767780000000  0.6582470000000  0.7427160000000 1.0
C      1  0.7341670000000  0.4168490000000  0.3652250000000 1.0
C      1  0.7260120000000  0.5861950000000  0.6355290000000 1.0
C      1  0.2716060000000  0.4236320000000  0.6543420000000 1.0
C      1  0.2662850000000  0.3617570000000  0.5823430000000 1.0
C      1  0.3405300000000  0.5738400000000  0.2626090000000 1.0
C      1  0.5756450000000  0.2666490000000  0.3492100000000 1.0
C      1  0.7417500000000  0.6568510000000  0.5734500000000 1.0
C      1  0.2701160000000  0.6493060000000  0.4224260000000 1.0
C      1  0.7340720000000  0.3418680000000  0.4236620000000 1.0
C      1  0.6569520000000  0.4214590000000  0.2647140000000 1.0
C      1  0.3691870000000  0.4191400000000  0.7352710000000 1.0
C      1  0.6367780000000  0.5860200000000  0.7261740000000 1.0
C      1  0.4223230000000  0.7327580000000  0.3456490000000 1.0
C      1  0.5762220000000  0.7380340000000  0.6436290000000 1.0
C      1  0.4225850000000  0.2608820000000  0.6408150000000 1.0
C      1  0.4204070000000  0.7344850000000  0.5813410000000 1.0
C      1  0.5631930000000  0.4315840000000  0.7129040000000 1.0
C      1  0.7275500000000  0.5707890000000  0.4319220000000 1.0
C      1  0.5797980000000  0.2586590000000  0.5801960000000 1.0
C      1  0.5707840000000  0.7207910000000  0.4232610000000 1.0
C      1  0.4393540000000  0.2915480000000  0.4420840000000 1.0
C      1  0.4353070000000  0.5732520000000  0.7294690000000 1.0
C      1  0.5702600000000  0.5608580000000  0.2796460000000 1.0
C      1  0.2646510000000  0.4190320000000  0.4235880000000 1.0
C      1  0.2982290000000  0.5589420000000  0.5605820000000 1.0
C      1  0.7100030000000  0.4330100000000  0.5589020000000 1.0
C      1  0.4273550000000  0.4343020000000  0.2785340000000 1.0
END
