TITL C-2205178-3562-4 0.000585620186631475 3375 -367.461372950038 0 0 60 (C1) n - 1
REM
REM in /home/bkarasulu/CARBON/AIRSS/Generating-Clusters/EDIP-Nigel-Params/Higher-Symm/Box-15A/Only-C60/SD-CG/HFTN-CG
REM
REM
REM
REM
REM
REM ./C.cell (a2850807a9bf4ad07a5b6933b78d9264)
REM
REM compiler GCC version 9.2.1 20190827 (Red Hat 9.2.1-1)
REM options -cpp -mtune=generic -march=x86-64 -g -O0 -fpre-include=/usr/include/finclude/math-vector-fortran.h
REM seed -315380138 -1259299860 1670603227 -1477259878 1382771017 1597188514 1413788651 -904015169 1057717351 381202893 -1718112865 2009982350 493116346 -1446931601 56790869 1947803051 1750258951 1204604347 213024670 -218743605 924853540 1243384109 1939361485 1994952002 -1813019724 1852697596 1645187438 1168684673 -545683789 374373395 -1135957616 1087687298 124882027
REM
CELL 1.54180   15.00000   15.00000   15.00000   90.00000   90.00000   90.00000
LATT -1
SFAC C  
C      1  0.6118740000000  0.5774410000000  0.3357000000000 1.0
C      1  0.6009900000000  0.6955320000000  0.4427400000000 1.0
C      1  0.6238620000000  0.6606930000000  0.5947320000000 1.0
C      1  0.6375510000000  0.5112570000000  0.6629410000000 1.0
C      1  0.6080160000000  0.3618060000000  0.6323030000000 1.0
C      1  0.6019900000000  0.3056550000000  0.4840400000000 1.0
C      1  0.6168850000000  0.4019600000000  0.3584590000000 1.0
C      1  0.5411760000000  0.5449070000000  0.4029120000000 1.0
C      1  0.5326680000000  0.6162970000000  0.4688780000000 1.0
C      1  0.5479560000000  0.5939250000000  0.5615090000000 1.0
C      1  0.5972300000000  0.5090330000000  0.5661830000000 1.0
C      1  0.5412530000000  0.4278860000000  0.5767790000000 1.0
C      1  0.5299780000000  0.3856100000000  0.4913800000000 1.0
C      1  0.5366510000000  0.4429800000000  0.4109890000000 1.0
C      1  0.7282620000000  0.4788540000000  0.6230600000000 1.0
C      1  0.7001770000000  0.3824950000000  0.5935030000000 1.0
C      1  0.6915920000000  0.3514560000000  0.4958450000000 1.0
C      1  0.6931550000000  0.4189070000000  0.4254660000000 1.0
C      1  0.6892500000000  0.5764390000000  0.3976570000000 1.0
C      1  0.6932100000000  0.6578910000000  0.4518850000000 1.0
C      1  0.7121340000000  0.6334890000000  0.5467590000000 1.0
C      1  0.5901180000000  0.4328590000000  0.7146860000000 1.0
C      1  0.5697760000000  0.2761890000000  0.5824580000000 1.0
C      1  0.5711230000000  0.3039720000000  0.3759700000000 1.0
C      1  0.5965160000000  0.4814260000000  0.2826320000000 1.0
C      1  0.5699800000000  0.6804410000000  0.3409310000000 1.0
C      1  0.5734130000000  0.7416980000000  0.5351040000000 1.0
C      1  0.6162320000000  0.6097690000000  0.6904040000000 1.0
C      1  0.2018810000000  0.4179700000000  0.5275260000000 1.0
C      1  0.2610290000000  0.3751680000000  0.4669650000000 1.0
C      1  0.2707980000000  0.4307940000000  0.3868110000000 1.0
C      1  0.2243270000000  0.5133310000000  0.3965290000000 1.0
C      1  0.2419960000000  0.5892400000000  0.4502500000000 1.0
C      1  0.2035110000000  0.5750120000000  0.5345880000000 1.0
C      1  0.2221690000000  0.4940830000000  0.5782550000000 1.0
C      1  0.4748030000000  0.7299870000000  0.5401870000000 1.0
C      1  0.5167210000000  0.6191380000000  0.7029320000000 1.0
C      1  0.4916440000000  0.4413980000000  0.7134520000000 1.0
C      1  0.4721190000000  0.2864720000000  0.5830030000000 1.0
C      1  0.4708090000000  0.3154750000000  0.3778790000000 1.0
C      1  0.4955770000000  0.4841890000000  0.2762530000000 1.0
C      1  0.4717560000000  0.6717280000000  0.3467960000000 1.0
C      1  0.3703260000000  0.5484040000000  0.3696570000000 1.0
C      1  0.3447600000000  0.6028400000000  0.4523880000000 1.0
C      1  0.3761320000000  0.6237240000000  0.6172670000000 1.0
C      1  0.3669430000000  0.5548330000000  0.6889590000000 1.0
C      1  0.3564240000000  0.3973440000000  0.5966230000000 1.0
C      1  0.3505720000000  0.3620770000000  0.5073790000000 1.0
C      1  0.3647070000000  0.4536200000000  0.3752370000000 1.0
C      1  0.4413030000000  0.4072290000000  0.3299710000000 1.0
C      1  0.4486430000000  0.5741880000000  0.3177920000000 1.0
C      1  0.4266220000000  0.6854090000000  0.4457990000000 1.0
C      1  0.4619270000000  0.6690370000000  0.6242560000000 1.0
C      1  0.4595690000000  0.5363620000000  0.7199730000000 1.0
C      1  0.4413110000000  0.3704270000000  0.6390830000000 1.0
C      1  0.4296150000000  0.3040290000000  0.4829970000000 1.0
C      1  0.6820180000000  0.5069120000000  0.4668380000000 1.0
C      1  0.3704750000000  0.5605600000000  0.5413810000000 1.0
C      1  0.3191990000000  0.4890990000000  0.6027470000000 1.0
C      1  0.7412560000000  0.5351940000000  0.5420410000000 1.0
END
