TITL C-2222977-2433-11 -5.1915088081672e-05 125000 -365.274162193275 0 0 60 (C1) n - 1
REM
REM in /home/bkarasulu/CARBON/AIRSS/Generating-Clusters/EDIP-Nigel-Params/Higher-Symm/Box-15A/Only-C60/SD-CG/HFTN-CG
REM
REM
REM
REM
REM
REM ./C.cell (414f73aa93bd7a1190c7fd0f31ff2f98)
REM
REM compiler GCC version 9.2.1 20190827 (Red Hat 9.2.1-1)
REM options -cpp -mtune=generic -march=x86-64 -g -O0 -fpre-include=/usr/include/finclude/math-vector-fortran.h
REM seed 1667446016 -378419801 -740757200 1223102118 -646500780 -746594808 -853153746 1923658422 -639624945 835012891 386641409 -543506715 1288100785 966025419 927176223 1490179811 762554340 -1300934106 1420717720 519857306 -11663611 -1340188345 -1802258360 2024208071 -1948224051 -1412052849 442698001 1023546455 -51033430 -1179414412 1889846120 -1132705664 -694717684
REM
CELL 1.54180   50.00000   50.00000   50.00000   90.00000   90.00000   90.00000
LATT -1
SFAC C  
C      1  0.4421440000000  0.5075080000000  0.4438430000000 1.0
C      1  0.4402670000000  0.4751540000000  0.5057090000000 1.0
C      1  0.5844360000000  0.4957930000000  0.4938100000000 1.0
C      1  0.4498470000000  0.4615450000000  0.5300490000000 1.0
C      1  0.4900690000000  0.5047660000000  0.4817470000000 1.0
C      1  0.4421540000000  0.5075280000000  0.5396780000000 1.0
C      1  0.4765130000000  0.4330170000000  0.4932420000000 1.0
C      1  0.4987120000000  0.5745370000000  0.5092280000000 1.0
C      1  0.5701940000000  0.5081700000000  0.4515990000000 1.0
C      1  0.4872850000000  0.5293650000000  0.4383400000000 1.0
C      1  0.5030460000000  0.4260470000000  0.5232440000000 1.0
C      1  0.4891410000000  0.4918860000000  0.5085360000000 1.0
C      1  0.4475770000000  0.4813530000000  0.5516260000000 1.0
C      1  0.4808140000000  0.4793750000000  0.5701960000000 1.0
C      1  0.5074280000000  0.5424100000000  0.5457390000000 1.0
C      1  0.4452600000000  0.4676060000000  0.4778880000000 1.0
C      1  0.4653650000000  0.4471730000000  0.4713660000000 1.0
C      1  0.5085840000000  0.5118100000000  0.5214670000000 1.0
C      1  0.5527260000000  0.4863970000000  0.4479230000000 1.0
C      1  0.4376890000000  0.5039130000000  0.5110170000000 1.0
C      1  0.5347070000000  0.5080610000000  0.5023900000000 1.0
C      1  0.5147860000000  0.5216720000000  0.4495740000000 1.0
C      1  0.5023580000000  0.4987590000000  0.5688210000000 1.0
C      1  0.5381590000000  0.5405040000000  0.5383820000000 1.0
C      1  0.5182990000000  0.5639170000000  0.4749380000000 1.0
C      1  0.4516400000000  0.5506730000000  0.5050000000000 1.0
C      1  0.4837450000000  0.4501870000000  0.4488180000000 1.0
C      1  0.4957110000000  0.5274220000000  0.5700260000000 1.0
C      1  0.5040290000000  0.4722570000000  0.4476450000000 1.0
C      1  0.5201960000000  0.4960080000000  0.5451910000000 1.0
C      1  0.5250900000000  0.4679000000000  0.5311600000000 1.0
C      1  0.4801300000000  0.5354910000000  0.4843490000000 1.0
C      1  0.5459840000000  0.5128490000000  0.5467180000000 1.0
C      1  0.5402250000000  0.4422170000000  0.4670490000000 1.0
C      1  0.4703680000000  0.5048630000000  0.4345710000000 1.0
C      1  0.5244910000000  0.4941100000000  0.4411820000000 1.0
C      1  0.5020960000000  0.5526660000000  0.4935960000000 1.0
C      1  0.5033160000000  0.4388690000000  0.4982220000000 1.0
C      1  0.5485480000000  0.4691040000000  0.4726200000000 1.0
C      1  0.5744800000000  0.5179010000000  0.4776700000000 1.0
C      1  0.4701810000000  0.5447180000000  0.4572390000000 1.0
C      1  0.4383620000000  0.5279280000000  0.4927890000000 1.0
C      1  0.4682350000000  0.5315390000000  0.5753780000000 1.0
C      1  0.4617980000000  0.5529700000000  0.5318500000000 1.0
C      1  0.5251650000000  0.4851750000000  0.4841120000000 1.0
C      1  0.4564970000000  0.5307490000000  0.5497510000000 1.0
C      1  0.5326210000000  0.5416480000000  0.4636990000000 1.0
C      1  0.4812760000000  0.4567530000000  0.5518290000000 1.0
C      1  0.4787260000000  0.4873400000000  0.4581450000000 1.0
C      1  0.5219050000000  0.4272780000000  0.4797140000000 1.0
C      1  0.5581840000000  0.5000470000000  0.5220790000000 1.0
C      1  0.4426070000000  0.5315870000000  0.4613410000000 1.0
C      1  0.5567520000000  0.4685170000000  0.5227620000000 1.0
C      1  0.5487710000000  0.5314240000000  0.4880970000000 1.0
C      1  0.5092380000000  0.4690380000000  0.5047350000000 1.0
C      1  0.5494740000000  0.5487750000000  0.5127290000000 1.0
C      1  0.5072730000000  0.4458420000000  0.5434580000000 1.0
C      1  0.4353860000000  0.4842590000000  0.4578810000000 1.0
C      1  0.5705630000000  0.4693160000000  0.4937970000000 1.0
C      1  0.4893750000000  0.5643140000000  0.5344470000000 1.0
END
