TITL C-2222977-2433-12 -8.63154306661751e-06 125000 -363.778162785633 0 0 60 (C1) n - 1
REM
REM in /home/bkarasulu/CARBON/AIRSS/Generating-Clusters/EDIP-Nigel-Params/Higher-Symm/Box-15A/Only-C60/SD-CG/HFTN-CG
REM
REM
REM
REM
REM
REM ./C.cell (414f73aa93bd7a1190c7fd0f31ff2f98)
REM
REM compiler GCC version 9.2.1 20190827 (Red Hat 9.2.1-1)
REM options -cpp -mtune=generic -march=x86-64 -g -O0 -fpre-include=/usr/include/finclude/math-vector-fortran.h
REM seed -1581666941 1160555462 -1223255955 266430715 1852549090 1702837739 -427674938 -794563730 -1813449012 2020560360 1444972223 -743754798 798824514 113602880 -1554935128 1108670779 -859155268 85084791 -1855508233 -2026233959 -1749386891 1972961028 -1290055360 -636190338 1656073098 1724415898 -1490978004 1264318869 -1675540788 -1919887047 1268688122 -1220464009 -2144337227
REM
CELL 1.54180   50.00000   50.00000   50.00000   90.00000   90.00000   90.00000
LATT -1
SFAC C  
C      1  0.4721270000000  0.4385020000000  0.4733570000000 1.0
C      1  0.4744800000000  0.4457640000000  0.5044300000000 1.0
C      1  0.4863280000000  0.4445110000000  0.5332460000000 1.0
C      1  0.5147600000000  0.4455460000000  0.5375700000000 1.0
C      1  0.5296830000000  0.4450980000000  0.5132540000000 1.0
C      1  0.5198550000000  0.4340120000000  0.4671160000000 1.0
C      1  0.4937450000000  0.4323800000000  0.4540290000000 1.0
C      1  0.4898140000000  0.5083770000000  0.5259550000000 1.0
C      1  0.5169050000000  0.4979840000000  0.5344400000000 1.0
C      1  0.5321400000000  0.5031200000000  0.5106590000000 1.0
C      1  0.5110780000000  0.5205050000000  0.4967270000000 1.0
C      1  0.4993250000000  0.5002400000000  0.4762530000000 1.0
C      1  0.4714580000000  0.4940580000000  0.4824080000000 1.0
C      1  0.4665040000000  0.4963530000000  0.5109630000000 1.0
C      1  0.4563640000000  0.5537460000000  0.4871540000000 1.0
C      1  0.4693890000000  0.5554500000000  0.5140610000000 1.0
C      1  0.5114540000000  0.5572460000000  0.5395070000000 1.0
C      1  0.5407310000000  0.5583940000000  0.5339900000000 1.0
C      1  0.5436400000000  0.5620580000000  0.5035290000000 1.0
C      1  0.5059510000000  0.5551580000000  0.4703270000000 1.0
C      1  0.4765290000000  0.5528800000000  0.4643290000000 1.0
C      1  0.4483150000000  0.4461840000000  0.4609920000000 1.0
C      1  0.4478360000000  0.4565430000000  0.5101130000000 1.0
C      1  0.4710540000000  0.4546110000000  0.5541270000000 1.0
C      1  0.5262020000000  0.4523970000000  0.5620910000000 1.0
C      1  0.5562830000000  0.4532550000000  0.5126800000000 1.0
C      1  0.5392530000000  0.4487250000000  0.4527850000000 1.0
C      1  0.4934630000000  0.4460190000000  0.4294330000000 1.0
C      1  0.5512180000000  0.4729660000000  0.4522410000000 1.0
C      1  0.4987850000000  0.4706270000000  0.4202510000000 1.0
C      1  0.4346470000000  0.4671970000000  0.4515970000000 1.0
C      1  0.4291450000000  0.4743050000000  0.5188430000000 1.0
C      1  0.4656660000000  0.4771290000000  0.5675350000000 1.0
C      1  0.5330490000000  0.4735180000000  0.5771750000000 1.0
C      1  0.5750210000000  0.4721640000000  0.5145700000000 1.0
C      1  0.5040260000000  0.4958020000000  0.4274030000000 1.0
C      1  0.4351600000000  0.4939840000000  0.4517450000000 1.0
C      1  0.4215940000000  0.5000310000000  0.5237190000000 1.0
C      1  0.4683920000000  0.5036940000000  0.5675270000000 1.0
C      1  0.5345060000000  0.5003790000000  0.5781570000000 1.0
C      1  0.5789380000000  0.4986010000000  0.5164500000000 1.0
C      1  0.5540830000000  0.4989150000000  0.4587960000000 1.0
C      1  0.4994080000000  0.5142620000000  0.4488580000000 1.0
C      1  0.4530250000000  0.5112360000000  0.4662300000000 1.0
C      1  0.4439270000000  0.5162190000000  0.5143370000000 1.0
C      1  0.4784420000000  0.5236050000000  0.5496500000000 1.0
C      1  0.5276910000000  0.5167710000000  0.5553910000000 1.0
C      1  0.5572560000000  0.5175420000000  0.5163060000000 1.0
C      1  0.5446530000000  0.5237600000000  0.4681910000000 1.0
C      1  0.5045490000000  0.5368250000000  0.5596790000000 1.0
C      1  0.5515850000000  0.5316680000000  0.5425800000000 1.0
C      1  0.5560160000000  0.5365400000000  0.4929340000000 1.0
C      1  0.5205300000000  0.5345900000000  0.4558640000000 1.0
C      1  0.4718740000000  0.5277660000000  0.4487010000000 1.0
C      1  0.4394890000000  0.5289430000000  0.4868040000000 1.0
C      1  0.4559160000000  0.5375040000000  0.5336530000000 1.0
C      1  0.4990800000000  0.5490170000000  0.5130330000000 1.0
C      1  0.5190590000000  0.5719880000000  0.4901000000000 1.0
C      1  0.5153210000000  0.4766610000000  0.4795020000000 1.0
C      1  0.5110090000000  0.4503260000000  0.4904050000000 1.0
END
