TITL C-2205177-3544-10 -9.4358406104784e-06 3375 -358.762806371167 0 0 60 (C1) n - 1
REM
REM in /home/bkarasulu/CARBON/AIRSS/Generating-Clusters/EDIP-Nigel-Params/Higher-Symm/Box-15A/Only-C60/SD-CG/HFTN-CG
REM
REM
REM
REM
REM
REM ./C.cell (a2850807a9bf4ad07a5b6933b78d9264)
REM
REM compiler GCC version 9.2.1 20190827 (Red Hat 9.2.1-1)
REM options -cpp -mtune=generic -march=x86-64 -g -O0 -fpre-include=/usr/include/finclude/math-vector-fortran.h
REM seed -1761350661 1575997007 -767262199 2040323960 -1824315051 -349196490 1579815791 1638882514 -199556629 -333077523 -1605522776 -178067570 844919359 -585825233 -305818705 -1178061993 -226953662 -121119652 110810443 1403794036 1632266124 -494128879 -1005961631 -581648823 -1353481636 -635433318 -1595816685 -1325834405 -812781491 -1340509959 -1538518276 -577778184 -1473505171
REM
CELL 1.54180   15.00000   15.00000   15.00000   90.00000   90.00000   90.00000
LATT -1
SFAC C  
C      1  0.4270010000000  0.5281790000000  0.5784320000000 1.0
C      1  0.4779440000000  0.4295840000000  0.5857630000000 1.0
C      1  0.5677650000000  0.4848500000000  0.5809870000000 1.0
C      1  0.5183700000000  0.5719250000000  0.5750450000000 1.0
C      1  0.2653030000000  0.4724290000000  0.5443310000000 1.0
C      1  0.5240950000000  0.2598260000000  0.5399100000000 1.0
C      1  0.7354880000000  0.5235280000000  0.5464010000000 1.0
C      1  0.4714020000000  0.7342660000000  0.5424100000000 1.0
C      1  0.4179810000000  0.6576250000000  0.3244480000000 1.0
C      1  0.3457070000000  0.4202020000000  0.3283470000000 1.0
C      1  0.5784380000000  0.3494880000000  0.3291520000000 1.0
C      1  0.6587190000000  0.5813880000000  0.3283070000000 1.0
C      1  0.6364870000000  0.5168740000000  0.6781400000000 1.0
C      1  0.4766650000000  0.6438910000000  0.6750560000000 1.0
C      1  0.3637650000000  0.4706760000000  0.6768020000000 1.0
C      1  0.5230410000000  0.3491000000000  0.6757840000000 1.0
C      1  0.6510000000000  0.3088920000000  0.4501550000000 1.0
C      1  0.6895640000000  0.6513500000000  0.4531130000000 1.0
C      1  0.3463920000000  0.6886540000000  0.4484300000000 1.0
C      1  0.3087770000000  0.3470680000000  0.4500480000000 1.0
C      1  0.7270910000000  0.5242510000000  0.3700530000000 1.0
C      1  0.4759090000000  0.7255610000000  0.3667280000000 1.0
C      1  0.2762890000000  0.4765710000000  0.3684720000000 1.0
C      1  0.5226630000000  0.2777790000000  0.3661950000000 1.0
C      1  0.3467790000000  0.3287790000000  0.3619810000000 1.0
C      1  0.6698800000000  0.3496800000000  0.3634060000000 1.0
C      1  0.6535930000000  0.6724700000000  0.3644770000000 1.0
C      1  0.3263360000000  0.6533940000000  0.3599230000000 1.0
C      1  0.5265430000000  0.4300020000000  0.7230970000000 1.0
C      1  0.5811520000000  0.5443670000000  0.7519900000000 1.0
C      1  0.4879200000000  0.5726870000000  0.7390580000000 1.0
C      1  0.4492900000000  0.4861400000000  0.7186230000000 1.0
C      1  0.6639760000000  0.3604780000000  0.5851850000000 1.0
C      1  0.6328560000000  0.6613670000000  0.5874080000000 1.0
C      1  0.3305920000000  0.6349960000000  0.5858370000000 1.0
C      1  0.3637960000000  0.3294620000000  0.5859840000000 1.0
C      1  0.7468410000000  0.5727980000000  0.4579220000000 1.0
C      1  0.4250210000000  0.7456260000000  0.4533260000000 1.0
C      1  0.2521500000000  0.4264160000000  0.4548980000000 1.0
C      1  0.5722710000000  0.2509880000000  0.4512530000000 1.0
C      1  0.6775300000000  0.5785600000000  0.6122020000000 1.0
C      1  0.4169670000000  0.6738830000000  0.6051980000000 1.0
C      1  0.3314420000000  0.4187410000000  0.6025860000000 1.0
C      1  0.5770110000000  0.3216120000000  0.6015330000000 1.0
C      1  0.5304460000000  0.6122590000000  0.4826520000000 1.0
C      1  0.3868700000000  0.5322490000000  0.4849050000000 1.0
C      1  0.4675450000000  0.3881440000000  0.4925130000000 1.0
C      1  0.6097970000000  0.4690340000000  0.4900530000000 1.0
C      1  0.7172630000000  0.4305560000000  0.3648900000000 1.0
C      1  0.5700990000000  0.7158790000000  0.3634880000000 1.0
C      1  0.2821280000000  0.5705610000000  0.3604140000000 1.0
C      1  0.4286290000000  0.2831750000000  0.3610650000000 1.0
C      1  0.5698460000000  0.7004000000000  0.5234140000000 1.0
C      1  0.2970920000000  0.5701590000000  0.5216820000000 1.0
C      1  0.4284840000000  0.2975780000000  0.5209760000000 1.0
C      1  0.6966640000000  0.4284260000000  0.5239690000000 1.0
C      1  0.5580770000000  0.3965570000000  0.4447080000000 1.0
C      1  0.6023810000000  0.5581900000000  0.4390970000000 1.0
C      1  0.4395860000000  0.6011910000000  0.4352490000000 1.0
C      1  0.3972900000000  0.4392370000000  0.4425270000000 1.0
END
