TITL C-2205177-3544-6 0.000229379855390952 3375 -363.097693945177 0 0 60 (C1) n - 1
REM
REM in /home/bkarasulu/CARBON/AIRSS/Generating-Clusters/EDIP-Nigel-Params/Higher-Symm/Box-15A/Only-C60/SD-CG/HFTN-CG
REM
REM
REM
REM
REM
REM ./C.cell (a2850807a9bf4ad07a5b6933b78d9264)
REM
REM compiler GCC version 9.2.1 20190827 (Red Hat 9.2.1-1)
REM options -cpp -mtune=generic -march=x86-64 -g -O0 -fpre-include=/usr/include/finclude/math-vector-fortran.h
REM seed -1999863678 -1501340840 -425037880 -1860718730 -940524382 -930668436 1976918834 -569962064 -939368553 901678410 667567118 -355622028 1850616198 1210648562 -1864257026 -246234879 -374802316 -898668730 -567352621 -971858491 1311142028 -1380282518 -574935112 -898145179 857423617 -271372951 -1189628621 -1504889401 -2053666317 1106507915 1530610297 -1763821318 -350561164
REM
CELL 1.54180   15.00000   15.00000   15.00000   90.00000   90.00000   90.00000
LATT -1
SFAC C  
C      1  0.5237350000000  0.5378380000000  0.2598980000000 1.0
C      1  0.2992540000000  0.5654870000000  0.4006170000000 1.0
C      1  0.3383910000000  0.5304190000000  0.6764890000000 1.0
C      1  0.6001520000000  0.5709270000000  0.7011080000000 1.0
C      1  0.7251630000000  0.5467730000000  0.4647800000000 1.0
C      1  0.5289890000000  0.4412530000000  0.2714180000000 1.0
C      1  0.2804770000000  0.4704170000000  0.4031980000000 1.0
C      1  0.3485960000000  0.4353540000000  0.6600330000000 1.0
C      1  0.6227210000000  0.4767010000000  0.7087160000000 1.0
C      1  0.7312860000000  0.4521810000000  0.4431950000000 1.0
C      1  0.6677030000000  0.4306640000000  0.1832460000000 1.0
C      1  0.2414740000000  0.4913490000000  0.2512050000000 1.0
C      1  0.1845480000000  0.4147200000000  0.6534040000000 1.0
C      1  0.5603580000000  0.4881660000000  0.8534450000000 1.0
C      1  0.8513520000000  0.4510060000000  0.5465880000000 1.0
C      1  0.6579280000000  0.5203910000000  0.1774740000000 1.0
C      1  0.2574640000000  0.5799830000000  0.2424530000000 1.0
C      1  0.1832880000000  0.5048220000000  0.6593730000000 1.0
C      1  0.5455300000000  0.5773280000000  0.8562000000000 1.0
C      1  0.8485130000000  0.5373480000000  0.5728850000000 1.0
C      1  0.3787790000000  0.3464980000000  0.5357900000000 1.0
C      1  0.5036990000000  0.3701930000000  0.6525280000000 1.0
C      1  0.6403120000000  0.3507740000000  0.5476810000000 1.0
C      1  0.5767520000000  0.3486110000000  0.3877890000000 1.0
C      1  0.4100340000000  0.3691530000000  0.3668770000000 1.0
C      1  0.3455170000000  0.6377200000000  0.5431300000000 1.0
C      1  0.4879270000000  0.6616780000000  0.6410710000000 1.0
C      1  0.6323960000000  0.6375450000000  0.5518390000000 1.0
C      1  0.6003020000000  0.6277970000000  0.3835870000000 1.0
C      1  0.4272690000000  0.6539480000000  0.3925050000000 1.0
C      1  0.7187140000000  0.6385410000000  0.5926700000000 1.0
C      1  0.6512640000000  0.6150650000000  0.3060100000000 1.0
C      1  0.3724090000000  0.6762480000000  0.3174200000000 1.0
C      1  0.2585510000000  0.6166650000000  0.5714340000000 1.0
C      1  0.4920910000000  0.6794070000000  0.7347310000000 1.0
C      1  0.7330220000000  0.3440140000000  0.5584660000000 1.0
C      1  0.6337590000000  0.3310920000000  0.3134060000000 1.0
C      1  0.3520520000000  0.3850010000000  0.2950010000000 1.0
C      1  0.2943720000000  0.3185130000000  0.5710260000000 1.0
C      1  0.5031930000000  0.3841680000000  0.7453510000000 1.0
C      1  0.3129050000000  0.6043350000000  0.3136480000000 1.0
C      1  0.2524130000000  0.5668580000000  0.6508240000000 1.0
C      1  0.5403760000000  0.6065540000000  0.7675960000000 1.0
C      1  0.7643010000000  0.5703150000000  0.5494430000000 1.0
C      1  0.6078500000000  0.5777380000000  0.2317110000000 1.0
C      1  0.2728890000000  0.4307970000000  0.3150830000000 1.0
C      1  0.2704390000000  0.3904620000000  0.6256260000000 1.0
C      1  0.5759000000000  0.4317380000000  0.7806440000000 1.0
C      1  0.7861670000000  0.3994400000000  0.5041460000000 1.0
C      1  0.6162470000000  0.4027530000000  0.2562290000000 1.0
C      1  0.5911950000000  0.3922090000000  0.6188250000000 1.0
C      1  0.6236850000000  0.3888320000000  0.4615050000000 1.0
C      1  0.5004230000000  0.4046330000000  0.3580980000000 1.0
C      1  0.3665000000000  0.3885580000000  0.4497670000000 1.0
C      1  0.4245810000000  0.4040350000000  0.6045370000000 1.0
C      1  0.5648000000000  0.6041020000000  0.6154020000000 1.0
C      1  0.6361360000000  0.5883020000000  0.4656010000000 1.0
C      1  0.5081090000000  0.6095230000000  0.3633750000000 1.0
C      1  0.3720080000000  0.6003290000000  0.4567330000000 1.0
C      1  0.4037430000000  0.6227310000000  0.6171690000000 1.0
END
