TITL C-2222974-2064-27 2.47246035904122e-05 125000 -367.1030803695 0 0 60 (C1) n - 1
REM
REM in /home/bkarasulu/CARBON/AIRSS/Generating-Clusters/EDIP-Nigel-Params/Higher-Symm/Box-15A/Only-C60/SD-CG/HFTN-CG
REM
REM
REM
REM
REM
REM ./C.cell (414f73aa93bd7a1190c7fd0f31ff2f98)
REM
REM compiler GCC version 9.2.1 20190827 (Red Hat 9.2.1-1)
REM options -cpp -mtune=generic -march=x86-64 -g -O0 -fpre-include=/usr/include/finclude/math-vector-fortran.h
REM seed 1686204397 -82367427 -1431630955 -655483038 1287624698 -1183270480 -231043769 -103081053 -2058569854 -1699963287 1716760739 1440708575 694093989 -2096181952 1750641458 974312601 1555112921 32282025 -2036413155 1744234960 1460745057 -1099261869 -779977098 -428209990 -1103051908 -1076777382 1533318465 1961140143 750838820 -1359050011 386653464 1645471090 322253636
REM
CELL 1.54180   50.00000   50.00000   50.00000   90.00000   90.00000   90.00000
LATT -1
SFAC C  
C      1  0.4573890000000  0.4858900000000  0.5540790000000 1.0
C      1  0.4939510000000  0.4312390000000  0.4758380000000 1.0
C      1  0.4272830000000  0.4779490000000  0.4949870000000 1.0
C      1  0.5642840000000  0.5239640000000  0.5265280000000 1.0
C      1  0.4958540000000  0.5478580000000  0.4363450000000 1.0
C      1  0.4941910000000  0.5468050000000  0.4658550000000 1.0
C      1  0.5403570000000  0.5133350000000  0.5378070000000 1.0
C      1  0.4982620000000  0.5339590000000  0.5680070000000 1.0
C      1  0.5391060000000  0.4706120000000  0.5604090000000 1.0
C      1  0.5315280000000  0.5496040000000  0.4957020000000 1.0
C      1  0.5745520000000  0.4707020000000  0.5230950000000 1.0
C      1  0.4567220000000  0.4614500000000  0.5132540000000 1.0
C      1  0.4309070000000  0.5065140000000  0.4965020000000 1.0
C      1  0.5161500000000  0.5452960000000  0.5186950000000 1.0
C      1  0.4927440000000  0.4269870000000  0.5033930000000 1.0
C      1  0.4464280000000  0.5473530000000  0.4797640000000 1.0
C      1  0.5154920000000  0.4850650000000  0.5050360000000 1.0
C      1  0.5099960000000  0.4624660000000  0.5672680000000 1.0
C      1  0.5428070000000  0.5246500000000  0.4826830000000 1.0
C      1  0.4475020000000  0.5432150000000  0.5243850000000 1.0
C      1  0.5079780000000  0.4388460000000  0.5234030000000 1.0
C      1  0.4966450000000  0.4849510000000  0.5819910000000 1.0
C      1  0.5115070000000  0.5216240000000  0.5338750000000 1.0
C      1  0.5125780000000  0.5089680000000  0.5761100000000 1.0
C      1  0.5643150000000  0.5135830000000  0.5003300000000 1.0
C      1  0.5432670000000  0.5022770000000  0.4387320000000 1.0
C      1  0.4335110000000  0.5188070000000  0.5235110000000 1.0
C      1  0.5554480000000  0.4696830000000  0.4759290000000 1.0
C      1  0.5496640000000  0.4614020000000  0.5330920000000 1.0
C      1  0.5329990000000  0.4834630000000  0.4599820000000 1.0
C      1  0.5140650000000  0.5644690000000  0.4793260000000 1.0
C      1  0.4365110000000  0.5020560000000  0.5456220000000 1.0
C      1  0.5233110000000  0.4356830000000  0.4653110000000 1.0
C      1  0.4290230000000  0.4604650000000  0.5164600000000 1.0
C      1  0.5421200000000  0.4455570000000  0.4867860000000 1.0
C      1  0.4621780000000  0.4607960000000  0.4490770000000 1.0
C      1  0.4746380000000  0.4747140000000  0.5328140000000 1.0
C      1  0.4928150000000  0.4984440000000  0.5183670000000 1.0
C      1  0.5669980000000  0.4844210000000  0.4992780000000 1.0
C      1  0.5234660000000  0.5402790000000  0.4284680000000 1.0
C      1  0.5392310000000  0.5008300000000  0.5638640000000 1.0
C      1  0.4571310000000  0.5115380000000  0.4461330000000 1.0
C      1  0.4774910000000  0.5115800000000  0.4946500000000 1.0
C      1  0.4863040000000  0.5525090000000  0.5504490000000 1.0
C      1  0.4855670000000  0.4579200000000  0.4636850000000 1.0
C      1  0.4687540000000  0.4874830000000  0.5792450000000 1.0
C      1  0.4928580000000  0.4529230000000  0.5444030000000 1.0
C      1  0.4712860000000  0.5578870000000  0.5271950000000 1.0
C      1  0.5490330000000  0.5280920000000  0.4527430000000 1.0
C      1  0.4775280000000  0.5256790000000  0.4267900000000 1.0
C      1  0.5132810000000  0.4620760000000  0.4509850000000 1.0
C      1  0.4641360000000  0.4847180000000  0.4356510000000 1.0
C      1  0.5282820000000  0.4576590000000  0.5120890000000 1.0
C      1  0.4963230000000  0.5171840000000  0.4743890000000 1.0
C      1  0.4946410000000  0.5024280000000  0.4203010000000 1.0
C      1  0.4701210000000  0.5616680000000  0.4776160000000 1.0
C      1  0.4835420000000  0.5689930000000  0.5028920000000 1.0
C      1  0.5214300000000  0.5023810000000  0.4810970000000 1.0
C      1  0.5226310000000  0.5120040000000  0.4191340000000 1.0
C      1  0.4518860000000  0.5190460000000  0.4785940000000 1.0
END
