TITL C-2222978-775-15 -3.99523983587202e-06 125000 -363.451103295284 0 0 60 (C5) n - 1
REM
REM in /home/bkarasulu/CARBON/AIRSS/Generating-Clusters/EDIP-Nigel-Params/Higher-Symm/Box-15A/Only-C60/SD-CG/HFTN-CG
REM
REM
REM
REM
REM
REM ./C.cell (414f73aa93bd7a1190c7fd0f31ff2f98)
REM
REM compiler GCC version 9.2.1 20190827 (Red Hat 9.2.1-1)
REM options -cpp -mtune=generic -march=x86-64 -g -O0 -fpre-include=/usr/include/finclude/math-vector-fortran.h
REM seed 496141955 -481958012 698828436 584747581 -1112056212 1266981352 857801644 -1545755839 -1194168277 1790973209 -496103775 1009252734 883789999 -668030774 1817896773 668453146 1191727062 -707122433 2075787738 -1537644743 -1641250306 -289497990 662372686 -1675981993 1393962590 -344627482 -485760504 -1961574148 -2130398896 168624846 -111268607 -564190673 42617838
REM
CELL 1.54180   50.00000   50.00000   50.00000   90.00000   90.00000   90.00000
LATT -1
SFAC C  
C      1  0.5488540000000  0.5341740000000  0.4467420000000 1.0
C      1  0.5657470000000  0.5341750000000  0.5300080000000 1.0
C      1  0.4917760000000  0.5341710000000  0.5718040000000 1.0
C      1  0.4291680000000  0.5341670000000  0.5143690000000 1.0
C      1  0.4644440000000  0.5341690000000  0.4370770000000 1.0
C      1  0.5488540000000  0.5341740000000  0.5532580000000 1.0
C      1  0.5657470000000  0.5341750000000  0.4699920000000 1.0
C      1  0.4917760000000  0.5341710000000  0.4281960000000 1.0
C      1  0.4291680000000  0.5341670000000  0.4856310000000 1.0
C      1  0.4644440000000  0.5341690000000  0.5629230000000 1.0
C      1  0.5678870000000  0.4897320000000  0.4685460000000 1.0
C      1  0.5508930000000  0.4897310000000  0.5548440000000 1.0
C      1  0.4635680000000  0.4897260000000  0.5653490000000 1.0
C      1  0.4265910000000  0.4897230000000  0.4855440000000 1.0
C      1  0.4910640000000  0.4897270000000  0.4257170000000 1.0
C      1  0.5678870000000  0.4897320000000  0.5314540000000 1.0
C      1  0.5508930000000  0.4897310000000  0.4451560000000 1.0
C      1  0.4635680000000  0.4897260000000  0.4346510000000 1.0
C      1  0.4265910000000  0.4897230000000  0.5144560000000 1.0
C      1  0.4910640000000  0.4897270000000  0.5742830000000 1.0
C      1  0.4662670000000  0.5546250000000  0.5420480000000 1.0
C      1  0.4495840000000  0.5546240000000  0.4809150000000 1.0
C      1  0.5025690000000  0.5546270000000  0.4461570000000 1.0
C      1  0.5519990000000  0.5546300000000  0.4858080000000 1.0
C      1  0.5295630000000  0.5546280000000  0.5450720000000 1.0
C      1  0.4662670000000  0.5546250000000  0.4579520000000 1.0
C      1  0.4495840000000  0.5546240000000  0.5190850000000 1.0
C      1  0.5025690000000  0.5546270000000  0.5538430000000 1.0
C      1  0.5519990000000  0.5546300000000  0.5141920000000 1.0
C      1  0.5295630000000  0.5546280000000  0.4549280000000 1.0
C      1  0.4366630000000  0.4660290000000  0.5280070000000 1.0
C      1  0.4537930000000  0.4660310000000  0.4484150000000 1.0
C      1  0.5347830000000  0.4660350000000  0.4401120000000 1.0
C      1  0.5677070000000  0.4660370000000  0.5145720000000 1.0
C      1  0.5070650000000  0.4660340000000  0.5688940000000 1.0
C      1  0.4366630000000  0.4660290000000  0.4719930000000 1.0
C      1  0.4537930000000  0.4660310000000  0.5515850000000 1.0
C      1  0.5347830000000  0.4660350000000  0.5598880000000 1.0
C      1  0.5677070000000  0.4660370000000  0.4854280000000 1.0
C      1  0.5070650000000  0.4660340000000  0.4311060000000 1.0
C      1  0.5826730000000  0.5124410000000  0.4757970000000 1.0
C      1  0.5485660000000  0.5124390000000  0.5711480000000 1.0
C      1  0.4473410000000  0.5124330000000  0.5681750000000 1.0
C      1  0.4188890000000  0.5124310000000  0.4709870000000 1.0
C      1  0.5025280000000  0.5124360000000  0.4138940000000 1.0
C      1  0.5826730000000  0.5124410000000  0.5242030000000 1.0
C      1  0.5485660000000  0.5124390000000  0.4288520000000 1.0
C      1  0.4473410000000  0.5124330000000  0.4318250000000 1.0
C      1  0.4188890000000  0.5124310000000  0.5290130000000 1.0
C      1  0.5025280000000  0.5124360000000  0.5861060000000 1.0
C      1  0.5336860000000  0.4430070000000  0.4579890000000 1.0
C      1  0.5503670000000  0.4430080000000  0.5190520000000 1.0
C      1  0.4974470000000  0.4430050000000  0.5537850000000 1.0
C      1  0.4480610000000  0.4430020000000  0.5141900000000 1.0
C      1  0.4704570000000  0.4430030000000  0.4549840000000 1.0
C      1  0.5336860000000  0.4430070000000  0.5420110000000 1.0
C      1  0.5503670000000  0.4430080000000  0.4809480000000 1.0
C      1  0.4974470000000  0.4430050000000  0.4462150000000 1.0
C      1  0.4480610000000  0.4430020000000  0.4858100000000 1.0
C      1  0.4704570000000  0.4430030000000  0.5450160000000 1.0
END
