TITL C-2222978-775-25 2.53646964197724e-05 125000 -361.405764809035 0 0 60 (C1) n - 1
REM
REM in /home/bkarasulu/CARBON/AIRSS/Generating-Clusters/EDIP-Nigel-Params/Higher-Symm/Box-15A/Only-C60/SD-CG/HFTN-CG
REM
REM
REM
REM
REM
REM ./C.cell (414f73aa93bd7a1190c7fd0f31ff2f98)
REM
REM compiler GCC version 9.2.1 20190827 (Red Hat 9.2.1-1)
REM options -cpp -mtune=generic -march=x86-64 -g -O0 -fpre-include=/usr/include/finclude/math-vector-fortran.h
REM seed -1699869314 1021578933 -336178446 1515878207 -652959553 -1797430714 -2085849314 1517479060 -384709150 2094973251 866142395 184793540 229593873 -1691215198 775811045 1835508419 473208554 -638181046 -1574939597 2077844433 832948736 2028964724 1721956605 -324285617 -1289151550 -1428450314 1267001741 854107486 1672983907 387785783 1511749629 1436819545 864100414
REM
CELL 1.54180   50.00000   50.00000   50.00000   90.00000   90.00000   90.00000
LATT -1
SFAC C  
C      1  0.4733990000000  0.5079770000000  0.4956950000000 1.0
C      1  0.5150880000000  0.5141580000000  0.5191520000000 1.0
C      1  0.5151190000000  0.5040830000000  0.4717170000000 1.0
C      1  0.4349150000000  0.4702670000000  0.4707680000000 1.0
C      1  0.5084780000000  0.4666540000000  0.5632370000000 1.0
C      1  0.5506310000000  0.4620600000000  0.4647630000000 1.0
C      1  0.4524310000000  0.5165230000000  0.5587970000000 1.0
C      1  0.5771530000000  0.5187400000000  0.5128790000000 1.0
C      1  0.4717010000000  0.5209370000000  0.4257200000000 1.0
C      1  0.5541570000000  0.5101700000000  0.5563710000000 1.0
C      1  0.5262530000000  0.5080040000000  0.4261600000000 1.0
C      1  0.4238220000000  0.5073030000000  0.5201770000000 1.0
C      1  0.4813900000000  0.4795900000000  0.5079540000000 1.0
C      1  0.5115700000000  0.4829510000000  0.5106620000000 1.0
C      1  0.5161590000000  0.4770070000000  0.4811880000000 1.0
C      1  0.4891580000000  0.5426240000000  0.4271450000000 1.0
C      1  0.4390990000000  0.5416270000000  0.5620360000000 1.0
C      1  0.5748910000000  0.5458820000000  0.5222640000000 1.0
C      1  0.5097530000000  0.5439590000000  0.5535510000000 1.0
C      1  0.5426930000000  0.5387800000000  0.4724950000000 1.0
C      1  0.4453430000000  0.5433840000000  0.4824580000000 1.0
C      1  0.4980940000000  0.4444030000000  0.5491560000000 1.0
C      1  0.5384080000000  0.4421860000000  0.4826420000000 1.0
C      1  0.4490340000000  0.4473570000000  0.4629600000000 1.0
C      1  0.4724120000000  0.4477520000000  0.4786130000000 1.0
C      1  0.4977340000000  0.4345750000000  0.5221370000000 1.0
C      1  0.5274140000000  0.4375300000000  0.5088340000000 1.0
C      1  0.4856280000000  0.5231430000000  0.5173340000000 1.0
C      1  0.5369040000000  0.5350470000000  0.5049360000000 1.0
C      1  0.4887120000000  0.5161070000000  0.4705910000000 1.0
C      1  0.5188580000000  0.5580010000000  0.4793640000000 1.0
C      1  0.4694140000000  0.5573410000000  0.4886700000000 1.0
C      1  0.5025930000000  0.5617360000000  0.5318400000000 1.0
C      1  0.4692650000000  0.4949680000000  0.5474140000000 1.0
C      1  0.5594190000000  0.4968090000000  0.5043100000000 1.0
C      1  0.4723270000000  0.5019820000000  0.4482530000000 1.0
C      1  0.5369300000000  0.4636420000000  0.4396090000000 1.0
C      1  0.4236560000000  0.4682630000000  0.4962480000000 1.0
C      1  0.5366820000000  0.4669530000000  0.5656620000000 1.0
C      1  0.4292970000000  0.4794040000000  0.5209740000000 1.0
C      1  0.5572030000000  0.4817160000000  0.5525820000000 1.0
C      1  0.5168640000000  0.4799330000000  0.4277720000000 1.0
C      1  0.4546550000000  0.4711460000000  0.5341970000000 1.0
C      1  0.5566450000000  0.4746000000000  0.5235630000000 1.0
C      1  0.4891250000000  0.4761030000000  0.4407640000000 1.0
C      1  0.4913070000000  0.5467870000000  0.4711710000000 1.0
C      1  0.4776960000000  0.5513840000000  0.5177470000000 1.0
C      1  0.5242330000000  0.5635930000000  0.5114410000000 1.0
C      1  0.5746360000000  0.5267000000000  0.5438560000000 1.0
C      1  0.5073570000000  0.5261760000000  0.4138740000000 1.0
C      1  0.4265660000000  0.5231470000000  0.5440240000000 1.0
C      1  0.5287430000000  0.4626080000000  0.5250230000000 1.0
C      1  0.4944160000000  0.4619110000000  0.4661860000000 1.0
C      1  0.4735130000000  0.4487050000000  0.5089080000000 1.0
C      1  0.4971890000000  0.4937310000000  0.5584950000000 1.0
C      1  0.5573680000000  0.4908520000000  0.4747310000000 1.0
C      1  0.4445740000000  0.4974420000000  0.4633060000000 1.0
C      1  0.4442630000000  0.5151510000000  0.4886560000000 1.0
C      1  0.5176850000000  0.5161280000000  0.5495240000000 1.0
C      1  0.5399760000000  0.5123070000000  0.4594470000000 1.0
END
