TITL C-2222982-4400-9 -2.54137873203948e-06 125000 -365.921578063273 0 0 60 (C1) n - 1
REM
REM in /home/bkarasulu/CARBON/AIRSS/Generating-Clusters/EDIP-Nigel-Params/Higher-Symm/Box-15A/Only-C60/SD-CG/HFTN-CG
REM
REM
REM
REM
REM
REM ./C.cell (414f73aa93bd7a1190c7fd0f31ff2f98)
REM
REM compiler GCC version 9.2.1 20190827 (Red Hat 9.2.1-1)
REM options -cpp -mtune=generic -march=x86-64 -g -O0 -fpre-include=/usr/include/finclude/math-vector-fortran.h
REM seed -2077739969 2107231544 1872226251 -1255704629 -1734530006 750410613 -202079292 -1469988376 265462325 -2033984257 934696527 207245779 851652201 -1300197766 -1724234110 2022700375 1794201885 397691914 -211583240 1179415596 -112887153 1479796768 -1359256831 -1147678843 -992901283 -2054965974 769829958 -807136607 -1689911154 -667290652 1499235533 1164259984 -1357664530
REM
CELL 1.54180   50.00000   50.00000   50.00000   90.00000   90.00000   90.00000
LATT -1
SFAC C  
C      1  0.5148970000000  0.4944700000000  0.5367590000000 1.0
C      1  0.4896900000000  0.5419010000000  0.5153440000000 1.0
C      1  0.5399610000000  0.5085600000000  0.4947080000000 1.0
C      1  0.4873420000000  0.4861580000000  0.4773370000000 1.0
C      1  0.4867250000000  0.5093780000000  0.5382160000000 1.0
C      1  0.5111380000000  0.5111660000000  0.4817130000000 1.0
C      1  0.5031340000000  0.5413540000000  0.4870970000000 1.0
C      1  0.5112720000000  0.4577150000000  0.5156260000000 1.0
C      1  0.4967930000000  0.4567350000000  0.4879840000000 1.0
C      1  0.4593940000000  0.5161930000000  0.5065650000000 1.0
C      1  0.4588630000000  0.4890160000000  0.4918230000000 1.0
C      1  0.5423940000000  0.4818280000000  0.5093480000000 1.0
C      1  0.5609220000000  0.4631900000000  0.5453370000000 1.0
C      1  0.4731520000000  0.5537470000000  0.5565130000000 1.0
C      1  0.5473120000000  0.5554210000000  0.4674110000000 1.0
C      1  0.4376740000000  0.4724030000000  0.4488920000000 1.0
C      1  0.4335140000000  0.5374430000000  0.5395680000000 1.0
C      1  0.5537360000000  0.5343590000000  0.4504180000000 1.0
C      1  0.5336910000000  0.5295070000000  0.4316510000000 1.0
C      1  0.5342550000000  0.4543530000000  0.5538430000000 1.0
C      1  0.4580060000000  0.4538200000000  0.4463470000000 1.0
C      1  0.4538190000000  0.5568570000000  0.5368190000000 1.0
C      1  0.4575650000000  0.4360440000000  0.4677340000000 1.0
C      1  0.5592560000000  0.4409480000000  0.5268780000000 1.0
C      1  0.5530770000000  0.5292860000000  0.5134340000000 1.0
C      1  0.5327140000000  0.5131660000000  0.5527650000000 1.0
C      1  0.5139700000000  0.5543750000000  0.5311600000000 1.0
C      1  0.4447590000000  0.5329700000000  0.4861750000000 1.0
C      1  0.4486010000000  0.4692410000000  0.5132110000000 1.0
C      1  0.5547150000000  0.4680870000000  0.4838720000000 1.0
C      1  0.4717200000000  0.5119540000000  0.4530010000000 1.0
C      1  0.4687450000000  0.4888860000000  0.5522070000000 1.0
C      1  0.5234580000000  0.4882810000000  0.4529810000000 1.0
C      1  0.4843000000000  0.5544310000000  0.4675450000000 1.0
C      1  0.4883260000000  0.4459800000000  0.5333280000000 1.0
C      1  0.5145380000000  0.4439580000000  0.4676700000000 1.0
C      1  0.5135310000000  0.4734610000000  0.5573430000000 1.0
C      1  0.4625340000000  0.5686120000000  0.5112870000000 1.0
C      1  0.5629220000000  0.5111990000000  0.4651230000000 1.0
C      1  0.4831790000000  0.4643540000000  0.4397510000000 1.0
C      1  0.4894560000000  0.5312460000000  0.5598230000000 1.0
C      1  0.5072070000000  0.5336190000000  0.4300520000000 1.0
C      1  0.5279880000000  0.5590130000000  0.4873100000000 1.0
C      1  0.5352800000000  0.4380530000000  0.5106460000000 1.0
C      1  0.4744100000000  0.4370490000000  0.4899430000000 1.0
C      1  0.4373430000000  0.5134920000000  0.5256250000000 1.0
C      1  0.4365410000000  0.4908060000000  0.4698630000000 1.0
C      1  0.5699390000000  0.4891100000000  0.5346090000000 1.0
C      1  0.5105090000000  0.4637440000000  0.4460590000000 1.0
C      1  0.4634120000000  0.4432330000000  0.5165540000000 1.0
C      1  0.4443870000000  0.5173530000000  0.4608760000000 1.0
C      1  0.4852620000000  0.4637540000000  0.5571940000000 1.0
C      1  0.4832420000000  0.5363610000000  0.4439440000000 1.0
C      1  0.5177760000000  0.5389580000000  0.5567660000000 1.0
C      1  0.5413640000000  0.4415460000000  0.4812830000000 1.0
C      1  0.5384520000000  0.5554560000000  0.5143270000000 1.0
C      1  0.4583250000000  0.5590670000000  0.4835290000000 1.0
C      1  0.5592060000000  0.5160250000000  0.5398220000000 1.0
C      1  0.5514900000000  0.4852570000000  0.4593390000000 1.0
C      1  0.4428190000000  0.4860510000000  0.5376490000000 1.0
END
