TITL C-2222971-1600-5 1.08423788383434e-06 125000 -360.970264460746 0 0 60 (C6) n - 1
REM
REM in /home/bkarasulu/CARBON/AIRSS/Generating-Clusters/EDIP-Nigel-Params/Higher-Symm/Box-15A/Only-C60/SD-CG/HFTN-CG
REM
REM
REM
REM
REM
REM ./C.cell (414f73aa93bd7a1190c7fd0f31ff2f98)
REM
REM compiler GCC version 9.2.1 20190827 (Red Hat 9.2.1-1)
REM options -cpp -mtune=generic -march=x86-64 -g -O0 -fpre-include=/usr/include/finclude/math-vector-fortran.h
REM seed -360641980 1256188356 1305380096 1299240064 871900377 582874917 1521817644 1286908919 -34095102 -1706918306 -670295647 1691052387 305267047 -2024032990 -1679340756 202712490 -1093469660 -155339771 765208672 1948178570 975806751 60205454 489166714 -851909996 -314466038 -337560032 508972660 -78440149 -953385671 915985767 -668024304 -434642814 -910057705
REM
CELL 1.54180   50.00000   50.00000   50.00000   90.00000   90.00000   90.00000
LATT -1
SFAC C  
C      1  0.4429030000000  0.5022440000000  0.4529750000000 1.0
C      1  0.5121760000000  0.5022440000000  0.4270400000000 1.0
C      1  0.5692730000000  0.5022440000000  0.4740650000000 1.0
C      1  0.5570970000000  0.5022440000000  0.5470250000000 1.0
C      1  0.4878240000000  0.5022440000000  0.5729600000000 1.0
C      1  0.4307270000000  0.5022440000000  0.5259350000000 1.0
C      1  0.4776580000000  0.5617010000000  0.4804660000000 1.0
C      1  0.5057460000000  0.5617010000000  0.4708850000000 1.0
C      1  0.5280880000000  0.5617010000000  0.4904190000000 1.0
C      1  0.5223410000000  0.5617010000000  0.5195340000000 1.0
C      1  0.4942540000000  0.5617010000000  0.5291150000000 1.0
C      1  0.4719120000000  0.5617010000000  0.5095820000000 1.0
C      1  0.5203250000000  0.5257280000000  0.4430560000000 1.0
C      1  0.5594780000000  0.5257280000000  0.4891300000000 1.0
C      1  0.5391530000000  0.5257280000000  0.5460740000000 1.0
C      1  0.4796750000000  0.5257280000000  0.5569440000000 1.0
C      1  0.4405220000000  0.5257280000000  0.5108700000000 1.0
C      1  0.4608470000000  0.5257280000000  0.4539260000000 1.0
C      1  0.5256820000000  0.4435880000000  0.5169970000000 1.0
C      1  0.4981210000000  0.4435880000000  0.5307400000000 1.0
C      1  0.4724390000000  0.4435880000000  0.5137420000000 1.0
C      1  0.4743180000000  0.4435890000000  0.4830020000000 1.0
C      1  0.5018790000000  0.4435890000000  0.4692600000000 1.0
C      1  0.5275610000000  0.4435890000000  0.4862570000000 1.0
C      1  0.4819170000000  0.5180270000000  0.4736720000000 1.0
C      1  0.5137590000000  0.5180270000000  0.4711760000000 1.0
C      1  0.5318420000000  0.5180270000000  0.4975040000000 1.0
C      1  0.5180830000000  0.5180270000000  0.5263280000000 1.0
C      1  0.4862410000000  0.5180270000000  0.5288240000000 1.0
C      1  0.4681580000000  0.5180270000000  0.5024960000000 1.0
C      1  0.4506150000000  0.4572590000000  0.4680710000000 1.0
C      1  0.5029590000000  0.4572590000000  0.4412670000000 1.0
C      1  0.5523440000000  0.4572590000000  0.4731960000000 1.0
C      1  0.5493850000000  0.4572590000000  0.5319290000000 1.0
C      1  0.4970410000000  0.4572590000000  0.5587330000000 1.0
C      1  0.4476560000000  0.4572590000000  0.5268040000000 1.0
C      1  0.4742190000000  0.4759940000000  0.5685390000000 1.0
C      1  0.4277530000000  0.4759940000000  0.5119430000000 1.0
C      1  0.4535340000000  0.4759940000000  0.4434040000000 1.0
C      1  0.5257810000000  0.4759940000000  0.4314610000000 1.0
C      1  0.5722470000000  0.4759940000000  0.4880570000000 1.0
C      1  0.5464660000000  0.4759940000000  0.5565960000000 1.0
C      1  0.5181540000000  0.4781910000000  0.5667430000000 1.0
C      1  0.4512760000000  0.4781910000000  0.5490940000000 1.0
C      1  0.4331220000000  0.4781910000000  0.4823510000000 1.0
C      1  0.4818460000000  0.4781910000000  0.4332570000000 1.0
C      1  0.5487240000000  0.4781910000000  0.4509060000000 1.0
C      1  0.5668780000000  0.4781910000000  0.5176490000000 1.0
C      1  0.4886250000000  0.5530380000000  0.5559550000000 1.0
C      1  0.4458540000000  0.5530380000000  0.5181270000000 1.0
C      1  0.4572290000000  0.5530390000000  0.4621720000000 1.0
C      1  0.5113750000000  0.5530390000000  0.4440450000000 1.0
C      1  0.5541460000000  0.5530390000000  0.4818730000000 1.0
C      1  0.5427710000000  0.5530380000000  0.5378280000000 1.0
C      1  0.5172690000000  0.4842290000000  0.4733320000000 1.0
C      1  0.5317300000000  0.4842290000000  0.5016220000000 1.0
C      1  0.5144600000000  0.4842290000000  0.5282900000000 1.0
C      1  0.4827310000000  0.4842290000000  0.5266680000000 1.0
C      1  0.4682700000000  0.4842290000000  0.4983780000000 1.0
C      1  0.4855400000000  0.4842290000000  0.4717100000000 1.0
END
