TITL C-2222978-775-12 -1.68323805677379e-07 125000 -354.101347838357 0 0 60 (C1) n - 1
REM
REM in /home/bkarasulu/CARBON/AIRSS/Generating-Clusters/EDIP-Nigel-Params/Higher-Symm/Box-15A/Only-C60/SD-CG/HFTN-CG
REM
REM
REM
REM
REM
REM ./C.cell (414f73aa93bd7a1190c7fd0f31ff2f98)
REM
REM compiler GCC version 9.2.1 20190827 (Red Hat 9.2.1-1)
REM options -cpp -mtune=generic -march=x86-64 -g -O0 -fpre-include=/usr/include/finclude/math-vector-fortran.h
REM seed -883593895 2117308228 1240962130 1613700718 -1721193791 1630467252 -1019638829 -1652398473 -1283392441 1019647705 1751422906 -668924339 1865398633 -1050647367 -1862503670 -321620953 2054164367 -510573163 1771141620 1684306537 -1702064451 -287474216 -1390345480 -1777787291 -365597885 831292967 -1837218632 -773798367 -1307748675 1173194351 2065392827 -755157629 -943697913
REM
CELL 1.54180   50.00000   50.00000   50.00000   90.00000   90.00000   90.00000
LATT -1
SFAC C  
C      1  0.5071360000000  0.5218470000000  0.5678630000000 1.0
C      1  0.5656210000000  0.5233450000000  0.5131460000000 1.0
C      1  0.5329350000000  0.5195050000000  0.4412590000000 1.0
C      1  0.4541120000000  0.5237540000000  0.4508150000000 1.0
C      1  0.4372410000000  0.5220070000000  0.5277570000000 1.0
C      1  0.4483010000000  0.4496770000000  0.5118650000000 1.0
C      1  0.4949670000000  0.4482300000000  0.5543290000000 1.0
C      1  0.5513950000000  0.4489810000000  0.5231110000000 1.0
C      1  0.5365210000000  0.4464280000000  0.4601270000000 1.0
C      1  0.4731260000000  0.4497480000000  0.4513910000000 1.0
C      1  0.4882960000000  0.4856990000000  0.5226880000000 1.0
C      1  0.5188520000000  0.4780130000000  0.5167300000000 1.0
C      1  0.5235150000000  0.4893240000000  0.4879260000000 1.0
C      1  0.4963230000000  0.4795800000000  0.4728260000000 1.0
C      1  0.4723930000000  0.4895940000000  0.4914210000000 1.0
C      1  0.5639370000000  0.5465710000000  0.5282710000000 1.0
C      1  0.5459420000000  0.5430700000000  0.4481810000000 1.0
C      1  0.4643540000000  0.5469290000000  0.4394810000000 1.0
C      1  0.4311450000000  0.5454280000000  0.5142610000000 1.0
C      1  0.4920430000000  0.5450640000000  0.5697770000000 1.0
C      1  0.5136040000000  0.4701830000000  0.5639320000000 1.0
C      1  0.5655600000000  0.4708130000000  0.5076280000000 1.0
C      1  0.5280560000000  0.4670180000000  0.4405280000000 1.0
C      1  0.4521340000000  0.4710970000000  0.4563890000000 1.0
C      1  0.4430870000000  0.4706370000000  0.5328280000000 1.0
C      1  0.4610140000000  0.5597290000000  0.4637890000000 1.0
C      1  0.4532960000000  0.5573900000000  0.5257670000000 1.0
C      1  0.5094880000000  0.5573150000000  0.5520800000000 1.0
C      1  0.5524990000000  0.5593020000000  0.5065080000000 1.0
C      1  0.5212570000000  0.5549070000000  0.4525990000000 1.0
C      1  0.4679050000000  0.4585300000000  0.5593950000000 1.0
C      1  0.5475220000000  0.4613410000000  0.5497450000000 1.0
C      1  0.5608660000000  0.4569220000000  0.4721480000000 1.0
C      1  0.4925040000000  0.4628320000000  0.4323560000000 1.0
C      1  0.4341320000000  0.4585160000000  0.4878090000000 1.0
C      1  0.4614460000000  0.4968300000000  0.4431400000000 1.0
C      1  0.4324650000000  0.4950040000000  0.5186890000000 1.0
C      1  0.4968920000000  0.4949120000000  0.5695210000000 1.0
C      1  0.5633380000000  0.4965420000000  0.5235220000000 1.0
C      1  0.5432240000000  0.4925410000000  0.4454920000000 1.0
C      1  0.4774970000000  0.5185710000000  0.4948010000000 1.0
C      1  0.4903410000000  0.5162690000000  0.5218910000000 1.0
C      1  0.5176660000000  0.5245470000000  0.5182410000000 1.0
C      1  0.5216030000000  0.5183370000000  0.4906010000000 1.0
C      1  0.4980900000000  0.5256770000000  0.4764120000000 1.0
C      1  0.4406200000000  0.4875030000000  0.4904980000000 1.0
C      1  0.4740430000000  0.4868680000000  0.5510520000000 1.0
C      1  0.5384430000000  0.4881080000000  0.5386470000000 1.0
C      1  0.5516650000000  0.4855550000000  0.4738600000000 1.0
C      1  0.4903160000000  0.4900180000000  0.4440160000000 1.0
C      1  0.5242310000000  0.4401000000000  0.5108700000000 1.0
C      1  0.5171300000000  0.4415000000000  0.4813740000000 1.0
C      1  0.4874510000000  0.4419660000000  0.4781360000000 1.0
C      1  0.4765170000000  0.4459560000000  0.5060450000000 1.0
C      1  0.4976220000000  0.4409360000000  0.5257500000000 1.0
C      1  0.5244400000000  0.5658610000000  0.5033850000000 1.0
C      1  0.5109120000000  0.5678660000000  0.4768950000000 1.0
C      1  0.4816470000000  0.5663550000000  0.4830710000000 1.0
C      1  0.4772970000000  0.5666670000000  0.5123950000000 1.0
C      1  0.5040240000000  0.5661850000000  0.5249690000000 1.0
END
