TITL C-2222975-3889-21 -2.00342721613469e-06 125000 -358.335818542672 0 0 60 (C1) n - 1
REM
REM in /home/bkarasulu/CARBON/AIRSS/Generating-Clusters/EDIP-Nigel-Params/Higher-Symm/Box-15A/Only-C60/SD-CG/HFTN-CG
REM
REM
REM
REM
REM
REM ./C.cell (414f73aa93bd7a1190c7fd0f31ff2f98)
REM
REM compiler GCC version 9.2.1 20190827 (Red Hat 9.2.1-1)
REM options -cpp -mtune=generic -march=x86-64 -g -O0 -fpre-include=/usr/include/finclude/math-vector-fortran.h
REM seed -1256487436 47109322 -183429203 1533440455 -219288009 2142196712 -1052529413 1009902905 -2045536879 -1334685007 442689484 -1144055861 1261340653 -403566980 -1549497011 1181461399 714537264 1116875983 -2146893140 37349302 1355376603 -1040896090 -605890664 1005095354 -293364193 -428723043 1272631656 670025685 -1480419356 -1037900841 -1156758032 -768292931 -880474908
REM
CELL 1.54180   50.00000   50.00000   50.00000   90.00000   90.00000   90.00000
LATT -1
SFAC C  
C      1  0.4410670000000  0.5253320000000  0.5256060000000 1.0
C      1  0.4443880000000  0.4769840000000  0.4770490000000 1.0
C      1  0.5593650000000  0.5252410000000  0.5230620000000 1.0
C      1  0.5597570000000  0.4756340000000  0.4756310000000 1.0
C      1  0.4404140000000  0.4740320000000  0.5237280000000 1.0
C      1  0.4408300000000  0.5244650000000  0.4810580000000 1.0
C      1  0.5598760000000  0.4752880000000  0.5227370000000 1.0
C      1  0.5611720000000  0.5253490000000  0.4785330000000 1.0
C      1  0.5293830000000  0.4834690000000  0.5137800000000 1.0
C      1  0.5315440000000  0.5161830000000  0.4828580000000 1.0
C      1  0.4715830000000  0.4833810000000  0.5155580000000 1.0
C      1  0.4706910000000  0.5167020000000  0.4879100000000 1.0
C      1  0.5295260000000  0.5157200000000  0.5131790000000 1.0
C      1  0.5311010000000  0.4846790000000  0.4824270000000 1.0
C      1  0.4717450000000  0.5154260000000  0.5203580000000 1.0
C      1  0.4725620000000  0.4851890000000  0.4845480000000 1.0
C      1  0.5531840000000  0.4464040000000  0.5145280000000 1.0
C      1  0.5538630000000  0.5543510000000  0.4854150000000 1.0
C      1  0.4478550000000  0.4461100000000  0.5137630000000 1.0
C      1  0.4470760000000  0.5539680000000  0.4860910000000 1.0
C      1  0.5520300000000  0.5537770000000  0.5158590000000 1.0
C      1  0.5534450000000  0.4465100000000  0.4838360000000 1.0
C      1  0.4489940000000  0.5534650000000  0.5163950000000 1.0
C      1  0.4475940000000  0.4475870000000  0.4829900000000 1.0
C      1  0.4850620000000  0.4869820000000  0.4422410000000 1.0
C      1  0.4769480000000  0.5246700000000  0.5631230000000 1.0
C      1  0.5136030000000  0.4878130000000  0.4419130000000 1.0
C      1  0.5025470000000  0.5112510000000  0.5598940000000 1.0
C      1  0.4796940000000  0.5131450000000  0.4294450000000 1.0
C      1  0.4864070000000  0.4672840000000  0.5775060000000 1.0
C      1  0.5180220000000  0.5138040000000  0.4296470000000 1.0
C      1  0.5073700000000  0.4837320000000  0.5689590000000 1.0
C      1  0.5255590000000  0.4484690000000  0.5303500000000 1.0
C      1  0.5274440000000  0.5514750000000  0.4670000000000 1.0
C      1  0.4747670000000  0.4467930000000  0.5297290000000 1.0
C      1  0.4736230000000  0.5502430000000  0.4676760000000 1.0
C      1  0.5236870000000  0.5502120000000  0.5302430000000 1.0
C      1  0.5258480000000  0.4477240000000  0.4681650000000 1.0
C      1  0.4766830000000  0.5585740000000  0.5270230000000 1.0
C      1  0.4741430000000  0.4447060000000  0.4681380000000 1.0
C      1  0.4389080000000  0.5165940000000  0.4522210000000 1.0
C      1  0.4469570000000  0.4813780000000  0.5520770000000 1.0
C      1  0.5617070000000  0.5169230000000  0.4497980000000 1.0
C      1  0.5538910000000  0.4848420000000  0.5506810000000 1.0
C      1  0.4411930000000  0.4868700000000  0.4496690000000 1.0
C      1  0.4508620000000  0.5121460000000  0.5529870000000 1.0
C      1  0.5615040000000  0.4865620000000  0.4480290000000 1.0
C      1  0.5523190000000  0.5159540000000  0.5510810000000 1.0
C      1  0.4630040000000  0.5321090000000  0.4432570000000 1.0
C      1  0.4702380000000  0.4638550000000  0.5551010000000 1.0
C      1  0.5365410000000  0.5321620000000  0.4420780000000 1.0
C      1  0.5291370000000  0.4691150000000  0.5554800000000 1.0
C      1  0.4701300000000  0.4621490000000  0.4443260000000 1.0
C      1  0.4778680000000  0.5514660000000  0.5544270000000 1.0
C      1  0.5309490000000  0.4650010000000  0.4438250000000 1.0
C      1  0.5251590000000  0.5292000000000  0.5546500000000 1.0
C      1  0.5008010000000  0.5476920000000  0.4821660000000 1.0
C      1  0.4986420000000  0.4555900000000  0.4842680000000 1.0
C      1  0.4995320000000  0.5480680000000  0.5118770000000 1.0
C      1  0.5002060000000  0.4502020000000  0.5140500000000 1.0
END
