TITL C-2222980-4410-18 -1.95148470373918e-05 125000 -355.685374580604 0 0 60 (C1) n - 1
REM
REM in /home/bkarasulu/CARBON/AIRSS/Generating-Clusters/EDIP-Nigel-Params/Higher-Symm/Box-15A/Only-C60/SD-CG/HFTN-CG
REM
REM
REM
REM
REM
REM ./C.cell (414f73aa93bd7a1190c7fd0f31ff2f98)
REM
REM compiler GCC version 9.2.1 20190827 (Red Hat 9.2.1-1)
REM options -cpp -mtune=generic -march=x86-64 -g -O0 -fpre-include=/usr/include/finclude/math-vector-fortran.h
REM seed -1913415601 -673388169 -284442461 -499326446 -557142078 -389432590 -1823576935 1229757077 141313524 968439709 1483506177 -446497812 -1490052796 -1081718366 -847171048 1369551512 -1962150454 -1488519003 1594552413 -385827901 -1398432893 -1421999100 174976502 249253599 1700697483 877921537 -1749878029 1890672702 -1824025144 -905047808 -1004942064 -645874095 2111521999
REM
CELL 1.54180   50.00000   50.00000   50.00000   90.00000   90.00000   90.00000
LATT -1
SFAC C  
C      1  0.4774820000000  0.4848050000000  0.5817420000000 1.0
C      1  0.4561360000000  0.5486420000000  0.4980530000000 1.0
C      1  0.5580550000000  0.4816030000000  0.4685570000000 1.0
C      1  0.5084080000000  0.5463880000000  0.4385740000000 1.0
C      1  0.5039910000000  0.4786400000000  0.4301570000000 1.0
C      1  0.5193430000000  0.5300420000000  0.5525000000000 1.0
C      1  0.4623080000000  0.4336480000000  0.5155220000000 1.0
C      1  0.5239510000000  0.5615470000000  0.4991680000000 1.0
C      1  0.5301290000000  0.4392430000000  0.4852040000000 1.0
C      1  0.5658220000000  0.5129210000000  0.5285820000000 1.0
C      1  0.4468580000000  0.4865400000000  0.5320150000000 1.0
C      1  0.4377280000000  0.5045380000000  0.4626560000000 1.0
C      1  0.5009150000000  0.4756070000000  0.5702580000000 1.0
C      1  0.5096900000000  0.5696420000000  0.4765970000000 1.0
C      1  0.4505590000000  0.4802340000000  0.4674020000000 1.0
C      1  0.5281200000000  0.5295760000000  0.4490620000000 1.0
C      1  0.4822290000000  0.4932270000000  0.4209920000000 1.0
C      1  0.4970730000000  0.5410260000000  0.5653910000000 1.0
C      1  0.5248070000000  0.4372490000000  0.5129690000000 1.0
C      1  0.4724410000000  0.5406420000000  0.5193350000000 1.0
C      1  0.4641890000000  0.4314180000000  0.4875570000000 1.0
C      1  0.4329950000000  0.5106760000000  0.5300220000000 1.0
C      1  0.5548050000000  0.4876020000000  0.5328970000000 1.0
C      1  0.5741990000000  0.5042810000000  0.4654980000000 1.0
C      1  0.4867060000000  0.4287800000000  0.4722050000000 1.0
C      1  0.4360730000000  0.4656210000000  0.4870050000000 1.0
C      1  0.4750130000000  0.5187170000000  0.4172140000000 1.0
C      1  0.4895850000000  0.5614350000000  0.5271490000000 1.0
C      1  0.5026520000000  0.4450750000000  0.5295280000000 1.0
C      1  0.4841520000000  0.5725820000000  0.4683580000000 1.0
C      1  0.4221660000000  0.5215360000000  0.5076970000000 1.0
C      1  0.5669830000000  0.4682740000000  0.5166220000000 1.0
C      1  0.5760150000000  0.5239730000000  0.4839280000000 1.0
C      1  0.4757300000000  0.5332520000000  0.5798220000000 1.0
C      1  0.5239100000000  0.4884550000000  0.5790640000000 1.0
C      1  0.5356930000000  0.5098300000000  0.4308250000000 1.0
C      1  0.5095930000000  0.4429740000000  0.4653680000000 1.0
C      1  0.5676030000000  0.4654630000000  0.4895290000000 1.0
C      1  0.5285250000000  0.4863930000000  0.4195200000000 1.0
C      1  0.5140180000000  0.5725580000000  0.5228160000000 1.0
C      1  0.4820540000000  0.4266300000000  0.5334460000000 1.0
C      1  0.4599350000000  0.5638610000000  0.4760430000000 1.0
C      1  0.5607720000000  0.5293290000000  0.5065870000000 1.0
C      1  0.4350240000000  0.4682790000000  0.5143110000000 1.0
C      1  0.4244190000000  0.5193260000000  0.4808840000000 1.0
C      1  0.5324770000000  0.5121910000000  0.5694610000000 1.0
C      1  0.4669710000000  0.5089310000000  0.5865760000000 1.0
C      1  0.4860280000000  0.5421130000000  0.4240660000000 1.0
C      1  0.4792310000000  0.4808500000000  0.4743050000000 1.0
C      1  0.4763500000000  0.4870210000000  0.5246450000000 1.0
C      1  0.5289240000000  0.4880400000000  0.4743400000000 1.0
C      1  0.5252980000000  0.4889950000000  0.5274320000000 1.0
C      1  0.4865700000000  0.5151360000000  0.5173170000000 1.0
C      1  0.5263700000000  0.4743340000000  0.5013310000000 1.0
C      1  0.5010130000000  0.4730520000000  0.5404820000000 1.0
C      1  0.5237170000000  0.5178880000000  0.4754510000000 1.0
C      1  0.4763210000000  0.4662770000000  0.5005790000000 1.0
C      1  0.5049390000000  0.4724600000000  0.4594810000000 1.0
C      1  0.5313680000000  0.5324520000000  0.5011710000000 1.0
C      1  0.5155700000000  0.5181780000000  0.5247340000000 1.0
END
