TITL C-2205182-3563-4 2.80294867753e-05 3375 -363.537210436797 0 0 60 (C1) n - 1
REM
REM in /home/bkarasulu/CARBON/AIRSS/Generating-Clusters/EDIP-Nigel-Params/Higher-Symm/Box-15A/Only-C60/SD-CG/HFTN-CG
REM
REM
REM
REM
REM
REM ./C.cell (a2850807a9bf4ad07a5b6933b78d9264)
REM
REM compiler GCC version 9.2.1 20190827 (Red Hat 9.2.1-1)
REM options -cpp -mtune=generic -march=x86-64 -g -O0 -fpre-include=/usr/include/finclude/math-vector-fortran.h
REM seed 323990706 771402558 -1281774819 655329189 -971378985 -846140543 -707988676 2123953182 1986200835 -1656552793 -616900702 -2124681536 -289411430 595024607 106238087 1010307784 1360608141 -1223408890 1076774097 1255568206 -1790743986 -1922050853 -299865645 -1752727905 -458650649 1460520570 1241959575 -2092832749 1180806438 -945369426 -427161039 -805831569 1016325197
REM
CELL 1.54180   15.00000   15.00000   15.00000   90.00000   90.00000   90.00000
LATT -1
SFAC C  
C      1  0.3171530000000  0.6171930000000  0.4927240000000 1.0
C      1  0.6117860000000  0.4647560000000  0.2941090000000 1.0
C      1  0.4495940000000  0.2572960000000  0.6211000000000 1.0
C      1  0.2932730000000  0.3919650000000  0.5201350000000 1.0
C      1  0.7319840000000  0.6336770000000  0.5117540000000 1.0
C      1  0.6474880000000  0.4139600000000  0.4415570000000 1.0
C      1  0.5735060000000  0.5289080000000  0.6830740000000 1.0
C      1  0.4219100000000  0.4199890000000  0.6824520000000 1.0
C      1  0.4154360000000  0.5665830000000  0.3406100000000 1.0
C      1  0.4616880000000  0.7142690000000  0.3732450000000 1.0
C      1  0.5758510000000  0.3081610000000  0.4650830000000 1.0
C      1  0.5400190000000  0.6638520000000  0.5892700000000 1.0
C      1  0.6932170000000  0.6141860000000  0.4266110000000 1.0
C      1  0.4219790000000  0.4637620000000  0.3373600000000 1.0
C      1  0.5260300000000  0.2291480000000  0.6692740000000 1.0
C      1  0.6703490000000  0.4086320000000  0.6043240000000 1.0
C      1  0.2655330000000  0.5988490000000  0.5670990000000 1.0
C      1  0.2611790000000  0.4152710000000  0.4366210000000 1.0
C      1  0.3979030000000  0.5114630000000  0.6488460000000 1.0
C      1  0.6247210000000  0.4426750000000  0.6891570000000 1.0
C      1  0.6179680000000  0.5579590000000  0.2877630000000 1.0
C      1  0.5473230000000  0.7562710000000  0.3749350000000 1.0
C      1  0.4965790000000  0.3328350000000  0.4116080000000 1.0
C      1  0.4500200000000  0.6957760000000  0.5630890000000 1.0
C      1  0.5480570000000  0.6039060000000  0.2510330000000 1.0
C      1  0.5919040000000  0.2191770000000  0.6070030000000 1.0
C      1  0.2336430000000  0.5245180000000  0.6053630000000 1.0
C      1  0.5748420000000  0.3812930000000  0.7418140000000 1.0
C      1  0.4231050000000  0.5697890000000  0.7193270000000 1.0
C      1  0.4582040000000  0.4672900000000  0.2408760000000 1.0
C      1  0.5569290000000  0.7702600000000  0.4697940000000 1.0
C      1  0.4205780000000  0.2984060000000  0.4649710000000 1.0
C      1  0.4617000000000  0.7767460000000  0.5062360000000 1.0
C      1  0.2555630000000  0.4937160000000  0.3941080000000 1.0
C      1  0.7370960000000  0.5343570000000  0.4023280000000 1.0
C      1  0.7361900000000  0.4732930000000  0.5573940000000 1.0
C      1  0.4593320000000  0.5725650000000  0.2463460000000 1.0
C      1  0.4569760000000  0.2266600000000  0.5264650000000 1.0
C      1  0.6939280000000  0.5629410000000  0.5646720000000 1.0
C      1  0.4921070000000  0.4278260000000  0.7545220000000 1.0
C      1  0.5021870000000  0.5276510000000  0.7518740000000 1.0
C      1  0.5450630000000  0.4313830000000  0.2383760000000 1.0
C      1  0.4052560000000  0.7679050000000  0.4286390000000 1.0
C      1  0.5557470000000  0.2286050000000  0.5206630000000 1.0
C      1  0.5952440000000  0.6880540000000  0.5105250000000 1.0
C      1  0.7358670000000  0.4565080000000  0.4564880000000 1.0
C      1  0.2883160000000  0.5745130000000  0.4156120000000 1.0
C      1  0.2525660000000  0.4384990000000  0.5890430000000 1.0
C      1  0.6015210000000  0.4166010000000  0.5317340000000 1.0
C      1  0.4160850000000  0.6178880000000  0.5055280000000 1.0
C      1  0.3926420000000  0.3752770000000  0.5249470000000 1.0
C      1  0.4464860000000  0.4545470000000  0.4972890000000 1.0
C      1  0.4883190000000  0.4338190000000  0.4068130000000 1.0
C      1  0.5925050000000  0.6037730000000  0.4449580000000 1.0
C      1  0.4464180000000  0.5331700000000  0.5606080000000 1.0
C      1  0.6040410000000  0.5325470000000  0.5249400000000 1.0
C      1  0.5849450000000  0.4736870000000  0.3899190000000 1.0
C      1  0.5399510000000  0.5635060000000  0.5932860000000 1.0
C      1  0.4268390000000  0.3515240000000  0.6138970000000 1.0
C      1  0.4673560000000  0.6203670000000  0.4108070000000 1.0
END
