TITL C-2222974-2064-1 -1.12098017811581e-06 125000 -371.475319225172 0 0 60 (C1) n - 1
REM
REM in /home/bkarasulu/CARBON/AIRSS/Generating-Clusters/EDIP-Nigel-Params/Higher-Symm/Box-15A/Only-C60/SD-CG/HFTN-CG
REM
REM
REM
REM
REM
REM ./C.cell (414f73aa93bd7a1190c7fd0f31ff2f98)
REM
REM compiler GCC version 9.2.1 20190827 (Red Hat 9.2.1-1)
REM options -cpp -mtune=generic -march=x86-64 -g -O0 -fpre-include=/usr/include/finclude/math-vector-fortran.h
REM seed 1809479466 387784 1155988291 1879041515 -658311182 -395321540 -1215026729 -249307137 69504098 -1007985310 2119258203 1585067295 -1725959827 -977378139 1737465240 384834843 -2125104896 706720282 -1116727712 748177103 1343138468 2054507124 393193139 -1841459058 -1277867548 -150061566 1791528269 -1316729599 588981427 -968015032 -222216233 -2132556367 1480102136
REM
CELL 1.54180   50.00000   50.00000   50.00000   90.00000   90.00000   90.00000
LATT -1
SFAC C  
C      1  0.5473360000000  0.4669140000000  0.5447410000000 1.0
C      1  0.4540820000000  0.5314410000000  0.4565030000000 1.0
C      1  0.5315930000000  0.5677570000000  0.4897340000000 1.0
C      1  0.4653220000000  0.4308530000000  0.5103840000000 1.0
C      1  0.5617010000000  0.5279100000000  0.4743740000000 1.0
C      1  0.4369420000000  0.4732560000000  0.5262150000000 1.0
C      1  0.4934550000000  0.5034750000000  0.4432650000000 1.0
C      1  0.5073930000000  0.4948300000000  0.5574360000000 1.0
C      1  0.4916110000000  0.5376680000000  0.5116580000000 1.0
C      1  0.5115810000000  0.4647040000000  0.4881710000000 1.0
C      1  0.5099760000000  0.4377630000000  0.5578220000000 1.0
C      1  0.4858060000000  0.5601450000000  0.4354390000000 1.0
C      1  0.4566370000000  0.4589670000000  0.5090980000000 1.0
C      1  0.5407150000000  0.5402910000000  0.4911230000000 1.0
C      1  0.4861110000000  0.4268960000000  0.4888640000000 1.0
C      1  0.5148470000000  0.5751380000000  0.5133880000000 1.0
C      1  0.5212510000000  0.5076880000000  0.4334030000000 1.0
C      1  0.4776510000000  0.4912490000000  0.5633930000000 1.0
C      1  0.5252680000000  0.4491230000000  0.5327820000000 1.0
C      1  0.4736960000000  0.5532090000000  0.4647910000000 1.0
C      1  0.4696600000000  0.5192380000000  0.4327100000000 1.0
C      1  0.5291220000000  0.4762060000000  0.5683020000000 1.0
C      1  0.4720550000000  0.4989180000000  0.4877300000000 1.0
C      1  0.5330040000000  0.5034810000000  0.5147040000000 1.0
C      1  0.4476110000000  0.5126470000000  0.4784330000000 1.0
C      1  0.5562910000000  0.4878380000000  0.5249920000000 1.0
C      1  0.5584080000000  0.5368660000000  0.4477810000000 1.0
C      1  0.4377340000000  0.4631400000000  0.5526740000000 1.0
C      1  0.5175820000000  0.4531970000000  0.5806110000000 1.0
C      1  0.4786610000000  0.5406370000000  0.4159160000000 1.0
C      1  0.4831190000000  0.5084640000000  0.5168780000000 1.0
C      1  0.5200890000000  0.4937950000000  0.4825710000000 1.0
C      1  0.5657150000000  0.4770840000000  0.4986830000000 1.0
C      1  0.4351520000000  0.5243340000000  0.5027000000000 1.0
C      1  0.4880690000000  0.5809630000000  0.5043970000000 1.0
C      1  0.5126050000000  0.4197280000000  0.4968330000000 1.0
C      1  0.5393860000000  0.4568600000000  0.4637480000000 1.0
C      1  0.4634500000000  0.5432830000000  0.5367430000000 1.0
C      1  0.5065660000000  0.4660940000000  0.5179790000000 1.0
C      1  0.4985650000000  0.5403690000000  0.4796570000000 1.0
C      1  0.5524940000000  0.4500110000000  0.4894750000000 1.0
C      1  0.4496630000000  0.5503850000000  0.5116050000000 1.0
C      1  0.4660390000000  0.5673670000000  0.4919530000000 1.0
C      1  0.5348030000000  0.4330290000000  0.5087250000000 1.0
C      1  0.5635400000000  0.4974050000000  0.4738330000000 1.0
C      1  0.4372930000000  0.5040150000000  0.5271800000000 1.0
C      1  0.4653940000000  0.4702510000000  0.4845170000000 1.0
C      1  0.5381350000000  0.5323320000000  0.5179970000000 1.0
C      1  0.5319760000000  0.5348440000000  0.4376410000000 1.0
C      1  0.4655380000000  0.4639340000000  0.5588870000000 1.0
C      1  0.4631930000000  0.5127650000000  0.5397280000000 1.0
C      1  0.5389900000000  0.4871840000000  0.4594930000000 1.0
C      1  0.5074230000000  0.4936780000000  0.5275570000000 1.0
C      1  0.4962090000000  0.5092700000000  0.4722370000000 1.0
C      1  0.4804760000000  0.4378870000000  0.5548270000000 1.0
C      1  0.5142110000000  0.5588610000000  0.4426610000000 1.0
C      1  0.4702200000000  0.4194890000000  0.5357690000000 1.0
C      1  0.5159590000000  0.5731380000000  0.4670820000000 1.0
C      1  0.5154540000000  0.5482600000000  0.5275820000000 1.0
C      1  0.4871700000000  0.4534780000000  0.4746260000000 1.0
END
