TITL C-2330497-5381-29 -7.26809188840181e-06 125000 -354.871084323974 0 0 60 (C3) n - 1
REM
REM in /home/bkarasulu/CARBON/AIRSS/Generating-Clusters/EDIP-Nigel-Params/Higher-Symm/Box-15A/Only-C60/SD-CG/HFTN-CG
REM
REM
REM
REM
REM
REM ./C.cell (414f73aa93bd7a1190c7fd0f31ff2f98)
REM
REM compiler GCC version 9.2.1 20190827 (Red Hat 9.2.1-1)
REM options -cpp -mtune=generic -march=x86-64 -g -O0 -fpre-include=/usr/include/finclude/math-vector-fortran.h
REM seed 381673329 204277440 -1322169694 778334346 470146400 -1007917832 -138280577 -873696312 -1195878630 989495946 -789850861 966347755 900463400 -417077344 -1508665747 -179358498 822176186 206975839 962820648 -426713518 -1307040274 -1831575710 -913158218 -104767576 327150509 133599146 -859794645 1905886167 1339632635 2034258009 -648185645 -1608047776 1712420319
REM
CELL 1.54180   50.00000   50.00000   50.00000   90.00000   90.00000   90.00000
LATT -1
SFAC C  
C      1  0.5441870000000  0.4687670000000  0.4495280000000 1.0
C      1  0.4516410000000  0.4776510000000  0.4486450000000 1.0
C      1  0.5056090000000  0.5533600000000  0.4490420000000 1.0
C      1  0.5691900000000  0.5193910000000  0.5335550000000 1.0
C      1  0.4816910000000  0.4301860000000  0.5328610000000 1.0
C      1  0.4481910000000  0.5505670000000  0.5323710000000 1.0
C      1  0.5741210000000  0.5336130000000  0.4916620000000 1.0
C      1  0.4921850000000  0.4190540000000  0.4910570000000 1.0
C      1  0.4339470000000  0.5472940000000  0.4903230000000 1.0
C      1  0.5069510000000  0.5553530000000  0.5433520000000 1.0
C      1  0.5437930000000  0.4660450000000  0.5438280000000 1.0
C      1  0.4480320000000  0.4787910000000  0.5429090000000 1.0
C      1  0.5638550000000  0.4696930000000  0.5214830000000 1.0
C      1  0.4415060000000  0.4597260000000  0.5203460000000 1.0
C      1  0.4940510000000  0.5706710000000  0.5206790000000 1.0
C      1  0.4866620000000  0.5398550000000  0.5558660000000 1.0
C      1  0.5403220000000  0.4912910000000  0.5564410000000 1.0
C      1  0.4714350000000  0.4690990000000  0.5558260000000 1.0
C      1  0.5570300000000  0.4568760000000  0.4951540000000 1.0
C      1  0.4342230000000  0.4722020000000  0.4939770000000 1.0
C      1  0.5089010000000  0.5708980000000  0.4945360000000 1.0
C      1  0.4302040000000  0.5348740000000  0.5156210000000 1.0
C      1  0.5648490000000  0.5429130000000  0.5168750000000 1.0
C      1  0.5044860000000  0.4222830000000  0.5164830000000 1.0
C      1  0.4672500000000  0.4462510000000  0.5107700000000 1.0
C      1  0.4696610000000  0.5551720000000  0.5106340000000 1.0
C      1  0.5627790000000  0.4986250000000  0.5115920000000 1.0
C      1  0.5302800000000  0.5387760000000  0.5325030000000 1.0
C      1  0.5179440000000  0.4541960000000  0.5325100000000 1.0
C      1  0.4508660000000  0.5071690000000  0.5318020000000 1.0
C      1  0.4601290000000  0.5311500000000  0.4521890000000 1.0
C      1  0.5476390000000  0.5192390000000  0.4530300000000 1.0
C      1  0.4935680000000  0.4494050000000  0.4526230000000 1.0
C      1  0.4910140000000  0.5687530000000  0.4705990000000 1.0
C      1  0.5644810000000  0.4735810000000  0.4714280000000 1.0
C      1  0.4453290000000  0.4575390000000  0.4703310000000 1.0
C      1  0.5046630000000  0.4781590000000  0.5208200000000 1.0
C      1  0.4784350000000  0.5067580000000  0.5205320000000 1.0
C      1  0.5163160000000  0.5151740000000  0.5208760000000 1.0
C      1  0.4757110000000  0.4354960000000  0.4729620000000 1.0
C      1  0.4566990000000  0.5534470000000  0.4726120000000 1.0
C      1  0.5683490000000  0.5109390000000  0.4737240000000 1.0
C      1  0.4920310000000  0.4499440000000  0.5525810000000 1.0
C      1  0.4598290000000  0.5316150000000  0.5521590000000 1.0
C      1  0.5466560000000  0.5186700000000  0.5529950000000 1.0
C      1  0.5237790000000  0.4475980000000  0.4606730000000 1.0
C      1  0.4433390000000  0.5058420000000  0.4598310000000 1.0
C      1  0.5339990000000  0.5463870000000  0.4606250000000 1.0
C      1  0.5205200000000  0.4876100000000  0.4812030000000 1.0
C      1  0.4793020000000  0.4885370000000  0.4808140000000 1.0
C      1  0.5007150000000  0.5237700000000  0.4809640000000 1.0
C      1  0.5233780000000  0.5450290000000  0.4893000000000 1.0
C      1  0.5274720000000  0.4573040000000  0.4894660000000 1.0
C      1  0.4494560000000  0.4976190000000  0.4886740000000 1.0
C      1  0.4862720000000  0.4680300000000  0.5010050000000 1.0
C      1  0.4791610000000  0.5278670000000  0.5008510000000 1.0
C      1  0.5345360000000  0.5041080000000  0.5014070000000 1.0
C      1  0.4819780000000  0.4773360000000  0.4510240000000 1.0
C      1  0.4901350000000  0.5272310000000  0.4510280000000 1.0
C      1  0.5292650000000  0.4952200000000  0.4514430000000 1.0
END
