TITL C-2330501-7387-30 -1.17374397810225e-05 125000 -354.044657032153 0 0 60 (C1) n - 1
REM
REM in /home/bkarasulu/CARBON/AIRSS/Generating-Clusters/EDIP-Nigel-Params/Higher-Symm/Box-15A/Only-C60/SD-CG/HFTN-CG
REM
REM
REM
REM
REM
REM ./C.cell (414f73aa93bd7a1190c7fd0f31ff2f98)
REM
REM compiler GCC version 9.2.1 20190827 (Red Hat 9.2.1-1)
REM options -cpp -mtune=generic -march=x86-64 -g -O0 -fpre-include=/usr/include/finclude/math-vector-fortran.h
REM seed -2126700606 168171144 1727479930 1496120789 -2127717603 1687979706 617060959 372462237 849756096 -544425054 791846457 -1252123990 -311939165 77091029 1820968263 711090498 777593330 232519974 2127913942 502737456 -495899694 -1707351159 -1170883854 299261197 -1995010882 -1034385707 -1800982330 -73682455 2119617311 -568842130 55175944 -519103823 -807065285
REM
CELL 1.54180   50.00000   50.00000   50.00000   90.00000   90.00000   90.00000
LATT -1
SFAC C  
C      1  0.4757600000000  0.5251540000000  0.4243620000000 1.0
C      1  0.4305980000000  0.5285350000000  0.5002520000000 1.0
C      1  0.4882790000000  0.5279040000000  0.5664210000000 1.0
C      1  0.5615990000000  0.5252070000000  0.5433500000000 1.0
C      1  0.5496950000000  0.5318820000000  0.4624770000000 1.0
C      1  0.4266950000000  0.5064150000000  0.4825350000000 1.0
C      1  0.4688540000000  0.5090050000000  0.5735780000000 1.0
C      1  0.5639740000000  0.5042890000000  0.5623640000000 1.0
C      1  0.5659650000000  0.5126640000000  0.4757570000000 1.0
C      1  0.4961380000000  0.5062140000000  0.4182640000000 1.0
C      1  0.4724190000000  0.4425050000000  0.5310740000000 1.0
C      1  0.5232720000000  0.4416260000000  0.5327520000000 1.0
C      1  0.5396350000000  0.4487060000000  0.4869160000000 1.0
C      1  0.5011400000000  0.4488300000000  0.4573750000000 1.0
C      1  0.4597900000000  0.4496370000000  0.4833160000000 1.0
C      1  0.5518360000000  0.5520560000000  0.5523820000000 1.0
C      1  0.5374720000000  0.5520730000000  0.4802010000000 1.0
C      1  0.4869360000000  0.5518460000000  0.4295780000000 1.0
C      1  0.4408230000000  0.5528930000000  0.4860960000000 1.0
C      1  0.4851020000000  0.5493210000000  0.5471210000000 1.0
C      1  0.4692580000000  0.5668630000000  0.4492700000000 1.0
C      1  0.4640320000000  0.5640630000000  0.5012860000000 1.0
C      1  0.5088400000000  0.5655060000000  0.5489040000000 1.0
C      1  0.5412690000000  0.5659160000000  0.5286290000000 1.0
C      1  0.5125620000000  0.5615400000000  0.4678040000000 1.0
C      1  0.4728670000000  0.4874790000000  0.5563160000000 1.0
C      1  0.5467920000000  0.4844780000000  0.5522110000000 1.0
C      1  0.5466680000000  0.4921000000000  0.4811670000000 1.0
C      1  0.4957540000000  0.4897940000000  0.4415290000000 1.0
C      1  0.4521650000000  0.4935400000000  0.4843760000000 1.0
C      1  0.5186950000000  0.4928760000000  0.5527430000000 1.0
C      1  0.5209500000000  0.5016180000000  0.4963800000000 1.0
C      1  0.5018120000000  0.5047840000000  0.4693960000000 1.0
C      1  0.4736540000000  0.5128510000000  0.4756240000000 1.0
C      1  0.4777190000000  0.4961930000000  0.5279070000000 1.0
C      1  0.4680490000000  0.4809590000000  0.4454750000000 1.0
C      1  0.4538160000000  0.4850810000000  0.5127360000000 1.0
C      1  0.4978370000000  0.4728180000000  0.5597900000000 1.0
C      1  0.5488250000000  0.4812060000000  0.5236160000000 1.0
C      1  0.5369950000000  0.4834600000000  0.4548470000000 1.0
C      1  0.4977260000000  0.4483020000000  0.5438230000000 1.0
C      1  0.5407070000000  0.4549370000000  0.5146940000000 1.0
C      1  0.5281920000000  0.4566250000000  0.4620610000000 1.0
C      1  0.4735060000000  0.4557200000000  0.4590830000000 1.0
C      1  0.4561770000000  0.4552740000000  0.5110680000000 1.0
C      1  0.5503830000000  0.5189300000000  0.5160840000000 1.0
C      1  0.5273170000000  0.5201700000000  0.4457410000000 1.0
C      1  0.4583610000000  0.5185010000000  0.4490220000000 1.0
C      1  0.4497590000000  0.5228260000000  0.5229240000000 1.0
C      1  0.5157110000000  0.5245920000000  0.5738560000000 1.0
C      1  0.5264390000000  0.5510580000000  0.5676690000000 1.0
C      1  0.5401760000000  0.5458970000000  0.5083060000000 1.0
C      1  0.5137800000000  0.5483560000000  0.4420580000000 1.0
C      1  0.4468050000000  0.5480580000000  0.4565470000000 1.0
C      1  0.4678740000000  0.5460420000000  0.5240420000000 1.0
C      1  0.4989500000000  0.4569430000000  0.5004320000000 1.0
C      1  0.4935830000000  0.4066070000000  0.5096510000000 1.0
C      1  0.4858790000000  0.5733030000000  0.4733390000000 1.0
C      1  0.5008240000000  0.4281960000000  0.4970390000000 1.0
C      1  0.5062680000000  0.4828760000000  0.5172270000000 1.0
END
