TITL C-2330493-6014-7 -2.57002249411808e-06 125000 -358.940331016213 0 0 60 (C1) n - 1
REM
REM in /home/bkarasulu/CARBON/AIRSS/Generating-Clusters/EDIP-Nigel-Params/Higher-Symm/Box-15A/Only-C60/SD-CG/HFTN-CG
REM
REM
REM
REM
REM
REM ./C.cell (414f73aa93bd7a1190c7fd0f31ff2f98)
REM
REM compiler GCC version 9.2.1 20190827 (Red Hat 9.2.1-1)
REM options -cpp -mtune=generic -march=x86-64 -g -O0 -fpre-include=/usr/include/finclude/math-vector-fortran.h
REM seed 844103229 -490821431 681205036 -511314808 -327095457 674605046 -2072758309 -501261709 1976298692 -2119185038 1307864516 -148879923 -1024845814 -316147533 -1758514517 -159026818 -575801105 1551440187 120889816 1166162987 -1893426671 -469281504 1608651184 1270291775 2063528916 502029668 -7866078 1515556641 -502113109 -2131386652 934249389 -1124417140 -2090082677
REM
CELL 1.54180   50.00000   50.00000   50.00000   90.00000   90.00000   90.00000
LATT -1
SFAC C  
C      1  0.5118360000000  0.4700700000000  0.4376270000000 1.0
C      1  0.5506580000000  0.4937720000000  0.4388370000000 1.0
C      1  0.5216360000000  0.5272570000000  0.4340850000000 1.0
C      1  0.4521020000000  0.5286220000000  0.4322070000000 1.0
C      1  0.4468940000000  0.4904820000000  0.4321180000000 1.0
C      1  0.5137410000000  0.4376710000000  0.5628010000000 1.0
C      1  0.5610440000000  0.4865410000000  0.5681120000000 1.0
C      1  0.5096710000000  0.5325400000000  0.5591030000000 1.0
C      1  0.4650780000000  0.5335570000000  0.5595510000000 1.0
C      1  0.4674490000000  0.4891660000000  0.5636440000000 1.0
C      1  0.4279550000000  0.4987240000000  0.4525420000000 1.0
C      1  0.4872110000000  0.4634960000000  0.4515880000000 1.0
C      1  0.5542950000000  0.4674480000000  0.4507800000000 1.0
C      1  0.5469860000000  0.5367210000000  0.4481670000000 1.0
C      1  0.4730350000000  0.5413820000000  0.4470740000000 1.0
C      1  0.4411550000000  0.4972960000000  0.5519690000000 1.0
C      1  0.4908080000000  0.4438470000000  0.5487050000000 1.0
C      1  0.5549050000000  0.4653380000000  0.5513550000000 1.0
C      1  0.5347760000000  0.5250850000000  0.5461890000000 1.0
C      1  0.4749650000000  0.5576130000000  0.5467200000000 1.0
C      1  0.4909060000000  0.4455850000000  0.4742380000000 1.0
C      1  0.5586870000000  0.4717970000000  0.4792140000000 1.0
C      1  0.5422840000000  0.5432790000000  0.4764330000000 1.0
C      1  0.4678510000000  0.5461490000000  0.4747430000000 1.0
C      1  0.4356660000000  0.4914100000000  0.4795590000000 1.0
C      1  0.4936560000000  0.4423100000000  0.5203000000000 1.0
C      1  0.5538700000000  0.4724040000000  0.5236170000000 1.0
C      1  0.5407530000000  0.5412000000000  0.5225680000000 1.0
C      1  0.4659940000000  0.5573160000000  0.5186830000000 1.0
C      1  0.4390420000000  0.4898980000000  0.5239330000000 1.0
C      1  0.4428030000000  0.4629930000000  0.5152190000000 1.0
C      1  0.5181780000000  0.4323830000000  0.5099900000000 1.0
C      1  0.5671320000000  0.4964590000000  0.5154150000000 1.0
C      1  0.5200510000000  0.5581980000000  0.5118990000000 1.0
C      1  0.4407620000000  0.5446370000000  0.5126510000000 1.0
C      1  0.4412320000000  0.4642380000000  0.4870700000000 1.0
C      1  0.5176050000000  0.4387450000000  0.4826480000000 1.0
C      1  0.5708630000000  0.4963170000000  0.4877120000000 1.0
C      1  0.5214890000000  0.5615070000000  0.4839640000000 1.0
C      1  0.4418640000000  0.5408170000000  0.4849400000000 1.0
C      1  0.4987810000000  0.5426870000000  0.4374480000000 1.0
C      1  0.4265330000000  0.5268830000000  0.4458510000000 1.0
C      1  0.4633330000000  0.4696140000000  0.4388330000000 1.0
C      1  0.5326090000000  0.4509110000000  0.4427830000000 1.0
C      1  0.5671010000000  0.5161490000000  0.4456880000000 1.0
C      1  0.5026410000000  0.5595720000000  0.5524590000000 1.0
C      1  0.4379530000000  0.5254770000000  0.5557820000000 1.0
C      1  0.4735710000000  0.4623400000000  0.5595510000000 1.0
C      1  0.5394690000000  0.4447280000000  0.5612050000000 1.0
C      1  0.5537970000000  0.5115540000000  0.5614920000000 1.0
C      1  0.4297320000000  0.5088610000000  0.5028600000000 1.0
C      1  0.4848890000000  0.5586510000000  0.4955510000000 1.0
C      1  0.4739080000000  0.4475910000000  0.4985830000000 1.0
C      1  0.5482920000000  0.4542770000000  0.5007940000000 1.0
C      1  0.5564160000000  0.5301070000000  0.4997170000000 1.0
C      1  0.4897910000000  0.5074590000000  0.5228920000000 1.0
C      1  0.5146620000000  0.5009290000000  0.4751820000000 1.0
C      1  0.5212980000000  0.4982910000000  0.4463500000000 1.0
C      1  0.4862570000000  0.5126410000000  0.5517480000000 1.0
C      1  0.5016020000000  0.5028230000000  0.4989390000000 1.0
END
