TITL C-2330491-2496-26 -0.000312392367994132 125000 -362.101866799941 0 0 60 (C1) n - 1
REM
REM in /home/bkarasulu/CARBON/AIRSS/Generating-Clusters/EDIP-Nigel-Params/Higher-Symm/Box-15A/Only-C60/SD-CG/HFTN-CG
REM
REM
REM
REM
REM
REM ./C.cell (414f73aa93bd7a1190c7fd0f31ff2f98)
REM
REM compiler GCC version 9.2.1 20190827 (Red Hat 9.2.1-1)
REM options -cpp -mtune=generic -march=x86-64 -g -O0 -fpre-include=/usr/include/finclude/math-vector-fortran.h
REM seed 48489933 -1627122630 1488701517 295479746 -590274220 -1915061379 241203932 -1073234280 40861154 1853068295 1719799708 915793827 930719303 761670256 -50607874 913132027 -843197889 1021344247 -1877215211 175698853 1380638910 2314146 -643699103 118275128 138814235 -1217554571 1401964253 1946841139 -185553607 -200625389 -1699589613 259835431 284292072
REM
CELL 1.54180   50.00000   50.00000   50.00000   90.00000   90.00000   90.00000
LATT -1
SFAC C  
C      1  0.4343670000000  0.4768140000000  0.4738910000000 1.0
C      1  0.4589950000000  0.5466490000000  0.4659550000000 1.0
C      1  0.4926580000000  0.6067020000000  0.4717500000000 1.0
C      1  0.5360250000000  0.5533860000000  0.4720590000000 1.0
C      1  0.5674960000000  0.4901340000000  0.4753020000000 1.0
C      1  0.5420800000000  0.4404090000000  0.4667050000000 1.0
C      1  0.4863280000000  0.4323870000000  0.4721460000000 1.0
C      1  0.5249870000000  0.4641920000000  0.4647170000000 1.0
C      1  0.4969870000000  0.4591160000000  0.4776140000000 1.0
C      1  0.4777300000000  0.4787700000000  0.4642280000000 1.0
C      1  0.4683280000000  0.5046640000000  0.4764790000000 1.0
C      1  0.4826500000000  0.5289060000000  0.4615890000000 1.0
C      1  0.5145280000000  0.5324740000000  0.4755540000000 1.0
C      1  0.5388400000000  0.4886980000000  0.4786220000000 1.0
C      1  0.5483860000000  0.5279740000000  0.5377670000000 1.0
C      1  0.5553560000000  0.4790000000000  0.5439740000000 1.0
C      1  0.5191980000000  0.4381410000000  0.5454640000000 1.0
C      1  0.4716070000000  0.4466930000000  0.5493520000000 1.0
C      1  0.4427620000000  0.4896460000000  0.5469360000000 1.0
C      1  0.4536500000000  0.5365090000000  0.5405520000000 1.0
C      1  0.5057380000000  0.5539640000000  0.5405920000000 1.0
C      1  0.5801000000000  0.4659610000000  0.4810710000000 1.0
C      1  0.5318500000000  0.4195130000000  0.4808270000000 1.0
C      1  0.4590490000000  0.4340190000000  0.4793540000000 1.0
C      1  0.4282150000000  0.5031030000000  0.4680210000000 1.0
C      1  0.4618920000000  0.5703480000000  0.4795200000000 1.0
C      1  0.5132260000000  0.5980850000000  0.4882250000000 1.0
C      1  0.5611790000000  0.5405250000000  0.4733300000000 1.0
C      1  0.4655890000000  0.5024000000000  0.5078480000000 1.0
C      1  0.4895340000000  0.5157580000000  0.5213260000000 1.0
C      1  0.5151620000000  0.5231760000000  0.5058990000000 1.0
C      1  0.5312610000000  0.4973120000000  0.5076000000000 1.0
C      1  0.5139680000000  0.4783850000000  0.5238170000000 1.0
C      1  0.4938390000000  0.4601000000000  0.5099860000000 1.0
C      1  0.4652460000000  0.4714740000000  0.5111160000000 1.0
C      1  0.4762850000000  0.4780200000000  0.4350410000000 1.0
C      1  0.4660760000000  0.5015750000000  0.4234750000000 1.0
C      1  0.4836850000000  0.5217960000000  0.4319480000000 1.0
C      1  0.5087680000000  0.5205630000000  0.4195530000000 1.0
C      1  0.5234910000000  0.5023970000000  0.4353520000000 1.0
C      1  0.5203520000000  0.4729000000000  0.4356230000000 1.0
C      1  0.4971600000000  0.4638730000000  0.4222130000000 1.0
C      1  0.5324690000000  0.4624680000000  0.5395400000000 1.0
C      1  0.4936370000000  0.4392280000000  0.5329840000000 1.0
C      1  0.4541780000000  0.4655330000000  0.5374980000000 1.0
C      1  0.4450940000000  0.5118080000000  0.5292390000000 1.0
C      1  0.4812180000000  0.5402520000000  0.5347230000000 1.0
C      1  0.5272190000000  0.5423940000000  0.5256580000000 1.0
C      1  0.5535170000000  0.5021280000000  0.5273270000000 1.0
C      1  0.4481710000000  0.4581560000000  0.4900010000000 1.0
C      1  0.4362980000000  0.5297010000000  0.4685150000000 1.0
C      1  0.4755390000000  0.5924070000000  0.4882200000000 1.0
C      1  0.5313570000000  0.5790680000000  0.4805790000000 1.0
C      1  0.5754860000000  0.5172370000000  0.4747930000000 1.0
C      1  0.5646850000000  0.4430410000000  0.4816780000000 1.0
C      1  0.5050780000000  0.4129770000000  0.4791560000000 1.0
C      1  0.5069270000000  0.5032230000000  0.5669270000000 1.0
C      1  0.4982930000000  0.4960080000000  0.5416800000000 1.0
C      1  0.5302270000000  0.5107630000000  0.4619890000000 1.0
C      1  0.5112060000000  0.5073930000000  0.5918610000000 1.0
END
