TITL C-2330491-2496-13 -1.83241791186165e-06 125000 -360.900502910868 0 0 60 (C1) n - 1
REM
REM in /home/bkarasulu/CARBON/AIRSS/Generating-Clusters/EDIP-Nigel-Params/Higher-Symm/Box-15A/Only-C60/SD-CG/HFTN-CG
REM
REM
REM
REM
REM
REM ./C.cell (414f73aa93bd7a1190c7fd0f31ff2f98)
REM
REM compiler GCC version 9.2.1 20190827 (Red Hat 9.2.1-1)
REM options -cpp -mtune=generic -march=x86-64 -g -O0 -fpre-include=/usr/include/finclude/math-vector-fortran.h
REM seed -661707958 -1897993424 1660410388 -449582250 -1432174630 334352053 -481208456 -1928801849 690466473 856097481 1173738802 -28014657 69585836 -674095248 -1406093294 1648346644 1715258573 2068845176 -590508112 -1827447400 -612453468 1311394381 -1418803489 -1714432331 45098650 659678600 684842927 1349581530 1172655725 497063820 -1088103211 -1923798466 1346882848
REM
CELL 1.54180   50.00000   50.00000   50.00000   90.00000   90.00000   90.00000
LATT -1
SFAC C  
C      1  0.4908660000000  0.5373980000000  0.4463490000000 1.0
C      1  0.5167970000000  0.4608450000000  0.5562110000000 1.0
C      1  0.4810140000000  0.4781650000000  0.5037950000000 1.0
C      1  0.5206440000000  0.5243430000000  0.4920040000000 1.0
C      1  0.5707920000000  0.5169240000000  0.4932200000000 1.0
C      1  0.4304120000000  0.4817540000000  0.5086370000000 1.0
C      1  0.4332810000000  0.4968840000000  0.4661700000000 1.0
C      1  0.5642590000000  0.5025920000000  0.5354660000000 1.0
C      1  0.5455120000000  0.4421970000000  0.5044780000000 1.0
C      1  0.4513330000000  0.5564640000000  0.4990470000000 1.0
C      1  0.4705030000000  0.4416790000000  0.4957910000000 1.0
C      1  0.5256370000000  0.5558510000000  0.5011090000000 1.0
C      1  0.4222630000000  0.4752770000000  0.4824340000000 1.0
C      1  0.5774440000000  0.5235810000000  0.5198630000000 1.0
C      1  0.5028070000000  0.5007450000000  0.4162640000000 1.0
C      1  0.5013130000000  0.4980270000000  0.5812460000000 1.0
C      1  0.5327020000000  0.4953070000000  0.4537230000000 1.0
C      1  0.4704980000000  0.5044190000000  0.5442250000000 1.0
C      1  0.5081900000000  0.5078340000000  0.4683480000000 1.0
C      1  0.4908720000000  0.4981750000000  0.5228450000000 1.0
C      1  0.4480140000000  0.5224720000000  0.5340890000000 1.0
C      1  0.5493370000000  0.4772970000000  0.4707450000000 1.0
C      1  0.5297080000000  0.4771330000000  0.5102870000000 1.0
C      1  0.4688740000000  0.5232830000000  0.4879280000000 1.0
C      1  0.4727040000000  0.4628460000000  0.5683820000000 1.0
C      1  0.5354500000000  0.5359110000000  0.4292190000000 1.0
C      1  0.5476640000000  0.5212350000000  0.4496060000000 1.0
C      1  0.4584300000000  0.4772210000000  0.5491330000000 1.0
C      1  0.4546490000000  0.4677580000000  0.5197110000000 1.0
C      1  0.5490090000000  0.5321430000000  0.4787730000000 1.0
C      1  0.4305090000000  0.5111660000000  0.5122920000000 1.0
C      1  0.5683100000000  0.4876230000000  0.4906040000000 1.0
C      1  0.5119450000000  0.4469970000000  0.4703360000000 1.0
C      1  0.4861620000000  0.5525380000000  0.5305830000000 1.0
C      1  0.4987890000000  0.4604260000000  0.4473550000000 1.0
C      1  0.5006820000000  0.5414100000000  0.5541190000000 1.0
C      1  0.4574300000000  0.5495920000000  0.5272160000000 1.0
C      1  0.5398560000000  0.4507410000000  0.4765560000000 1.0
C      1  0.5783900000000  0.4970060000000  0.5581260000000 1.0
C      1  0.4164790000000  0.5028940000000  0.4455420000000 1.0
C      1  0.4685530000000  0.4613320000000  0.4494070000000 1.0
C      1  0.5305130000000  0.5395660000000  0.5490020000000 1.0
C      1  0.5359370000000  0.5115450000000  0.5418880000000 1.0
C      1  0.4610570000000  0.4891110000000  0.4559730000000 1.0
C      1  0.5150710000000  0.4819120000000  0.4331510000000 1.0
C      1  0.4867500000000  0.5172140000000  0.5664900000000 1.0
C      1  0.4590890000000  0.4439570000000  0.4698020000000 1.0
C      1  0.5380980000000  0.5557430000000  0.5269060000000 1.0
C      1  0.5606460000000  0.4761640000000  0.5169520000000 1.0
C      1  0.4377550000000  0.5228440000000  0.4856470000000 1.0
C      1  0.4987750000000  0.4706560000000  0.5750520000000 1.0
C      1  0.5091030000000  0.5257590000000  0.4281730000000 1.0
C      1  0.5178200000000  0.4339030000000  0.5153560000000 1.0
C      1  0.4771850000000  0.5685870000000  0.4865290000000 1.0
C      1  0.4851870000000  0.5438620000000  0.4736510000000 1.0
C      1  0.5126280000000  0.4595590000000  0.5284190000000 1.0
C      1  0.4980710000000  0.5683740000000  0.5084700000000 1.0
C      1  0.4987610000000  0.4320770000000  0.4919840000000 1.0
C      1  0.5194320000000  0.5050390000000  0.5174440000000 1.0
C      1  0.4800370000000  0.4966440000000  0.4778760000000 1.0
END
