TITL C-2330497-5381-42 -1.67356714092972e-06 125000 -366.468263168172 0 0 60 (C1) n - 1
REM
REM in /home/bkarasulu/CARBON/AIRSS/Generating-Clusters/EDIP-Nigel-Params/Higher-Symm/Box-15A/Only-C60/SD-CG/HFTN-CG
REM
REM
REM
REM
REM
REM ./C.cell (414f73aa93bd7a1190c7fd0f31ff2f98)
REM
REM compiler GCC version 9.2.1 20190827 (Red Hat 9.2.1-1)
REM options -cpp -mtune=generic -march=x86-64 -g -O0 -fpre-include=/usr/include/finclude/math-vector-fortran.h
REM seed 590226414 208173035 429295064 -2055286820 -1722520703 345761603 471972046 178091076 537736495 -1580365465 40297863 -1242904434 1935480030 -2099113466 338439428 1229624331 437406902 1476548728 997622953 328573055 1253273079 -416784895 -1890623776 4827584 -758152926 -1868002906 -707746073 -1859102946 -1176890278 443824631 1516044433 523951735 1971533645
REM
CELL 1.54180   50.00000   50.00000   50.00000   90.00000   90.00000   90.00000
LATT -1
SFAC C  
C      1  0.4164710000000  0.4749580000000  0.5080240000000 1.0
C      1  0.4214570000000  0.5236360000000  0.5026000000000 1.0
C      1  0.5799650000000  0.4702160000000  0.5025060000000 1.0
C      1  0.5709070000000  0.5169190000000  0.4963290000000 1.0
C      1  0.4237120000000  0.4951280000000  0.4645400000000 1.0
C      1  0.4404860000000  0.4994350000000  0.5254770000000 1.0
C      1  0.5670650000000  0.5098380000000  0.4684650000000 1.0
C      1  0.5752740000000  0.5001500000000  0.5404810000000 1.0
C      1  0.4463900000000  0.4863630000000  0.5529560000000 1.0
C      1  0.4449920000000  0.5084550000000  0.4523810000000 1.0
C      1  0.5566150000000  0.4891140000000  0.4499440000000 1.0
C      1  0.5526510000000  0.5146800000000  0.5487470000000 1.0
C      1  0.4395070000000  0.5420900000000  0.4891830000000 1.0
C      1  0.4393790000000  0.4573090000000  0.5121760000000 1.0
C      1  0.5608990000000  0.4534690000000  0.4900070000000 1.0
C      1  0.5579810000000  0.5415140000000  0.5072500000000 1.0
C      1  0.4709930000000  0.4656760000000  0.4442010000000 1.0
C      1  0.4732880000000  0.5282870000000  0.5621490000000 1.0
C      1  0.5243680000000  0.4741660000000  0.5610930000000 1.0
C      1  0.5269460000000  0.5284460000000  0.4360910000000 1.0
C      1  0.4762880000000  0.4384320000000  0.4854660000000 1.0
C      1  0.4636640000000  0.5625810000000  0.5313570000000 1.0
C      1  0.5313430000000  0.5642100000000  0.4670510000000 1.0
C      1  0.5306690000000  0.4389340000000  0.5309820000000 1.0
C      1  0.4725080000000  0.5004320000000  0.5609090000000 1.0
C      1  0.4644210000000  0.4922650000000  0.4376220000000 1.0
C      1  0.5297480000000  0.5006130000000  0.4377540000000 1.0
C      1  0.5318750000000  0.5009380000000  0.5635970000000 1.0
C      1  0.4539790000000  0.5613060000000  0.5053930000000 1.0
C      1  0.4486250000000  0.4401010000000  0.4912100000000 1.0
C      1  0.5440270000000  0.4355620000000  0.5066940000000 1.0
C      1  0.5480880000000  0.5609010000000  0.4888050000000 1.0
C      1  0.4854720000000  0.4995350000000  0.4680050000000 1.0
C      1  0.4870560000000  0.4918870000000  0.5358020000000 1.0
C      1  0.5147760000000  0.5025690000000  0.5294860000000 1.0
C      1  0.5312420000000  0.5046290000000  0.4825120000000 1.0
C      1  0.4751990000000  0.4849500000000  0.4917420000000 1.0
C      1  0.4781840000000  0.5305290000000  0.5070810000000 1.0
C      1  0.5191010000000  0.5314510000000  0.4883540000000 1.0
C      1  0.5176790000000  0.4615880000000  0.4965650000000 1.0
C      1  0.5173550000000  0.4611810000000  0.4658000000000 1.0
C      1  0.4781050000000  0.5473310000000  0.4572910000000 1.0
C      1  0.4854240000000  0.4613690000000  0.5331450000000 1.0
C      1  0.5187210000000  0.5514250000000  0.5376580000000 1.0
C      1  0.5137380000000  0.4909220000000  0.4615100000000 1.0
C      1  0.4896110000000  0.5279690000000  0.4776530000000 1.0
C      1  0.4884460000000  0.4601170000000  0.5023550000000 1.0
C      1  0.5084080000000  0.5302470000000  0.5184070000000 1.0
C      1  0.5123630000000  0.4533700000000  0.5465630000000 1.0
C      1  0.4822820000000  0.5504580000000  0.5481280000000 1.0
C      1  0.4880960000000  0.4481980000000  0.4587140000000 1.0
C      1  0.5150560000000  0.5501740000000  0.4487420000000 1.0
C      1  0.4538710000000  0.4599490000000  0.5386560000000 1.0
C      1  0.5492630000000  0.4612810000000  0.4629680000000 1.0
C      1  0.4495120000000  0.5368990000000  0.4612040000000 1.0
C      1  0.5477040000000  0.5413010000000  0.5356570000000 1.0
C      1  0.4138100000000  0.4982480000000  0.4904920000000 1.0
C      1  0.5808700000000  0.4958830000000  0.5135630000000 1.0
C      1  0.5272520000000  0.4879620000000  0.5063640000000 1.0
C      1  0.4688420000000  0.5024560000000  0.5141420000000 1.0
END
