TITL C-2330500-6311-4 -3.92701001662211e-06 125000 -359.516780093683 0 0 60 (C1) n - 1
REM
REM in /home/bkarasulu/CARBON/AIRSS/Generating-Clusters/EDIP-Nigel-Params/Higher-Symm/Box-15A/Only-C60/SD-CG/HFTN-CG
REM
REM
REM
REM
REM
REM ./C.cell (414f73aa93bd7a1190c7fd0f31ff2f98)
REM
REM compiler GCC version 9.2.1 20190827 (Red Hat 9.2.1-1)
REM options -cpp -mtune=generic -march=x86-64 -g -O0 -fpre-include=/usr/include/finclude/math-vector-fortran.h
REM seed -882591053 -1962679624 -619866444 1720970717 -1234677905 495871027 528689575 1580445458 -1781883183 -1424999828 1444003418 -1866797409 1070968907 112417721 -831965949 190254347 605397647 -547609818 -1980311236 1979956841 441671587 -1498428048 -1267990498 702621801 1912679843 -856267270 -216932867 1919981679 1795191996 -1985358022 528693607 -655480227 683881465
REM
CELL 1.54180   50.00000   50.00000   50.00000   90.00000   90.00000   90.00000
LATT -1
SFAC C  
C      1  0.4560820000000  0.4792220000000  0.4649900000000 1.0
C      1  0.4815160000000  0.4730390000000  0.4506760000000 1.0
C      1  0.4739610000000  0.4408420000000  0.4795860000000 1.0
C      1  0.5483240000000  0.5215940000000  0.4710840000000 1.0
C      1  0.4433820000000  0.5242320000000  0.5272970000000 1.0
C      1  0.5551870000000  0.4784260000000  0.5266280000000 1.0
C      1  0.5237770000000  0.5264950000000  0.4410200000000 1.0
C      1  0.4773540000000  0.5260710000000  0.5599000000000 1.0
C      1  0.5237880000000  0.4748780000000  0.5499750000000 1.0
C      1  0.5216090000000  0.5538750000000  0.4815840000000 1.0
C      1  0.4733420000000  0.5618790000000  0.5252830000000 1.0
C      1  0.5260620000000  0.4409030000000  0.5224250000000 1.0
C      1  0.4373970000000  0.4806380000000  0.5246760000000 1.0
C      1  0.4763330000000  0.4692920000000  0.5476840000000 1.0
C      1  0.4705260000000  0.4515410000000  0.5224520000000 1.0
C      1  0.5553810000000  0.5226530000000  0.5241470000000 1.0
C      1  0.4429120000000  0.5223260000000  0.4780780000000 1.0
C      1  0.5618190000000  0.4774200000000  0.4743630000000 1.0
C      1  0.5234070000000  0.5282100000000  0.5578420000000 1.0
C      1  0.4733960000000  0.5280320000000  0.4428430000000 1.0
C      1  0.5275420000000  0.4711890000000  0.4469810000000 1.0
C      1  0.5249930000000  0.5601350000000  0.5210150000000 1.0
C      1  0.4768950000000  0.5570490000000  0.4805400000000 1.0
C      1  0.5285050000000  0.4492810000000  0.4787350000000 1.0
C      1  0.5509910000000  0.5492910000000  0.5142140000000 1.0
C      1  0.5496450000000  0.5176860000000  0.5519040000000 1.0
C      1  0.5143880000000  0.5536610000000  0.5472670000000 1.0
C      1  0.4412430000000  0.4531560000000  0.5135520000000 1.0
C      1  0.5579770000000  0.4497380000000  0.4856360000000 1.0
C      1  0.4502390000000  0.5496050000000  0.4882770000000 1.0
C      1  0.4476380000000  0.4854980000000  0.5531310000000 1.0
C      1  0.5568150000000  0.4837510000000  0.4445080000000 1.0
C      1  0.4456570000000  0.5199140000000  0.4484840000000 1.0
C      1  0.4895050000000  0.4430220000000  0.5555020000000 1.0
C      1  0.5161800000000  0.4406650000000  0.4502250000000 1.0
C      1  0.4847950000000  0.5532760000000  0.4530160000000 1.0
C      1  0.5519750000000  0.5498690000000  0.4846700000000 1.0
C      1  0.5541700000000  0.5142900000000  0.4416210000000 1.0
C      1  0.5150200000000  0.5551920000000  0.4508240000000 1.0
C      1  0.4453100000000  0.4509110000000  0.4831830000000 1.0
C      1  0.5548520000000  0.4492390000000  0.5163790000000 1.0
C      1  0.4478500000000  0.5508340000000  0.5175670000000 1.0
C      1  0.4389090000000  0.4922240000000  0.4446190000000 1.0
C      1  0.5524150000000  0.4882770000000  0.5563230000000 1.0
C      1  0.4496570000000  0.5159370000000  0.5542360000000 1.0
C      1  0.4860150000000  0.4436680000000  0.4517760000000 1.0
C      1  0.5182270000000  0.4450900000000  0.5508700000000 1.0
C      1  0.4845600000000  0.5555830000000  0.5512680000000 1.0
C      1  0.5146450000000  0.4635200000000  0.5027450000000 1.0
C      1  0.4639010000000  0.4946530000000  0.5132310000000 1.0
C      1  0.5034620000000  0.5139880000000  0.4618100000000 1.0
C      1  0.4853570000000  0.5300720000000  0.5075100000000 1.0
C      1  0.5085290000000  0.5273670000000  0.4884970000000 1.0
C      1  0.4844910000000  0.4647010000000  0.4980900000000 1.0
C      1  0.5329630000000  0.4939870000000  0.5121780000000 1.0
C      1  0.4619440000000  0.5005830000000  0.4848240000000 1.0
C      1  0.5384870000000  0.4950220000000  0.4829370000000 1.0
C      1  0.4987170000000  0.4867540000000  0.5387660000000 1.0
C      1  0.5053760000000  0.4841830000000  0.4643060000000 1.0
C      1  0.4946090000000  0.5155740000000  0.5362490000000 1.0
END
