TITL C-2330501-7387-12 -8.60685224587728e-07 125000 -380.788139555552 0 0 60 (Cs) n - 1
REM
REM in /home/bkarasulu/CARBON/AIRSS/Generating-Clusters/EDIP-Nigel-Params/Higher-Symm/Box-15A/Only-C60/SD-CG/HFTN-CG
REM
REM
REM
REM
REM
REM ./C.cell (414f73aa93bd7a1190c7fd0f31ff2f98)
REM
REM compiler GCC version 9.2.1 20190827 (Red Hat 9.2.1-1)
REM options -cpp -mtune=generic -march=x86-64 -g -O0 -fpre-include=/usr/include/finclude/math-vector-fortran.h
REM seed -759224588 -2145142720 1354056086 -499042098 1290001358 -562093217 1420865772 -74264661 1931257469 -1569806535 -186816907 -1012594785 -1817805727 1645954444 2041625983 1436399406 319552143 -481240047 -1999132301 539285125 -2135602375 1066646499 1277596729 1224230812 -1307489645 1008740339 1015386179 601083603 -429303479 -400117504 1342936876 1683514405 -670008035
REM
CELL 1.54180   50.00000   50.00000   50.00000   90.00000   90.00000   90.00000
LATT -1
SFAC C  
C      1  0.4565700000000  0.5468200000000  0.5321140000000 1.0
C      1  0.5311090000000  0.5560150000000  0.5321590000000 1.0
C      1  0.5629410000000  0.4879680000000  0.5319500000000 1.0
C      1  0.5073980000000  0.4363030000000  0.5321320000000 1.0
C      1  0.4419630000000  0.4731620000000  0.5321670000000 1.0
C      1  0.4483220000000  0.5344140000000  0.4583160000000 1.0
C      1  0.5168230000000  0.5599320000000  0.4583400000000 1.0
C      1  0.5622720000000  0.5027410000000  0.4583220000000 1.0
C      1  0.5214310000000  0.4414470000000  0.4583510000000 1.0
C      1  0.4511490000000  0.4613700000000  0.4583860000000 1.0
C      1  0.5684730000000  0.4543740000000  0.4972010000000 1.0
C      1  0.4768230000000  0.4189660000000  0.4972370000000 1.0
C      1  0.4162050000000  0.4966340000000  0.4970800000000 1.0
C      1  0.4708390000000  0.5786280000000  0.4970410000000 1.0
C      1  0.5658600000000  0.5525920000000  0.4971740000000 1.0
C      1  0.5679090000000  0.5256730000000  0.5038370000000 1.0
C      1  0.5445070000000  0.4420610000000  0.5037740000000 1.0
C      1  0.4597090000000  0.4398370000000  0.5039110000000 1.0
C      1  0.4305870000000  0.5194700000000  0.5037990000000 1.0
C      1  0.4970180000000  0.5721010000000  0.5037910000000 1.0
C      1  0.4968640000000  0.4397200000000  0.4456870000000 1.0
C      1  0.4419380000000  0.4842030000000  0.4457050000000 1.0
C      1  0.4671430000000  0.5502870000000  0.4456360000000 1.0
C      1  0.5377720000000  0.5470090000000  0.4456530000000 1.0
C      1  0.5559250000000  0.4787940000000  0.4458720000000 1.0
C      1  0.4875380000000  0.4558490000000  0.5411630000000 1.0
C      1  0.4543540000000  0.4981370000000  0.5412140000000 1.0
C      1  0.4841610000000  0.5428700000000  0.5411930000000 1.0
C      1  0.5359660000000  0.5285290000000  0.5411290000000 1.0
C      1  0.5381400000000  0.4746060000000  0.5405880000000 1.0
C      1  0.4602970000000  0.4497410000000  0.5322090000000 1.0
C      1  0.4400800000000  0.5220740000000  0.5321260000000 1.0
C      1  0.5024350000000  0.5639170000000  0.5321240000000 1.0
C      1  0.5616480000000  0.5177210000000  0.5320940000000 1.0
C      1  0.5353540000000  0.4465670000000  0.5319700000000 1.0
C      1  0.5400110000000  0.5603530000000  0.5038540000000 1.0
C      1  0.5706110000000  0.4812370000000  0.5037560000000 1.0
C      1  0.5024580000000  0.4274440000000  0.5038830000000 1.0
C      1  0.4323120000000  0.4749910000000  0.5038370000000 1.0
C      1  0.4553040000000  0.5565660000000  0.5037820000000 1.0
C      1  0.4565530000000  0.4655980000000  0.4875120000000 1.0
C      1  0.4540330000000  0.5306230000000  0.4874400000000 1.0
C      1  0.5150140000000  0.5533350000000  0.4874700000000 1.0
C      1  0.5557400000000  0.5026100000000  0.4875400000000 1.0
C      1  0.5190490000000  0.4475450000000  0.4875660000000 1.0
C      1  0.5214170000000  0.4857590000000  0.5623310000000 1.0
C      1  0.4932260000000  0.4753500000000  0.5626390000000 1.0
C      1  0.4745570000000  0.4989150000000  0.5628180000000 1.0
C      1  0.4912310000000  0.5239390000000  0.5628070000000 1.0
C      1  0.5201690000000  0.5157840000000  0.5626200000000 1.0
C      1  0.5068900000000  0.5237400000000  0.4899660000000 1.0
C      1  0.5250420000000  0.5008870000000  0.4901340000000 1.0
C      1  0.5088200000000  0.4765410000000  0.4901460000000 1.0
C      1  0.4807390000000  0.4844930000000  0.4899840000000 1.0
C      1  0.4795660000000  0.5136110000000  0.4899170000000 1.0
C      1  0.4409150000000  0.5109240000000  0.4456550000000 1.0
C      1  0.4921980000000  0.5596320000000  0.4456700000000 1.0
C      1  0.5544010000000  0.5260700000000  0.4456470000000 1.0
C      1  0.5410820000000  0.4565180000000  0.4458820000000 1.0
C      1  0.4711370000000  0.4470040000000  0.4457000000000 1.0
END
