TITL C-2330500-6311-8 2.36512228024822e-05 125000 -377.879531223051 0 0 60 (C1) n - 1
REM
REM in /home/bkarasulu/CARBON/AIRSS/Generating-Clusters/EDIP-Nigel-Params/Higher-Symm/Box-15A/Only-C60/SD-CG/HFTN-CG
REM
REM
REM
REM
REM
REM ./C.cell (414f73aa93bd7a1190c7fd0f31ff2f98)
REM
REM compiler GCC version 9.2.1 20190827 (Red Hat 9.2.1-1)
REM options -cpp -mtune=generic -march=x86-64 -g -O0 -fpre-include=/usr/include/finclude/math-vector-fortran.h
REM seed -1753421244 840175604 761181164 -459782024 1356042845 2024484292 -764839047 521366652 380199649 -317018068 528815716 -962313076 363796293 366345135 639582702 402006868 2474120 158606182 890326775 -591347390 -521123501 -1941038211 1195213353 1579982840 1311488409 218404408 180885622 -653473886 15845652 31865220 2988411 -922290488 89378258
REM
CELL 1.54180   50.00000   50.00000   50.00000   90.00000   90.00000   90.00000
LATT -1
SFAC C  
C      1  0.4784630000000  0.5718630000000  0.4804490000000 1.0
C      1  0.4843400000000  0.4775750000000  0.5693230000000 1.0
C      1  0.4730460000000  0.4513600000000  0.4459760000000 1.0
C      1  0.5195340000000  0.4285700000000  0.4825770000000 1.0
C      1  0.5221130000000  0.5231180000000  0.5687310000000 1.0
C      1  0.5224590000000  0.5469450000000  0.4422290000000 1.0
C      1  0.5211630000000  0.4288910000000  0.5213130000000 1.0
C      1  0.5165660000000  0.5213490000000  0.4282200000000 1.0
C      1  0.5268070000000  0.5485970000000  0.5541770000000 1.0
C      1  0.4799320000000  0.5722360000000  0.5188630000000 1.0
C      1  0.4781380000000  0.4760850000000  0.4302640000000 1.0
C      1  0.4717170000000  0.4550350000000  0.5583680000000 1.0
C      1  0.4892660000000  0.5523910000000  0.5618680000000 1.0
C      1  0.4929550000000  0.4358610000000  0.5172850000000 1.0
C      1  0.4874360000000  0.5245930000000  0.4262790000000 1.0
C      1  0.5223160000000  0.4487930000000  0.5644180000000 1.0
C      1  0.5085850000000  0.5706660000000  0.5130360000000 1.0
C      1  0.5071440000000  0.4726780000000  0.4269420000000 1.0
C      1  0.5106310000000  0.4468130000000  0.4389760000000 1.0
C      1  0.5074650000000  0.5702460000000  0.4840780000000 1.0
C      1  0.5131060000000  0.4743000000000  0.5706910000000 1.0
C      1  0.4845330000000  0.5509540000000  0.4373790000000 1.0
C      1  0.4913270000000  0.4329090000000  0.4888620000000 1.0
C      1  0.4932820000000  0.5262130000000  0.5730360000000 1.0
C      1  0.4317280000000  0.4919600000000  0.5461220000000 1.0
C      1  0.4284380000000  0.4695220000000  0.4741380000000 1.0
C      1  0.4304830000000  0.5387500000000  0.4885510000000 1.0
C      1  0.5713370000000  0.5088050000000  0.5396330000000 1.0
C      1  0.5684850000000  0.5299390000000  0.4685300000000 1.0
C      1  0.5695610000000  0.4602300000000  0.4840410000000 1.0
C      1  0.5673780000000  0.5076600000000  0.4538590000000 1.0
C      1  0.5708600000000  0.5308980000000  0.5246890000000 1.0
C      1  0.5713910000000  0.4601770000000  0.5107360000000 1.0
C      1  0.4287040000000  0.4911230000000  0.4584830000000 1.0
C      1  0.4281900000000  0.4703080000000  0.5306920000000 1.0
C      1  0.4315480000000  0.5390650000000  0.5153020000000 1.0
C      1  0.4493160000000  0.5360750000000  0.5363950000000 1.0
C      1  0.4478100000000  0.4566070000000  0.5167800000000 1.0
C      1  0.4460240000000  0.5111190000000  0.4504620000000 1.0
C      1  0.5544920000000  0.4639660000000  0.5324310000000 1.0
C      1  0.5513300000000  0.5452600000000  0.5114990000000 1.0
C      1  0.5499460000000  0.4871690000000  0.4474780000000 1.0
C      1  0.5504490000000  0.4636160000000  0.4642370000000 1.0
C      1  0.5501570000000  0.5447890000000  0.4828810000000 1.0
C      1  0.5548250000000  0.4884100000000  0.5482720000000 1.0
C      1  0.4467460000000  0.5352980000000  0.4663410000000 1.0
C      1  0.4477490000000  0.4557150000000  0.4881510000000 1.0
C      1  0.4498790000000  0.5119710000000  0.5524410000000 1.0
C      1  0.4703770000000  0.4472530000000  0.5316390000000 1.0
C      1  0.4716280000000  0.5035180000000  0.4390820000000 1.0
C      1  0.4710420000000  0.5549990000000  0.5399460000000 1.0
C      1  0.5272690000000  0.5519010000000  0.5256100000000 1.0
C      1  0.5236410000000  0.4943060000000  0.4377130000000 1.0
C      1  0.5366750000000  0.4425770000000  0.5412440000000 1.0
C      1  0.5250240000000  0.5509970000000  0.4706040000000 1.0
C      1  0.5294010000000  0.4958520000000  0.5602570000000 1.0
C      1  0.5295680000000  0.4436760000000  0.4603540000000 1.0
C      1  0.4721740000000  0.4494600000000  0.4746150000000 1.0
C      1  0.4760930000000  0.5047790000000  0.5629310000000 1.0
C      1  0.4679570000000  0.5542120000000  0.4605190000000 1.0
END
