TITL C-2330499-3929-39 1.33082165637679e-05 125000 -366.440957894455 0 0 60 (C1) n - 1
REM
REM in /home/bkarasulu/CARBON/AIRSS/Generating-Clusters/EDIP-Nigel-Params/Higher-Symm/Box-15A/Only-C60/SD-CG/HFTN-CG
REM
REM
REM
REM
REM
REM ./C.cell (414f73aa93bd7a1190c7fd0f31ff2f98)
REM
REM compiler GCC version 9.2.1 20190827 (Red Hat 9.2.1-1)
REM options -cpp -mtune=generic -march=x86-64 -g -O0 -fpre-include=/usr/include/finclude/math-vector-fortran.h
REM seed 1728291176 445821629 1398861023 1318743549 -1948472970 1072577135 -1764937101 -967908993 391006077 1722842354 918160624 929655671 -736685043 -894142011 2102306701 -1479717576 -53514747 -2013057205 1113251714 1225694682 -43933523 -1801402961 -877673118 855381729 -1466042963 -987456890 899468151 278914096 -1765976127 763079938 -1591589349 840766859 1932974795
REM
CELL 1.54180   50.00000   50.00000   50.00000   90.00000   90.00000   90.00000
LATT -1
SFAC C  
C      1  0.4610650000000  0.5525720000000  0.4680550000000 1.0
C      1  0.5494410000000  0.5455730000000  0.4717520000000 1.0
C      1  0.5012660000000  0.5518940000000  0.5553730000000 1.0
C      1  0.4565890000000  0.5520120000000  0.5180540000000 1.0
C      1  0.5446510000000  0.5443670000000  0.5310460000000 1.0
C      1  0.5127990000000  0.5475260000000  0.4467210000000 1.0
C      1  0.5401080000000  0.5691290000000  0.4861400000000 1.0
C      1  0.4985650000000  0.5745420000000  0.5367260000000 1.0
C      1  0.4795730000000  0.5746740000000  0.4732950000000 1.0
C      1  0.5366460000000  0.5677340000000  0.5152430000000 1.0
C      1  0.5051350000000  0.5731840000000  0.4592470000000 1.0
C      1  0.4761480000000  0.5742660000000  0.5175750000000 1.0
C      1  0.5381570000000  0.4735380000000  0.5482910000000 1.0
C      1  0.4323400000000  0.4468870000000  0.5233750000000 1.0
C      1  0.5053910000000  0.4598260000000  0.4303600000000 1.0
C      1  0.5295930000000  0.4566550000000  0.4441270000000 1.0
C      1  0.4361590000000  0.4430650000000  0.4960120000000 1.0
C      1  0.5205530000000  0.4527030000000  0.5569120000000 1.0
C      1  0.4921470000000  0.5270450000000  0.4401230000000 1.0
C      1  0.5582320000000  0.5246520000000  0.5157030000000 1.0
C      1  0.4591740000000  0.5320230000000  0.5400500000000 1.0
C      1  0.4758040000000  0.5412390000000  0.5610740000000 1.0
C      1  0.5512620000000  0.5221410000000  0.4880940000000 1.0
C      1  0.4666390000000  0.5372910000000  0.4450700000000 1.0
C      1  0.4481370000000  0.4628480000000  0.4800920000000 1.0
C      1  0.5308740000000  0.4681660000000  0.4709100000000 1.0
C      1  0.4953340000000  0.4665890000000  0.5571820000000 1.0
C      1  0.4472680000000  0.4688310000000  0.5372550000000 1.0
C      1  0.5332860000000  0.4794440000000  0.5199620000000 1.0
C      1  0.4839480000000  0.4736420000000  0.4429300000000 1.0
C      1  0.4959610000000  0.4996670000000  0.4536140000000 1.0
C      1  0.5315990000000  0.4981140000000  0.5642660000000 1.0
C      1  0.4310370000000  0.4852910000000  0.5178050000000 1.0
C      1  0.5022200000000  0.4947680000000  0.5632210000000 1.0
C      1  0.5247030000000  0.4929080000000  0.4561340000000 1.0
C      1  0.4425330000000  0.4891990000000  0.4913420000000 1.0
C      1  0.5187740000000  0.4100370000000  0.5191880000000 1.0
C      1  0.4935220000000  0.4150960000000  0.4786370000000 1.0
C      1  0.5391590000000  0.3987930000000  0.4790850000000 1.0
C      1  0.5144980000000  0.4002940000000  0.4678570000000 1.0
C      1  0.4958620000000  0.4205890000000  0.5070580000000 1.0
C      1  0.5422160000000  0.4118150000000  0.5037670000000 1.0
C      1  0.4640820000000  0.5091530000000  0.4967420000000 1.0
C      1  0.5140980000000  0.5145480000000  0.4927380000000 1.0
C      1  0.4980930000000  0.5115720000000  0.5387820000000 1.0
C      1  0.4687980000000  0.5063720000000  0.5272760000000 1.0
C      1  0.5236850000000  0.5076260000000  0.5188830000000 1.0
C      1  0.4901590000000  0.5031180000000  0.4825270000000 1.0
C      1  0.4801280000000  0.4383820000000  0.5215590000000 1.0
C      1  0.4763760000000  0.4291390000000  0.4618140000000 1.0
C      1  0.5518720000000  0.4378560000000  0.5023070000000 1.0
C      1  0.5223960000000  0.5876220000000  0.5290460000000 1.0
C      1  0.5265240000000  0.5882920000000  0.4702460000000 1.0
C      1  0.4754570000000  0.5916900000000  0.4954540000000 1.0
C      1  0.4765140000000  0.4632320000000  0.5342470000000 1.0
C      1  0.5431670000000  0.4637180000000  0.4972310000000 1.0
C      1  0.4699840000000  0.4562010000000  0.4621140000000 1.0
C      1  0.5265460000000  0.5343940000000  0.5529640000000 1.0
C      1  0.5405830000000  0.5421970000000  0.4449850000000 1.0
C      1  0.4531680000000  0.5375330000000  0.4923640000000 1.0
END
