TITL C-2330494-3474-19 1.80538811765896e-07 125000 -362.399660670271 0 0 60 (C1) n - 1
REM
REM in /home/bkarasulu/CARBON/AIRSS/Generating-Clusters/EDIP-Nigel-Params/Higher-Symm/Box-15A/Only-C60/SD-CG/HFTN-CG
REM
REM
REM
REM
REM
REM ./C.cell (414f73aa93bd7a1190c7fd0f31ff2f98)
REM
REM compiler GCC version 9.2.1 20190827 (Red Hat 9.2.1-1)
REM options -cpp -mtune=generic -march=x86-64 -g -O0 -fpre-include=/usr/include/finclude/math-vector-fortran.h
REM seed 114592344 -1375571880 -578962942 1879023411 -1982153235 1136927623 1839912241 575834269 -1010651325 120747731 -25846527 944561923 1690557997 -1307586786 609001246 -461019675 -192426102 -1892974539 2094614347 1111929102 234936608 -1478245537 421486954 1551331365 -1445370016 2098503687 623221831 1736619523 739752830 -536523983 1113622153 -1604459684 129417413
REM
CELL 1.54180   50.00000   50.00000   50.00000   90.00000   90.00000   90.00000
LATT -1
SFAC C  
C      1  0.5019930000000  0.4708710000000  0.4865810000000 1.0
C      1  0.4744570000000  0.5134160000000  0.4857050000000 1.0
C      1  0.5261340000000  0.5147830000000  0.4856110000000 1.0
C      1  0.5018000000000  0.4709730000000  0.5168250000000 1.0
C      1  0.4748240000000  0.5144350000000  0.5159180000000 1.0
C      1  0.5256680000000  0.5160940000000  0.5159120000000 1.0
C      1  0.4617460000000  0.5479440000000  0.5482630000000 1.0
C      1  0.5642120000000  0.5072390000000  0.5443100000000 1.0
C      1  0.4759910000000  0.4409980000000  0.5448480000000 1.0
C      1  0.4611420000000  0.5496430000000  0.4554120000000 1.0
C      1  0.5607300000000  0.5095130000000  0.4518890000000 1.0
C      1  0.4756010000000  0.4449280000000  0.4544710000000 1.0
C      1  0.5136790000000  0.5481030000000  0.5540640000000 1.0
C      1  0.5392770000000  0.4617490000000  0.5525030000000 1.0
C      1  0.4491100000000  0.4847790000000  0.5534290000000 1.0
C      1  0.5120370000000  0.5498170000000  0.4472390000000 1.0
C      1  0.5344200000000  0.4649990000000  0.4457680000000 1.0
C      1  0.4477210000000  0.4866800000000  0.4458130000000 1.0
C      1  0.5272500000000  0.5043110000000  0.5758980000000 1.0
C      1  0.4932580000000  0.4723070000000  0.5732310000000 1.0
C      1  0.4824620000000  0.5176920000000  0.5765940000000 1.0
C      1  0.5237820000000  0.5070660000000  0.4220960000000 1.0
C      1  0.4898860000000  0.4751470000000  0.4219130000000 1.0
C      1  0.4793110000000  0.5210990000000  0.4230540000000 1.0
C      1  0.5173240000000  0.4799410000000  0.4256080000000 1.0
C      1  0.4694520000000  0.4946180000000  0.4253240000000 1.0
C      1  0.5064240000000  0.5286950000000  0.4260010000000 1.0
C      1  0.5207830000000  0.4773810000000  0.5708850000000 1.0
C      1  0.4731230000000  0.4918660000000  0.5707850000000 1.0
C      1  0.5093450000000  0.5257730000000  0.5739300000000 1.0
C      1  0.5251190000000  0.4401140000000  0.4625220000000 1.0
C      1  0.4326420000000  0.5085910000000  0.4630230000000 1.0
C      1  0.5387680000000  0.5529930000000  0.4636160000000 1.0
C      1  0.5271200000000  0.4381640000000  0.5359620000000 1.0
C      1  0.4342520000000  0.5070290000000  0.5370160000000 1.0
C      1  0.5401910000000  0.5522210000000  0.5375520000000 1.0
C      1  0.5363870000000  0.5682670000000  0.4873680000000 1.0
C      1  0.5409820000000  0.4338680000000  0.4850890000000 1.0
C      1  0.4205860000000  0.4978130000000  0.4864800000000 1.0
C      1  0.5369470000000  0.5683610000000  0.5145250000000 1.0
C      1  0.5414800000000  0.4326340000000  0.5121970000000 1.0
C      1  0.4214390000000  0.4976580000000  0.5135950000000 1.0
C      1  0.5534040000000  0.4837250000000  0.4610690000000 1.0
C      1  0.4607910000000  0.4674050000000  0.4645600000000 1.0
C      1  0.4874490000000  0.5545910000000  0.4647440000000 1.0
C      1  0.5537540000000  0.4825660000000  0.5346420000000 1.0
C      1  0.4590610000000  0.4618980000000  0.5351790000000 1.0
C      1  0.4876350000000  0.5547230000000  0.5387780000000 1.0
C      1  0.5509340000000  0.5265110000000  0.5279850000000 1.0
C      1  0.4991100000000  0.4437690000000  0.5282480000000 1.0
C      1  0.4525450000000  0.5288950000000  0.5293090000000 1.0
C      1  0.5494510000000  0.5268170000000  0.4713480000000 1.0
C      1  0.4979930000000  0.4445240000000  0.4725090000000 1.0
C      1  0.4522530000000  0.5286040000000  0.4724140000000 1.0
C      1  0.4989470000000  0.5315200000000  0.5215890000000 1.0
C      1  0.5241620000000  0.4884790000000  0.5279540000000 1.0
C      1  0.4781270000000  0.4856030000000  0.5271420000000 1.0
C      1  0.4989550000000  0.5284880000000  0.4775280000000 1.0
C      1  0.5277160000000  0.4858420000000  0.4784720000000 1.0
C      1  0.4788550000000  0.4854630000000  0.4777040000000 1.0
END
