TITL C-2330489-2321-14 -1.55661133032655e-05 125000 -356.712465466792 0 0 60 (C2h) n - 1
REM
REM in /home/bkarasulu/CARBON/AIRSS/Generating-Clusters/EDIP-Nigel-Params/Higher-Symm/Box-15A/Only-C60/SD-CG/HFTN-CG
REM
REM
REM
REM
REM
REM ./C.cell (414f73aa93bd7a1190c7fd0f31ff2f98)
REM
REM compiler GCC version 9.2.1 20190827 (Red Hat 9.2.1-1)
REM options -cpp -mtune=generic -march=x86-64 -g -O0 -fpre-include=/usr/include/finclude/math-vector-fortran.h
REM seed -1847826130 -63400855 -1862130965 802660282 2072850237 -219386684 1377160514 -460009104 -1819302104 95035071 -1190147828 -74449244 -1594535000 -2050529218 945525389 -1747298087 -564287457 -2009676009 -1390766695 450712220 187299572 1643221627 563540181 728818995 -1307814712 -1311711390 81335866 1138918390 -1147662021 -1842356687 -1495583849 728776661 -880578898
REM
CELL 1.54180   50.00000   50.00000   50.00000   90.00000   90.00000   90.00000
LATT -1
SFAC C  
C      1  0.4848440000000  0.5166100000000  0.5790430000000 1.0
C      1  0.5160100000000  0.5147650000000  0.4216500000000 1.0
C      1  0.4839900000000  0.4852350000000  0.5783500000000 1.0
C      1  0.5151560000000  0.4833900000000  0.4209570000000 1.0
C      1  0.5159070000000  0.5153460000000  0.5782600000000 1.0
C      1  0.4849480000000  0.5160240000000  0.4208160000000 1.0
C      1  0.5150520000000  0.4839760000000  0.5791840000000 1.0
C      1  0.4840930000000  0.4846540000000  0.4217400000000 1.0
C      1  0.4713040000000  0.5438920000000  0.5323160000000 1.0
C      1  0.5209870000000  0.5238590000000  0.4740660000000 1.0
C      1  0.4790130000000  0.4761410000000  0.5259340000000 1.0
C      1  0.5286960000000  0.4561080000000  0.4676840000000 1.0
C      1  0.5209530000000  0.5240500000000  0.5257840000000 1.0
C      1  0.4713460000000  0.5436520000000  0.4673230000000 1.0
C      1  0.5286540000000  0.4563480000000  0.5326770000000 1.0
C      1  0.4790470000000  0.4759500000000  0.4742160000000 1.0
C      1  0.4918510000000  0.5298230000000  0.4836410000000 1.0
C      1  0.5255060000000  0.4968410000000  0.5147870000000 1.0
C      1  0.4744940000000  0.5031590000000  0.4852130000000 1.0
C      1  0.5081490000000  0.4701770000000  0.5163590000000 1.0
C      1  0.5255260000000  0.4967320000000  0.4852700000000 1.0
C      1  0.4918290000000  0.5299430000000  0.5161260000000 1.0
C      1  0.5081710000000  0.4700570000000  0.4838740000000 1.0
C      1  0.4744740000000  0.5032680000000  0.5147300000000 1.0
C      1  0.4324940000000  0.4618880000000  0.5258120000000 1.0
C      1  0.5770590000000  0.4618310000000  0.4717520000000 1.0
C      1  0.4229410000000  0.5381690000000  0.5282480000000 1.0
C      1  0.5675060000000  0.5381120000000  0.4741880000000 1.0
C      1  0.5770210000000  0.4620420000000  0.5286320000000 1.0
C      1  0.4325280000000  0.4616980000000  0.4743820000000 1.0
C      1  0.5674720000000  0.5383020000000  0.5256180000000 1.0
C      1  0.4229790000000  0.5379580000000  0.4713680000000 1.0
C      1  0.4129340000000  0.4789790000000  0.4656400000000 1.0
C      1  0.5923780000000  0.4831860000000  0.5372260000000 1.0
C      1  0.4076220000000  0.5168140000000  0.4627740000000 1.0
C      1  0.5870660000000  0.5210210000000  0.5343600000000 1.0
C      1  0.5924260000000  0.4829110000000  0.4630210000000 1.0
C      1  0.4128890000000  0.4792340000000  0.5344000000000 1.0
C      1  0.5871110000000  0.5207660000000  0.4656000000000 1.0
C      1  0.4075740000000  0.5170890000000  0.5369790000000 1.0
C      1  0.5422370000000  0.5415550000000  0.4854370000000 1.0
C      1  0.4466860000000  0.5438570000000  0.5150110000000 1.0
C      1  0.5533140000000  0.4561430000000  0.4849890000000 1.0
C      1  0.4577630000000  0.4584450000000  0.5145630000000 1.0
C      1  0.4467060000000  0.5437450000000  0.4845940000000 1.0
C      1  0.5422180000000  0.5416620000000  0.5143100000000 1.0
C      1  0.4577820000000  0.4583380000000  0.4856900000000 1.0
C      1  0.5532940000000  0.4562550000000  0.5154060000000 1.0
C      1  0.4720860000000  0.5314530000000  0.4415350000000 1.0
C      1  0.5243030000000  0.5246740000000  0.5537590000000 1.0
C      1  0.4756970000000  0.4753260000000  0.4462410000000 1.0
C      1  0.5279140000000  0.4685470000000  0.5584650000000 1.0
C      1  0.5243740000000  0.5242760000000  0.4460920000000 1.0
C      1  0.4720100000000  0.5318850000000  0.5581940000000 1.0
C      1  0.5279900000000  0.4681150000000  0.4418060000000 1.0
C      1  0.4756260000000  0.4757240000000  0.5539080000000 1.0
C      1  0.5830040000000  0.5021750000000  0.4455360000000 1.0
C      1  0.4169960000000  0.4978250000000  0.5544640000000 1.0
C      1  0.5829320000000  0.5025790000000  0.5545550000000 1.0
C      1  0.4170680000000  0.4974210000000  0.4454450000000 1.0
END
