TITL C-2330497-5381-41 3.19345729077645e-06 125000 -367.86648810425 0 0 60 (C2) n - 1
REM
REM in /home/bkarasulu/CARBON/AIRSS/Generating-Clusters/EDIP-Nigel-Params/Higher-Symm/Box-15A/Only-C60/SD-CG/HFTN-CG
REM
REM
REM
REM
REM
REM ./C.cell (414f73aa93bd7a1190c7fd0f31ff2f98)
REM
REM compiler GCC version 9.2.1 20190827 (Red Hat 9.2.1-1)
REM options -cpp -mtune=generic -march=x86-64 -g -O0 -fpre-include=/usr/include/finclude/math-vector-fortran.h
REM seed 1417818247 36354660 1639469601 -1810434216 1346147197 -728085723 -1078519322 -1615765845 -496259868 -624748179 300518202 -1546272261 -2044223823 130696408 -962990385 998379173 1615484485 -1943121005 891855121 865237356 1521005668 -1022317279 -1609991125 2120164556 -698407695 -22660444 1744628660 -14362518 -1001226092 -960591678 874714792 -121543847 -790856154
REM
CELL 1.54180   50.00000   50.00000   50.00000   90.00000   90.00000   90.00000
LATT -1
SFAC C  
C      1  0.5570690000000  0.4822720000000  0.5038320000000 1.0
C      1  0.4427630000000  0.4827870000000  0.4963250000000 1.0
C      1  0.4822190000000  0.5087880000000  0.4365690000000 1.0
C      1  0.5178670000000  0.5091840000000  0.5633510000000 1.0
C      1  0.5478610000000  0.5382730000000  0.5359350000000 1.0
C      1  0.4525070000000  0.5384070000000  0.4637220000000 1.0
C      1  0.4855040000000  0.5609940000000  0.4962120000000 1.0
C      1  0.5150810000000  0.5608840000000  0.5032430000000 1.0
C      1  0.4718620000000  0.4434440000000  0.4888300000000 1.0
C      1  0.5275950000000  0.4432780000000  0.5116760000000 1.0
C      1  0.5190000000000  0.5446860000000  0.5289610000000 1.0
C      1  0.4814280000000  0.5446050000000  0.4706400000000 1.0
C      1  0.4744350000000  0.4799280000000  0.5552260000000 1.0
C      1  0.5253690000000  0.4791900000000  0.4449560000000 1.0
C      1  0.5318460000000  0.5438270000000  0.4827000000000 1.0
C      1  0.4685770000000  0.5442840000000  0.5169070000000 1.0
C      1  0.4375520000000  0.5084690000000  0.5258060000000 1.0
C      1  0.5625250000000  0.5076380000000  0.4741220000000 1.0
C      1  0.4759370000000  0.4611970000000  0.4430160000000 1.0
C      1  0.5236920000000  0.4614790000000  0.5573290000000 1.0
C      1  0.4462090000000  0.4490820000000  0.5278360000000 1.0
C      1  0.5532990000000  0.4483210000000  0.4726220000000 1.0
C      1  0.5271130000000  0.5503080000000  0.4537870000000 1.0
C      1  0.4733730000000  0.5509770000000  0.5457600000000 1.0
C      1  0.5142980000000  0.4838210000000  0.5276680000000 1.0
C      1  0.4855470000000  0.4837120000000  0.4724770000000 1.0
C      1  0.5439630000000  0.5117030000000  0.5481490000000 1.0
C      1  0.4561490000000  0.5116940000000  0.4517470000000 1.0
C      1  0.5039550000000  0.4823900000000  0.5659720000000 1.0
C      1  0.4958740000000  0.4818390000000  0.4341870000000 1.0
C      1  0.5527830000000  0.4524460000000  0.5003920000000 1.0
C      1  0.4467630000000  0.4529530000000  0.5000310000000 1.0
C      1  0.4969990000000  0.5316820000000  0.4272620000000 1.0
C      1  0.5033080000000  0.5323000000000  0.5724520000000 1.0
C      1  0.5602230000000  0.5349480000000  0.4869470000000 1.0
C      1  0.4401160000000  0.5356390000000  0.5127380000000 1.0
C      1  0.4686720000000  0.4893360000000  0.5127920000000 1.0
C      1  0.5312240000000  0.4889220000000  0.4873060000000 1.0
C      1  0.4908080000000  0.4674920000000  0.5131680000000 1.0
C      1  0.5088790000000  0.4672890000000  0.4871230000000 1.0
C      1  0.5161160000000  0.4410300000000  0.5384770000000 1.0
C      1  0.4833170000000  0.4408460000000  0.4620510000000 1.0
C      1  0.5329820000000  0.4518810000000  0.4536160000000 1.0
C      1  0.4665600000000  0.4526170000000  0.5468110000000 1.0
C      1  0.4447630000000  0.4910520000000  0.4682630000000 1.0
C      1  0.5551500000000  0.4908070000000  0.5318180000000 1.0
C      1  0.5107100000000  0.4353330000000  0.4581960000000 1.0
C      1  0.4886710000000  0.4358150000000  0.5423800000000 1.0
C      1  0.4556800000000  0.5040620000000  0.5518180000000 1.0
C      1  0.5443550000000  0.5031730000000  0.4481490000000 1.0
C      1  0.4667260000000  0.5286000000000  0.5634150000000 1.0
C      1  0.5335440000000  0.5277110000000  0.4363330000000 1.0
C      1  0.4347740000000  0.5380530000000  0.4855180000000 1.0
C      1  0.5655890000000  0.5375530000000  0.5141450000000 1.0
C      1  0.4985780000000  0.5529320000000  0.4471820000000 1.0
C      1  0.5019320000000  0.5533860000000  0.5523430000000 1.0
C      1  0.5098930000000  0.5157960000000  0.5199120000000 1.0
C      1  0.4902580000000  0.5157110000000  0.4799470000000 1.0
C      1  0.4805390000000  0.5167270000000  0.5103100000000 1.0
C      1  0.5196200000000  0.5164460000000  0.4895420000000 1.0
END
