TITL C-2330494-3474-4 1.75936690274655e-05 125000 -362.935144548623 0 0 60 (C1) n - 1
REM
REM in /home/bkarasulu/CARBON/AIRSS/Generating-Clusters/EDIP-Nigel-Params/Higher-Symm/Box-15A/Only-C60/SD-CG/HFTN-CG
REM
REM
REM
REM
REM
REM ./C.cell (414f73aa93bd7a1190c7fd0f31ff2f98)
REM
REM compiler GCC version 9.2.1 20190827 (Red Hat 9.2.1-1)
REM options -cpp -mtune=generic -march=x86-64 -g -O0 -fpre-include=/usr/include/finclude/math-vector-fortran.h
REM seed 790572962 1518562946 -1017529585 -1477868488 1057215087 459754439 6041638 1285316376 -815636683 1629635091 775471309 -1902445512 1912979097 -1414118407 1228208955 -181792061 -785832835 -982266983 769704814 -2051381682 -910912095 1575653021 -1366903669 -1447610106 -306165231 -1010319483 628015013 -409844312 1954359301 -457245896 974043862 -1117271714 -994681456
REM
CELL 1.54180   50.00000   50.00000   50.00000   90.00000   90.00000   90.00000
LATT -1
SFAC C  
C      1  0.4578090000000  0.5323050000000  0.4769320000000 1.0
C      1  0.4755310000000  0.5493780000000  0.5386660000000 1.0
C      1  0.5084320000000  0.5485560000000  0.4742940000000 1.0
C      1  0.5289060000000  0.5486600000000  0.5265650000000 1.0
C      1  0.5492790000000  0.5101800000000  0.4677360000000 1.0
C      1  0.5540860000000  0.5002230000000  0.5341020000000 1.0
C      1  0.5383720000000  0.4577120000000  0.4731030000000 1.0
C      1  0.5259270000000  0.4528390000000  0.5285340000000 1.0
C      1  0.4885160000000  0.4433510000000  0.4579630000000 1.0
C      1  0.4715040000000  0.4568750000000  0.5331830000000 1.0
C      1  0.4472470000000  0.4817440000000  0.4593590000000 1.0
C      1  0.4447360000000  0.5047200000000  0.5281060000000 1.0
C      1  0.5297170000000  0.5490300000000  0.5767750000000 1.0
C      1  0.5545180000000  0.5165000000000  0.4218560000000 1.0
C      1  0.5563860000000  0.5003610000000  0.5809950000000 1.0
C      1  0.5408350000000  0.4626220000000  0.4229530000000 1.0
C      1  0.5263260000000  0.4537030000000  0.5784060000000 1.0
C      1  0.4889220000000  0.4460580000000  0.4102310000000 1.0
C      1  0.4709180000000  0.4554620000000  0.5808490000000 1.0
C      1  0.4479160000000  0.4839550000000  0.4119590000000 1.0
C      1  0.4456000000000  0.5048760000000  0.5781940000000 1.0
C      1  0.4608090000000  0.5361590000000  0.4267850000000 1.0
C      1  0.4745860000000  0.5520320000000  0.5830850000000 1.0
C      1  0.5133720000000  0.5538420000000  0.4257320000000 1.0
C      1  0.4646670000000  0.4459360000000  0.5565700000000 1.0
C      1  0.4355850000000  0.4793180000000  0.4353800000000 1.0
C      1  0.4355070000000  0.5049240000000  0.5533200000000 1.0
C      1  0.4528090000000  0.5407850000000  0.4519710000000 1.0
C      1  0.4681160000000  0.5641010000000  0.5598860000000 1.0
C      1  0.5127760000000  0.5614760000000  0.4513720000000 1.0
C      1  0.5345380000000  0.5568910000000  0.5515430000000 1.0
C      1  0.5645390000000  0.5168310000000  0.4467830000000 1.0
C      1  0.5681340000000  0.4999570000000  0.5568570000000 1.0
C      1  0.5465130000000  0.4539180000000  0.4477220000000 1.0
C      1  0.5305560000000  0.4445420000000  0.5535740000000 1.0
C      1  0.4863120000000  0.4328430000000  0.4334620000000 1.0
C      1  0.5223640000000  0.4811540000000  0.4134970000000 1.0
C      1  0.5140200000000  0.4771750000000  0.5867240000000 1.0
C      1  0.4953240000000  0.4730760000000  0.4083790000000 1.0
C      1  0.4854060000000  0.4783740000000  0.5868430000000 1.0
C      1  0.4742200000000  0.4925860000000  0.4091040000000 1.0
C      1  0.4719520000000  0.5036560000000  0.5870100000000 1.0
C      1  0.4803960000000  0.5197580000000  0.4158560000000 1.0
C      1  0.4873370000000  0.5278950000000  0.5884300000000 1.0
C      1  0.5076680000000  0.5283860000000  0.4162410000000 1.0
C      1  0.5159950000000  0.5268300000000  0.5864450000000 1.0
C      1  0.5288180000000  0.5090820000000  0.4142280000000 1.0
C      1  0.5292860000000  0.5014360000000  0.5870080000000 1.0
C      1  0.4716400000000  0.4872390000000  0.4711260000000 1.0
C      1  0.4715390000000  0.5046870000000  0.5175770000000 1.0
C      1  0.4754700000000  0.5121070000000  0.4872040000000 1.0
C      1  0.4874220000000  0.5256390000000  0.5308750000000 1.0
C      1  0.5059300000000  0.5233350000000  0.4874300000000 1.0
C      1  0.5138550000000  0.5256490000000  0.5178280000000 1.0
C      1  0.5236160000000  0.5029670000000  0.4751200000000 1.0
C      1  0.5279810000000  0.5004020000000  0.5250110000000 1.0
C      1  0.5177750000000  0.4749370000000  0.4836470000000 1.0
C      1  0.5146020000000  0.4756320000000  0.5152870000000 1.0
C      1  0.4917350000000  0.4670510000000  0.4718390000000 1.0
C      1  0.4853470000000  0.4782820000000  0.5224890000000 1.0
END
