TITL C-2330496-4560-19 6.77832053746534e-07 125000 -354.526433856969 0 0 60 (D3) n - 1
REM
REM in /home/bkarasulu/CARBON/AIRSS/Generating-Clusters/EDIP-Nigel-Params/Higher-Symm/Box-15A/Only-C60/SD-CG/HFTN-CG
REM
REM
REM
REM
REM
REM ./C.cell (414f73aa93bd7a1190c7fd0f31ff2f98)
REM
REM compiler GCC version 9.2.1 20190827 (Red Hat 9.2.1-1)
REM options -cpp -mtune=generic -march=x86-64 -g -O0 -fpre-include=/usr/include/finclude/math-vector-fortran.h
REM seed -97323184 1228638100 1850386676 868373318 1594017475 -54905530 81529291 745931005 41583326 -897155157 1187272811 -1869683314 156608771 -584010075 2031751342 -566750849 -1291638028 -710520439 1867302272 1264374877 -1307519900 -1802553929 -1807084300 -1047722733 -1791121323 2133320288 -729709007 -2019021934 1527252150 1403411912 -57334345 1689502553 -1250690851
REM
CELL 1.54180   50.00000   50.00000   50.00000   90.00000   90.00000   90.00000
LATT -1
SFAC C  
C      1  0.5315780000000  0.4579140000000  0.4392740000000 1.0
C      1  0.4478830000000  0.4932760000000  0.4392170000000 1.0
C      1  0.5203540000000  0.5480760000000  0.4389230000000 1.0
C      1  0.5317870000000  0.5420210000000  0.5606620000000 1.0
C      1  0.4480200000000  0.5068320000000  0.5608880000000 1.0
C      1  0.5203780000000  0.4518820000000  0.5610360000000 1.0
C      1  0.4778910000000  0.5170480000000  0.4831250000000 1.0
C      1  0.5258520000000  0.5105060000000  0.4831020000000 1.0
C      1  0.4962060000000  0.4722430000000  0.4832860000000 1.0
C      1  0.4778900000000  0.4829970000000  0.5169200000000 1.0
C      1  0.5258640000000  0.4894400000000  0.5168460000000 1.0
C      1  0.4962970000000  0.5277650000000  0.5167220000000 1.0
C      1  0.4980570000000  0.5648250000000  0.4526070000000 1.0
C      1  0.5572050000000  0.4689450000000  0.4529330000000 1.0
C      1  0.4445950000000  0.4656620000000  0.4530600000000 1.0
C      1  0.4980190000000  0.4351790000000  0.5473970000000 1.0
C      1  0.5573640000000  0.5309370000000  0.5469520000000 1.0
C      1  0.4447610000000  0.5344520000000  0.5470520000000 1.0
C      1  0.5594120000000  0.5025460000000  0.5493730000000 1.0
C      1  0.4724020000000  0.4476170000000  0.5496820000000 1.0
C      1  0.4683360000000  0.5504330000000  0.5492730000000 1.0
C      1  0.5593070000000  0.4973320000000  0.4505070000000 1.0
C      1  0.4724100000000  0.5524400000000  0.4503740000000 1.0
C      1  0.4681330000000  0.4496320000000  0.4507920000000 1.0
C      1  0.4752820000000  0.5105030000000  0.5265270000000 1.0
C      1  0.5214030000000  0.5163380000000  0.5264570000000 1.0
C      1  0.5033960000000  0.4734780000000  0.5266470000000 1.0
C      1  0.4752060000000  0.4895480000000  0.4735230000000 1.0
C      1  0.5213160000000  0.4836180000000  0.4735000000000 1.0
C      1  0.5033970000000  0.5265150000000  0.4733460000000 1.0
C      1  0.5179240000000  0.5138980000000  0.5575210000000 1.0
C      1  0.5029610000000  0.4779260000000  0.5576810000000 1.0
C      1  0.4792900000000  0.5088710000000  0.5575810000000 1.0
C      1  0.5177790000000  0.4860650000000  0.4424430000000 1.0
C      1  0.5028900000000  0.5220680000000  0.4423130000000 1.0
C      1  0.4791550000000  0.4911720000000  0.4424610000000 1.0
C      1  0.4445790000000  0.4695580000000  0.4825580000000 1.0
C      1  0.5013810000000  0.5630950000000  0.4821250000000 1.0
C      1  0.5539860000000  0.4671340000000  0.4824570000000 1.0
C      1  0.4446770000000  0.5305560000000  0.5175530000000 1.0
C      1  0.5012870000000  0.4369020000000  0.5178730000000 1.0
C      1  0.5540890000000  0.5327540000000  0.5174340000000 1.0
C      1  0.4905250000000  0.5544570000000  0.5304370000000 1.0
C      1  0.5518390000000  0.4811890000000  0.5306690000000 1.0
C      1  0.4577300000000  0.4647240000000  0.5308310000000 1.0
C      1  0.4903510000000  0.4455630000000  0.4695830000000 1.0
C      1  0.5518160000000  0.5187040000000  0.4692260000000 1.0
C      1  0.4577400000000  0.5353630000000  0.4692550000000 1.0
C      1  0.4530310000000  0.4494690000000  0.5033140000000 1.0
C      1  0.4797170000000  0.5659630000000  0.5028180000000 1.0
C      1  0.5672620000000  0.4846050000000  0.5030560000000 1.0
C      1  0.4531290000000  0.5506280000000  0.4967810000000 1.0
C      1  0.4795750000000  0.4340790000000  0.4972230000000 1.0
C      1  0.5672870000000  0.5152560000000  0.4968080000000 1.0
C      1  0.5157260000000  0.4398690000000  0.4551120000000 1.0
C      1  0.4401500000000  0.5161350000000  0.4548820000000 1.0
C      1  0.5439870000000  0.5434520000000  0.4546670000000 1.0
C      1  0.5159410000000  0.5600990000000  0.5448560000000 1.0
C      1  0.4402080000000  0.4839880000000  0.5452390000000 1.0
C      1  0.5439890000000  0.4564570000000  0.5452440000000 1.0
END
