TITL C-2330491-2496-3 4.56719517742918e-06 125000 -364.856118969077 0 0 60 (C1) n - 1
REM
REM in /home/bkarasulu/CARBON/AIRSS/Generating-Clusters/EDIP-Nigel-Params/Higher-Symm/Box-15A/Only-C60/SD-CG/HFTN-CG
REM
REM
REM
REM
REM
REM ./C.cell (414f73aa93bd7a1190c7fd0f31ff2f98)
REM
REM compiler GCC version 9.2.1 20190827 (Red Hat 9.2.1-1)
REM options -cpp -mtune=generic -march=x86-64 -g -O0 -fpre-include=/usr/include/finclude/math-vector-fortran.h
REM seed -1845113400 127062224 -1949782108 -1164043175 1839051626 -1933757851 1522082385 75254119 -825343775 2070416995 -2114739120 -1144560717 -244422367 1690356506 -1859134604 1421574567 -1874531610 -886951330 739363444 1729977270 -189045760 471959152 537461981 1682527300 1245858805 -1292590907 -2069118603 622902080 1897578362 86198243 -162231366 -145168816 367539662
REM
CELL 1.54180   50.00000   50.00000   50.00000   90.00000   90.00000   90.00000
LATT -1
SFAC C  
C      1  0.5033630000000  0.5509400000000  0.4572720000000 1.0
C      1  0.4580460000000  0.5331490000000  0.4584970000000 1.0
C      1  0.4492710000000  0.4861490000000  0.4572960000000 1.0
C      1  0.4708400000000  0.4443290000000  0.4584090000000 1.0
C      1  0.5229920000000  0.4432470000000  0.4544080000000 1.0
C      1  0.5566990000000  0.4801970000000  0.4528740000000 1.0
C      1  0.5359340000000  0.5209150000000  0.4714590000000 1.0
C      1  0.5229420000000  0.5452260000000  0.4782480000000 1.0
C      1  0.4765210000000  0.5546650000000  0.4671670000000 1.0
C      1  0.4560240000000  0.5083270000000  0.4788080000000 1.0
C      1  0.4464260000000  0.4588250000000  0.4657160000000 1.0
C      1  0.5147650000000  0.4643140000000  0.4750970000000 1.0
C      1  0.5433160000000  0.4757900000000  0.4796700000000 1.0
C      1  0.5458640000000  0.5029440000000  0.4920680000000 1.0
C      1  0.5865700000000  0.4603140000000  0.4827040000000 1.0
C      1  0.5775170000000  0.5351310000000  0.4988590000000 1.0
C      1  0.5192350000000  0.5843610000000  0.5036540000000 1.0
C      1  0.4445420000000  0.5680530000000  0.4980980000000 1.0
C      1  0.4154120000000  0.5002880000000  0.5030740000000 1.0
C      1  0.4551270000000  0.4348590000000  0.5036390000000 1.0
C      1  0.5230710000000  0.4257250000000  0.5013080000000 1.0
C      1  0.4330820000000  0.5457270000000  0.4857520000000 1.0
C      1  0.4210370000000  0.4739290000000  0.5043660000000 1.0
C      1  0.4776650000000  0.4344600000000  0.4857830000000 1.0
C      1  0.5444810000000  0.4310690000000  0.4840300000000 1.0
C      1  0.5859860000000  0.4880340000000  0.4767760000000 1.0
C      1  0.5612180000000  0.5564710000000  0.5029650000000 1.0
C      1  0.4922250000000  0.5852290000000  0.5014630000000 1.0
C      1  0.5145130000000  0.5302670000000  0.5740960000000 1.0
C      1  0.4915900000000  0.5400900000000  0.5888190000000 1.0
C      1  0.4724420000000  0.5195190000000  0.5824450000000 1.0
C      1  0.4875520000000  0.4929280000000  0.5856430000000 1.0
C      1  0.4880760000000  0.4598570000000  0.5672520000000 1.0
C      1  0.5097030000000  0.4607510000000  0.5474420000000 1.0
C      1  0.5243070000000  0.4876680000000  0.5521740000000 1.0
C      1  0.5333290000000  0.4861610000000  0.4357370000000 1.0
C      1  0.5180800000000  0.5067500000000  0.4524940000000 1.0
C      1  0.5025270000000  0.5280530000000  0.4378630000000 1.0
C      1  0.4747000000000  0.5185680000000  0.4353810000000 1.0
C      1  0.4763770000000  0.4884550000000  0.4436810000000 1.0
C      1  0.4869420000000  0.4628560000000  0.4308150000000 1.0
C      1  0.5169210000000  0.4601970000000  0.4309580000000 1.0
C      1  0.4964210000000  0.4637070000000  0.5209290000000 1.0
C      1  0.5140630000000  0.5069540000000  0.5312640000000 1.0
C      1  0.5087700000000  0.5334850000000  0.5444070000000 1.0
C      1  0.4815840000000  0.5415430000000  0.5403070000000 1.0
C      1  0.4644280000000  0.5227500000000  0.5533500000000 1.0
C      1  0.4653250000000  0.4960200000000  0.5399540000000 1.0
C      1  0.4647330000000  0.4750120000000  0.5603300000000 1.0
C      1  0.5602820000000  0.4545810000000  0.4913290000000 1.0
C      1  0.5743940000000  0.5071750000000  0.4964200000000 1.0
C      1  0.5366290000000  0.5653070000000  0.4929940000000 1.0
C      1  0.4711310000000  0.5708570000000  0.4899960000000 1.0
C      1  0.4351790000000  0.5187820000000  0.4967740000000 1.0
C      1  0.4398360000000  0.4562400000000  0.4935490000000 1.0
C      1  0.5030570000000  0.4464320000000  0.4970190000000 1.0
C      1  0.4890340000000  0.4931530000000  0.5196960000000 1.0
C      1  0.4973240000000  0.4897030000000  0.4672990000000 1.0
C      1  0.5164390000000  0.5003140000000  0.5785310000000 1.0
C      1  0.4832390000000  0.5022510000000  0.4911080000000 1.0
END
