TITL C-2330496-4560-39 1.45256234224973e-06 125000 -357.030004900414 0 0 60 (C1) n - 1
REM
REM in /home/bkarasulu/CARBON/AIRSS/Generating-Clusters/EDIP-Nigel-Params/Higher-Symm/Box-15A/Only-C60/SD-CG/HFTN-CG
REM
REM
REM
REM
REM
REM ./C.cell (414f73aa93bd7a1190c7fd0f31ff2f98)
REM
REM compiler GCC version 9.2.1 20190827 (Red Hat 9.2.1-1)
REM options -cpp -mtune=generic -march=x86-64 -g -O0 -fpre-include=/usr/include/finclude/math-vector-fortran.h
REM seed 241040130 -271547468 1552694026 805428795 1296836556 20441608 -818054301 1254194121 -143354807 2042662430 1240771035 1505118075 1944435719 1823864740 -1086990071 100937249 -1623214570 1585814720 168207426 -1633255068 -1594947714 -16912545 1237403619 -1988716743 -2121232872 1384393059 1704558641 -342129941 946003236 -420781176 -718352188 1832196563 -901820201
REM
CELL 1.54180   50.00000   50.00000   50.00000   90.00000   90.00000   90.00000
LATT -1
SFAC C  
C      1  0.5157610000000  0.5426220000000  0.4911860000000 1.0
C      1  0.5158000000000  0.5094660000000  0.5426960000000 1.0
C      1  0.5154440000000  0.4574700000000  0.5095260000000 1.0
C      1  0.5142980000000  0.4910100000000  0.4607610000000 1.0
C      1  0.4878400000000  0.4569050000000  0.4906990000000 1.0
C      1  0.4884020000000  0.4909420000000  0.5421070000000 1.0
C      1  0.4884160000000  0.5423570000000  0.5090050000000 1.0
C      1  0.4885740000000  0.5088800000000  0.4563560000000 1.0
C      1  0.5639100000000  0.4657690000000  0.5117650000000 1.0
C      1  0.5632370000000  0.4881570000000  0.4652840000000 1.0
C      1  0.5639120000000  0.5339980000000  0.4881420000000 1.0
C      1  0.5641450000000  0.5117640000000  0.5343320000000 1.0
C      1  0.4403630000000  0.5341200000000  0.5112890000000 1.0
C      1  0.4401850000000  0.5117350000000  0.4649540000000 1.0
C      1  0.4398350000000  0.4659360000000  0.4881540000000 1.0
C      1  0.4403080000000  0.4884270000000  0.5336950000000 1.0
C      1  0.5369760000000  0.4953110000000  0.4785010000000 1.0
C      1  0.5371810000000  0.5220410000000  0.4954410000000 1.0
C      1  0.5372960000000  0.5049070000000  0.5223600000000 1.0
C      1  0.5370900000000  0.4779430000000  0.5050550000000 1.0
C      1  0.4669690000000  0.5046540000000  0.4769400000000 1.0
C      1  0.4667570000000  0.4778670000000  0.4947770000000 1.0
C      1  0.4670010000000  0.4952860000000  0.5214210000000 1.0
C      1  0.4670230000000  0.5219300000000  0.5042130000000 1.0
C      1  0.5635740000000  0.4741940000000  0.5404230000000 1.0
C      1  0.5631020000000  0.4597120000000  0.4742080000000 1.0
C      1  0.5626910000000  0.5258230000000  0.4593320000000 1.0
C      1  0.5637890000000  0.5403400000000  0.5256920000000 1.0
C      1  0.4409710000000  0.5259980000000  0.5399150000000 1.0
C      1  0.4406440000000  0.5402170000000  0.4737090000000 1.0
C      1  0.4401650000000  0.4740880000000  0.4594580000000 1.0
C      1  0.4407530000000  0.4597650000000  0.5257190000000 1.0
C      1  0.4678770000000  0.5285200000000  0.5529770000000 1.0
C      1  0.4676660000000  0.4467730000000  0.5286660000000 1.0
C      1  0.4672610000000  0.4712820000000  0.4465510000000 1.0
C      1  0.4676560000000  0.5531710000000  0.4715210000000 1.0
C      1  0.5364200000000  0.4717720000000  0.5532050000000 1.0
C      1  0.5367590000000  0.5533800000000  0.5285480000000 1.0
C      1  0.5350700000000  0.5282180000000  0.4474240000000 1.0
C      1  0.5360200000000  0.4468890000000  0.4718630000000 1.0
C      1  0.4873690000000  0.4535260000000  0.4603800000000 1.0
C      1  0.4883880000000  0.5392310000000  0.4547970000000 1.0
C      1  0.4887730000000  0.5449410000000  0.5387990000000 1.0
C      1  0.4885160000000  0.4611420000000  0.5450400000000 1.0
C      1  0.5154410000000  0.5455330000000  0.4615310000000 1.0
C      1  0.5149010000000  0.4618240000000  0.4560110000000 1.0
C      1  0.5158780000000  0.4545870000000  0.5393940000000 1.0
C      1  0.5161380000000  0.5393590000000  0.5455650000000 1.0
C      1  0.5270780000000  0.4904270000000  0.5743230000000 1.0
C      1  0.5269360000000  0.4257810000000  0.4907220000000 1.0
C      1  0.5244450000000  0.5142350000000  0.4247730000000 1.0
C      1  0.5271880000000  0.5744130000000  0.5097770000000 1.0
C      1  0.4767820000000  0.5094620000000  0.5739030000000 1.0
C      1  0.4768370000000  0.5741750000000  0.4905070000000 1.0
C      1  0.4775340000000  0.4893290000000  0.4251350000000 1.0
C      1  0.4767320000000  0.4254870000000  0.5100870000000 1.0
C      1  0.5019650000000  0.4172300000000  0.5006160000000 1.0
C      1  0.5019020000000  0.5827000000000  0.5003210000000 1.0
C      1  0.5017690000000  0.4997000000000  0.5824920000000 1.0
C      1  0.5038130000000  0.4972760000000  0.4179530000000 1.0
END
