TITL C-2330499-3929-29 3.86412909529825e-07 125000 -375.1899500054 0 0 60 (C1) n - 1
REM
REM in /home/bkarasulu/CARBON/AIRSS/Generating-Clusters/EDIP-Nigel-Params/Higher-Symm/Box-15A/Only-C60/SD-CG/HFTN-CG
REM
REM
REM
REM
REM
REM ./C.cell (414f73aa93bd7a1190c7fd0f31ff2f98)
REM
REM compiler GCC version 9.2.1 20190827 (Red Hat 9.2.1-1)
REM options -cpp -mtune=generic -march=x86-64 -g -O0 -fpre-include=/usr/include/finclude/math-vector-fortran.h
REM seed 961254161 -819439553 -968755442 -1006819551 -841057842 2121084714 1827907102 -896708779 1011031276 1643281950 590417581 -1681788208 54174208 2044024397 -2126691313 -254917941 -205713052 585937515 580738627 -1502279312 -1919174028 1457743529 644756378 -1771915930 -1491610378 2077836311 -1562489641 -1022831736 1485513288 1706208330 2099838437 -680264199 1649932944
REM
CELL 1.54180   50.00000   50.00000   50.00000   90.00000   90.00000   90.00000
LATT -1
SFAC C  
C      1  0.5282110000000  0.4466730000000  0.5017650000000 1.0
C      1  0.4725350000000  0.4483190000000  0.5019850000000 1.0
C      1  0.5588490000000  0.4720470000000  0.5284800000000 1.0
C      1  0.4333420000000  0.4741190000000  0.5260410000000 1.0
C      1  0.5324390000000  0.5531360000000  0.4713380000000 1.0
C      1  0.4738160000000  0.5511680000000  0.4752030000000 1.0
C      1  0.4850800000000  0.4708960000000  0.4223030000000 1.0
C      1  0.5144910000000  0.4750720000000  0.4242040000000 1.0
C      1  0.5148260000000  0.5038620000000  0.4180560000000 1.0
C      1  0.4863620000000  0.5085770000000  0.4148710000000 1.0
C      1  0.4713450000000  0.5749320000000  0.4901420000000 1.0
C      1  0.5261430000000  0.5726980000000  0.4903240000000 1.0
C      1  0.5569620000000  0.4521040000000  0.5038130000000 1.0
C      1  0.4430340000000  0.4530130000000  0.5023300000000 1.0
C      1  0.5492060000000  0.5112840000000  0.4545410000000 1.0
C      1  0.4565830000000  0.5112680000000  0.4566210000000 1.0
C      1  0.5484560000000  0.4832290000000  0.4623640000000 1.0
C      1  0.4553640000000  0.4827910000000  0.4617570000000 1.0
C      1  0.5147420000000  0.4401360000000  0.4768360000000 1.0
C      1  0.4858050000000  0.4406910000000  0.4770620000000 1.0
C      1  0.4523200000000  0.5152690000000  0.5065230000000 1.0
C      1  0.5574070000000  0.5206530000000  0.5022600000000 1.0
C      1  0.4795840000000  0.4989980000000  0.5158170000000 1.0
C      1  0.5061620000000  0.5143720000000  0.5164780000000 1.0
C      1  0.5198930000000  0.5405520000000  0.5279420000000 1.0
C      1  0.4719960000000  0.5517100000000  0.5356950000000 1.0
C      1  0.5164690000000  0.4929940000000  0.5665790000000 1.0
C      1  0.4876750000000  0.4931270000000  0.5747650000000 1.0
C      1  0.5118090000000  0.4468140000000  0.5601750000000 1.0
C      1  0.4857580000000  0.4513390000000  0.5497610000000 1.0
C      1  0.5129760000000  0.5663420000000  0.5141680000000 1.0
C      1  0.4841500000000  0.5685840000000  0.5145580000000 1.0
C      1  0.5161800000000  0.4655940000000  0.5210350000000 1.0
C      1  0.4859870000000  0.4655000000000  0.5223270000000 1.0
C      1  0.5168920000000  0.5473680000000  0.4467630000000 1.0
C      1  0.4866300000000  0.5485140000000  0.4483570000000 1.0
C      1  0.4724590000000  0.5190300000000  0.5711530000000 1.0
C      1  0.5318470000000  0.5177290000000  0.5681630000000 1.0
C      1  0.4552320000000  0.5291470000000  0.4796010000000 1.0
C      1  0.5519550000000  0.5314500000000  0.4756210000000 1.0
C      1  0.5525300000000  0.5155580000000  0.5481350000000 1.0
C      1  0.4477310000000  0.5149230000000  0.5541340000000 1.0
C      1  0.5695240000000  0.4942560000000  0.5074190000000 1.0
C      1  0.4296230000000  0.4949520000000  0.5041150000000 1.0
C      1  0.5262930000000  0.5202770000000  0.4393710000000 1.0
C      1  0.4754550000000  0.5229310000000  0.4377800000000 1.0
C      1  0.4540790000000  0.4875150000000  0.5436230000000 1.0
C      1  0.5289350000000  0.4956500000000  0.5244860000000 1.0
C      1  0.4480390000000  0.5344850000000  0.5307820000000 1.0
C      1  0.5497110000000  0.5345380000000  0.5266590000000 1.0
C      1  0.5307260000000  0.4682390000000  0.5569750000000 1.0
C      1  0.4700780000000  0.4716770000000  0.5634570000000 1.0
C      1  0.4876900000000  0.5404030000000  0.5582840000000 1.0
C      1  0.5161530000000  0.5427730000000  0.5649040000000 1.0
C      1  0.4707530000000  0.4364590000000  0.4536770000000 1.0
C      1  0.5299150000000  0.4377160000000  0.4533080000000 1.0
C      1  0.5335440000000  0.4645480000000  0.4450770000000 1.0
C      1  0.4668340000000  0.4625590000000  0.4434720000000 1.0
C      1  0.4352740000000  0.4748390000000  0.4818010000000 1.0
C      1  0.5661400000000  0.4745980000000  0.4847610000000 1.0
END
