TITL C-2330499-3929-20 4.42573318698221e-06 125000 -358.905355362246 0 0 60 (C1) n - 1
REM
REM in /home/bkarasulu/CARBON/AIRSS/Generating-Clusters/EDIP-Nigel-Params/Higher-Symm/Box-15A/Only-C60/SD-CG/HFTN-CG
REM
REM
REM
REM
REM
REM ./C.cell (414f73aa93bd7a1190c7fd0f31ff2f98)
REM
REM compiler GCC version 9.2.1 20190827 (Red Hat 9.2.1-1)
REM options -cpp -mtune=generic -march=x86-64 -g -O0 -fpre-include=/usr/include/finclude/math-vector-fortran.h
REM seed -560118444 -1064592939 1870862466 1655170770 -1985425643 -1692003069 -2020202116 960973370 -1288592318 -555035060 -104621841 -98371752 -552711051 291818132 -1696353860 2144732810 459659459 354705699 468141920 -962996134 1542974950 -558676433 -1262758472 1155388341 1908588524 619628678 1065806253 281380014 -1076641243 -642758683 125112514 -1574922812 248123973
REM
CELL 1.54180   50.00000   50.00000   50.00000   90.00000   90.00000   90.00000
LATT -1
SFAC C  
C      1  0.4307090000000  0.4720430000000  0.4701700000000 1.0
C      1  0.4683330000000  0.4608460000000  0.5714840000000 1.0
C      1  0.5698360000000  0.4643670000000  0.5179510000000 1.0
C      1  0.5181890000000  0.4590360000000  0.4384850000000 1.0
C      1  0.5074970000000  0.4346500000000  0.4664270000000 1.0
C      1  0.4481670000000  0.4391380000000  0.4808360000000 1.0
C      1  0.4969450000000  0.4480680000000  0.5486050000000 1.0
C      1  0.5387260000000  0.4414910000000  0.5139860000000 1.0
C      1  0.5532670000000  0.5053440000000  0.4275160000000 1.0
C      1  0.4386910000000  0.5217030000000  0.4385800000000 1.0
C      1  0.4307480000000  0.5070450000000  0.5644470000000 1.0
C      1  0.5840700000000  0.5188830000000  0.5470790000000 1.0
C      1  0.4929050000000  0.4523960000000  0.4853140000000 1.0
C      1  0.4692640000000  0.4408500000000  0.5002730000000 1.0
C      1  0.5072270000000  0.4697560000000  0.5324820000000 1.0
C      1  0.5175390000000  0.4610210000000  0.5045070000000 1.0
C      1  0.5142970000000  0.5305350000000  0.4224250000000 1.0
C      1  0.4255220000000  0.5442970000000  0.4783200000000 1.0
C      1  0.4674740000000  0.5322580000000  0.5816390000000 1.0
C      1  0.5817590000000  0.5370010000000  0.5042850000000 1.0
C      1  0.4392960000000  0.5080860000000  0.5375480000000 1.0
C      1  0.5562290000000  0.5198540000000  0.5513610000000 1.0
C      1  0.5530090000000  0.5108080000000  0.4552700000000 1.0
C      1  0.4659790000000  0.5186960000000  0.4452940000000 1.0
C      1  0.4702770000000  0.5396530000000  0.5330140000000 1.0
C      1  0.5356480000000  0.5466800000000  0.5227530000000 1.0
C      1  0.5252340000000  0.5428020000000  0.4688360000000 1.0
C      1  0.4755570000000  0.5477650000000  0.4819620000000 1.0
C      1  0.5328720000000  0.4489080000000  0.4615790000000 1.0
C      1  0.4539810000000  0.4581430000000  0.4597190000000 1.0
C      1  0.4685490000000  0.4436040000000  0.5482020000000 1.0
C      1  0.5504520000000  0.4546320000000  0.5373120000000 1.0
C      1  0.4677520000000  0.5017180000000  0.4706650000000 1.0
C      1  0.4651910000000  0.4925370000000  0.5345910000000 1.0
C      1  0.5435570000000  0.5018790000000  0.5309940000000 1.0
C      1  0.5289590000000  0.4964050000000  0.4666970000000 1.0
C      1  0.5436350000000  0.5451940000000  0.5498500000000 1.0
C      1  0.5523920000000  0.5384720000000  0.4614400000000 1.0
C      1  0.4789330000000  0.5450400000000  0.4524210000000 1.0
C      1  0.4427160000000  0.5347180000000  0.5283680000000 1.0
C      1  0.4723440000000  0.4883100000000  0.5641340000000 1.0
C      1  0.5655880000000  0.4927090000000  0.5124440000000 1.0
C      1  0.5132250000000  0.4875100000000  0.4418830000000 1.0
C      1  0.4385640000000  0.4983870000000  0.4787950000000 1.0
C      1  0.4255170000000  0.5202130000000  0.4637180000000 1.0
C      1  0.4551770000000  0.5070460000000  0.5790150000000 1.0
C      1  0.5861140000000  0.5133480000000  0.5191760000000 1.0
C      1  0.5255050000000  0.5048260000000  0.4210920000000 1.0
C      1  0.5583000000000  0.5508800000000  0.5064570000000 1.0
C      1  0.5076240000000  0.5466790000000  0.4448250000000 1.0
C      1  0.4488690000000  0.5544340000000  0.4877870000000 1.0
C      1  0.4763660000000  0.5453790000000  0.5597300000000 1.0
C      1  0.4845760000000  0.5197730000000  0.4898760000000 1.0
C      1  0.4841070000000  0.5156890000000  0.5217670000000 1.0
C      1  0.5225360000000  0.5204370000000  0.5161080000000 1.0
C      1  0.5154230000000  0.5188320000000  0.4846870000000 1.0
C      1  0.5361630000000  0.4714670000000  0.4815640000000 1.0
C      1  0.4791030000000  0.4734380000000  0.4660980000000 1.0
C      1  0.4611060000000  0.4566360000000  0.5235180000000 1.0
C      1  0.5324090000000  0.4776850000000  0.5446380000000 1.0
END
