TITL C-2330492-4925-25 3.6436046874472e-07 125000 -361.129585244152 0 0 60 (C1) n - 1
REM
REM in /home/bkarasulu/CARBON/AIRSS/Generating-Clusters/EDIP-Nigel-Params/Higher-Symm/Box-15A/Only-C60/SD-CG/HFTN-CG
REM
REM
REM
REM
REM
REM ./C.cell (414f73aa93bd7a1190c7fd0f31ff2f98)
REM
REM compiler GCC version 9.2.1 20190827 (Red Hat 9.2.1-1)
REM options -cpp -mtune=generic -march=x86-64 -g -O0 -fpre-include=/usr/include/finclude/math-vector-fortran.h
REM seed 679851041 1186202284 458898785 -1160052336 -297329547 76079972 1728940825 2087086212 -1289001895 -1711436685 1634076990 2114707235 450689897 370294979 -330316185 -13914654 819112767 -253845109 -1194455673 405945961 -390325346 -630585658 -1301905782 -811660093 -1242617103 -1357466917 -526413110 1732026922 1310545986 -2099515487 558972957 -589396282 -976857396
REM
CELL 1.54180   50.00000   50.00000   50.00000   90.00000   90.00000   90.00000
LATT -1
SFAC C  
C      1  0.4779700000000  0.4498850000000  0.5341780000000 1.0
C      1  0.5432090000000  0.4499660000000  0.4912380000000 1.0
C      1  0.4813900000000  0.4505670000000  0.4621250000000 1.0
C      1  0.4818830000000  0.5545280000000  0.4652730000000 1.0
C      1  0.5469500000000  0.5493140000000  0.5005380000000 1.0
C      1  0.4870020000000  0.5517710000000  0.5354750000000 1.0
C      1  0.5455620000000  0.5145710000000  0.4288230000000 1.0
C      1  0.4188160000000  0.5113900000000  0.4984510000000 1.0
C      1  0.5439710000000  0.5119890000000  0.5672570000000 1.0
C      1  0.5415080000000  0.4847250000000  0.5750900000000 1.0
C      1  0.4173090000000  0.4848880000000  0.5016810000000 1.0
C      1  0.5410210000000  0.4871190000000  0.4326070000000 1.0
C      1  0.4977340000000  0.5067560000000  0.4684330000000 1.0
C      1  0.4734830000000  0.5067400000000  0.5158630000000 1.0
C      1  0.5254820000000  0.5044560000000  0.5110340000000 1.0
C      1  0.5013710000000  0.4936910000000  0.5283400000000 1.0
C      1  0.4705520000000  0.4959270000000  0.4824230000000 1.0
C      1  0.5202110000000  0.4942810000000  0.4832080000000 1.0
C      1  0.4917620000000  0.4236690000000  0.4664130000000 1.0
C      1  0.4700750000000  0.4241300000000  0.5246230000000 1.0
C      1  0.5450580000000  0.4368840000000  0.5154310000000 1.0
C      1  0.4979820000000  0.5785710000000  0.5325640000000 1.0
C      1  0.4629750000000  0.5692100000000  0.4798200000000 1.0
C      1  0.5408770000000  0.5713730000000  0.4827280000000 1.0
C      1  0.5527860000000  0.5281290000000  0.4528040000000 1.0
C      1  0.4334440000000  0.5305170000000  0.4845320000000 1.0
C      1  0.5184160000000  0.5243160000000  0.5622340000000 1.0
C      1  0.5487550000000  0.4646800000000  0.5554790000000 1.0
C      1  0.4320030000000  0.4676110000000  0.5175300000000 1.0
C      1  0.5138310000000  0.4767050000000  0.4327590000000 1.0
C      1  0.5028940000000  0.4633770000000  0.5298620000000 1.0
C      1  0.5250650000000  0.4658900000000  0.4776420000000 1.0
C      1  0.4708730000000  0.4657600000000  0.4848410000000 1.0
C      1  0.5030250000000  0.5365060000000  0.4671740000000 1.0
C      1  0.5266840000000  0.5343420000000  0.5140210000000 1.0
C      1  0.4746750000000  0.5369570000000  0.5131240000000 1.0
C      1  0.4535850000000  0.4514390000000  0.5046680000000 1.0
C      1  0.5282970000000  0.4486260000000  0.5387000000000 1.0
C      1  0.5112600000000  0.4546560000000  0.4539600000000 1.0
C      1  0.4514840000000  0.5495600000000  0.4989920000000 1.0
C      1  0.5317960000000  0.5464030000000  0.4651060000000 1.0
C      1  0.5168440000000  0.5454110000000  0.5400620000000 1.0
C      1  0.5526610000000  0.4936320000000  0.5147760000000 1.0
C      1  0.4671250000000  0.4944520000000  0.4336560000000 1.0
C      1  0.4571550000000  0.5016380000000  0.5409590000000 1.0
C      1  0.5681170000000  0.4984420000000  0.4916120000000 1.0
C      1  0.4717400000000  0.5079370000000  0.5640700000000 1.0
C      1  0.4538980000000  0.5021340000000  0.4573230000000 1.0
C      1  0.4985920000000  0.5926530000000  0.5075890000000 1.0
C      1  0.5220440000000  0.5890980000000  0.4930060000000 1.0
C      1  0.4747200000000  0.5907290000000  0.4931960000000 1.0
C      1  0.5041660000000  0.4137580000000  0.4901060000000 1.0
C      1  0.5259990000000  0.4147220000000  0.5212420000000 1.0
C      1  0.4897320000000  0.4068600000000  0.5137200000000 1.0
C      1  0.4987010000000  0.5032410000000  0.5568440000000 1.0
C      1  0.5595040000000  0.5011290000000  0.4642820000000 1.0
C      1  0.4388480000000  0.5257020000000  0.4572990000000 1.0
C      1  0.4945130000000  0.4980180000000  0.4397340000000 1.0
C      1  0.5622750000000  0.4890030000000  0.5422930000000 1.0
C      1  0.4403410000000  0.4795680000000  0.5411870000000 1.0
END
