TITL C-2330495-4568-14 2.17358462182665e-07 125000 -366.684748020196 0 0 60 (D2) n - 1
REM
REM in /home/bkarasulu/CARBON/AIRSS/Generating-Clusters/EDIP-Nigel-Params/Higher-Symm/Box-15A/Only-C60/SD-CG/HFTN-CG
REM
REM
REM
REM
REM
REM ./C.cell (414f73aa93bd7a1190c7fd0f31ff2f98)
REM
REM compiler GCC version 9.2.1 20190827 (Red Hat 9.2.1-1)
REM options -cpp -mtune=generic -march=x86-64 -g -O0 -fpre-include=/usr/include/finclude/math-vector-fortran.h
REM seed 880859869 1793843643 -1353197010 -1028749863 408487719 -1014257366 -268378480 2108096704 -1302706493 -221242627 -2096084358 -943808685 -672011966 823244442 -694475101 -1947756190 1340331723 -868081485 882969058 1647170617 1057730660 121455411 46085446 -293120488 822082989 -15641973 -1519431476 -2146634389 1735722787 32587574 1168045940 -463132818 2060009519
REM
CELL 1.54180   50.00000   50.00000   50.00000   90.00000   90.00000   90.00000
LATT -1
SFAC C  
C      1  0.5052470000000  0.5177590000000  0.5766370000000 1.0
C      1  0.4947530000000  0.5177660000000  0.4233650000000 1.0
C      1  0.5052360000000  0.4822410000000  0.4233620000000 1.0
C      1  0.4947640000000  0.4822330000000  0.5766360000000 1.0
C      1  0.4676240000000  0.5216770000000  0.5463860000000 1.0
C      1  0.5323750000000  0.5216820000000  0.4536160000000 1.0
C      1  0.4676180000000  0.4783220000000  0.4536180000000 1.0
C      1  0.5323820000000  0.4783190000000  0.5463800000000 1.0
C      1  0.4962770000000  0.4422320000000  0.4549000000000 1.0
C      1  0.5037250000000  0.4422280000000  0.5450950000000 1.0
C      1  0.4962810000000  0.5577680000000  0.5451010000000 1.0
C      1  0.5037170000000  0.5577720000000  0.4549050000000 1.0
C      1  0.5320730000000  0.4760210000000  0.4330930000000 1.0
C      1  0.4679280000000  0.4760130000000  0.5669040000000 1.0
C      1  0.5320820000000  0.5239800000000  0.5669020000000 1.0
C      1  0.4679170000000  0.5239860000000  0.4331000000000 1.0
C      1  0.4331580000000  0.4736840000000  0.5317560000000 1.0
C      1  0.5668430000000  0.4736900000000  0.4682420000000 1.0
C      1  0.4331530000000  0.5263130000000  0.4682540000000 1.0
C      1  0.5668470000000  0.5263130000000  0.5317490000000 1.0
C      1  0.5261160000000  0.5641220000000  0.4743560000000 1.0
C      1  0.4738820000000  0.5641180000000  0.5256500000000 1.0
C      1  0.5261220000000  0.4358790000000  0.5256400000000 1.0
C      1  0.4738800000000  0.4358810000000  0.4743540000000 1.0
C      1  0.5160180000000  0.5031190000000  0.5381030000000 1.0
C      1  0.4839820000000  0.5031220000000  0.4618970000000 1.0
C      1  0.5160130000000  0.4968820000000  0.4618950000000 1.0
C      1  0.4839870000000  0.4968770000000  0.5381050000000 1.0
C      1  0.5180980000000  0.4875640000000  0.4915920000000 1.0
C      1  0.4819020000000  0.4875620000000  0.5084060000000 1.0
C      1  0.5180990000000  0.5124370000000  0.5084050000000 1.0
C      1  0.4819010000000  0.5124370000000  0.4915960000000 1.0
C      1  0.5430390000000  0.5401260000000  0.4740850000000 1.0
C      1  0.4569600000000  0.5401220000000  0.5259190000000 1.0
C      1  0.5430440000000  0.4598760000000  0.5259090000000 1.0
C      1  0.4569570000000  0.4598770000000  0.4740870000000 1.0
C      1  0.5711510000000  0.4855920000000  0.4957260000000 1.0
C      1  0.4288490000000  0.4855900000000  0.5042730000000 1.0
C      1  0.5711510000000  0.5144100000000  0.5042640000000 1.0
C      1  0.4288480000000  0.5144080000000  0.4957380000000 1.0
C      1  0.4577700000000  0.4618750000000  0.5436670000000 1.0
C      1  0.5422310000000  0.4618810000000  0.4563290000000 1.0
C      1  0.4577630000000  0.5381240000000  0.4563390000000 1.0
C      1  0.5422360000000  0.5381210000000  0.5436650000000 1.0
C      1  0.4797000000000  0.5520220000000  0.4716980000000 1.0
C      1  0.5202980000000  0.5520200000000  0.5283070000000 1.0
C      1  0.4797060000000  0.4479770000000  0.5283050000000 1.0
C      1  0.5202960000000  0.4479810000000  0.4716900000000 1.0
C      1  0.4854730000000  0.5365550000000  0.5644360000000 1.0
C      1  0.5145260000000  0.5365610000000  0.4355680000000 1.0
C      1  0.4854650000000  0.4634450000000  0.4355670000000 1.0
C      1  0.5145370000000  0.4634390000000  0.5644300000000 1.0
C      1  0.4564950000000  0.4720470000000  0.5010260000000 1.0
C      1  0.5435060000000  0.4720480000000  0.4989710000000 1.0
C      1  0.4564940000000  0.5279520000000  0.4989800000000 1.0
C      1  0.5435050000000  0.5279530000000  0.5010230000000 1.0
C      1  0.5147420000000  0.4316410000000  0.4976540000000 1.0
C      1  0.4852610000000  0.4316400000000  0.5023400000000 1.0
C      1  0.5147400000000  0.5683600000000  0.5023440000000 1.0
C      1  0.4852580000000  0.5683590000000  0.4976620000000 1.0
END
