TITL C-2330503-3907-1 8.35049425671701e-07 125000 -364.975072153323 0 0 60 (C1) n - 1
REM
REM in /home/bkarasulu/CARBON/AIRSS/Generating-Clusters/EDIP-Nigel-Params/Higher-Symm/Box-15A/Only-C60/SD-CG/HFTN-CG
REM
REM
REM
REM
REM
REM ./C.cell (414f73aa93bd7a1190c7fd0f31ff2f98)
REM
REM compiler GCC version 9.2.1 20190827 (Red Hat 9.2.1-1)
REM options -cpp -mtune=generic -march=x86-64 -g -O0 -fpre-include=/usr/include/finclude/math-vector-fortran.h
REM seed -1373379289 732496844 1909244617 -1346875978 1791871095 -2018761575 -588731845 -1817676403 -373021280 -1730876229 -1180748627 -178226376 -1795966054 -1364252623 -1505923716 1376928452 1806406176 -1644335118 1910069966 47109434 176706442 -1705130560 -1888472776 141013122 -1871955608 1715791563 1647167957 -1484781246 945309604 -191474626 -744795964 -410572407 326369446
REM
CELL 1.54180   50.00000   50.00000   50.00000   90.00000   90.00000   90.00000
LATT -1
SFAC C  
C      1  0.5354480000000  0.4337060000000  0.4575480000000 1.0
C      1  0.5494080000000  0.4374520000000  0.5176490000000 1.0
C      1  0.5023600000000  0.4494900000000  0.5378360000000 1.0
C      1  0.4468860000000  0.4282500000000  0.5115060000000 1.0
C      1  0.4751490000000  0.4446760000000  0.4705250000000 1.0
C      1  0.5302590000000  0.4352520000000  0.5393310000000 1.0
C      1  0.5536290000000  0.4354190000000  0.4797480000000 1.0
C      1  0.4979760000000  0.4367800000000  0.4546600000000 1.0
C      1  0.4499070000000  0.4299470000000  0.4828640000000 1.0
C      1  0.4757670000000  0.4400410000000  0.5335350000000 1.0
C      1  0.4944840000000  0.5121380000000  0.4473810000000 1.0
C      1  0.5658920000000  0.5122390000000  0.4689710000000 1.0
C      1  0.5536150000000  0.5144820000000  0.5559170000000 1.0
C      1  0.4706350000000  0.5094780000000  0.5455430000000 1.0
C      1  0.4153100000000  0.5164380000000  0.4849640000000 1.0
C      1  0.4981520000000  0.5113910000000  0.5548540000000 1.0
C      1  0.5575850000000  0.5136750000000  0.5266930000000 1.0
C      1  0.5541650000000  0.5116510000000  0.4417420000000 1.0
C      1  0.4675210000000  0.5139010000000  0.4569740000000 1.0
C      1  0.4201620000000  0.5164220000000  0.5138750000000 1.0
C      1  0.5143680000000  0.4900620000000  0.5662410000000 1.0
C      1  0.4305890000000  0.4882210000000  0.5190820000000 1.0
C      1  0.4531800000000  0.4908880000000  0.4664540000000 1.0
C      1  0.5391660000000  0.4848420000000  0.4468370000000 1.0
C      1  0.5533790000000  0.4882000000000  0.5134620000000 1.0
C      1  0.5086560000000  0.4867480000000  0.4481720000000 1.0
C      1  0.4272500000000  0.4887210000000  0.4802270000000 1.0
C      1  0.4566570000000  0.4869620000000  0.5334360000000 1.0
C      1  0.5432520000000  0.4892660000000  0.5664200000000 1.0
C      1  0.5550310000000  0.4867180000000  0.4823570000000 1.0
C      1  0.5106710000000  0.5358680000000  0.4481650000000 1.0
C      1  0.5590930000000  0.5371120000000  0.4822210000000 1.0
C      1  0.5382150000000  0.5365790000000  0.5646740000000 1.0
C      1  0.4600040000000  0.5349710000000  0.5375280000000 1.0
C      1  0.4300000000000  0.5374380000000  0.4731710000000 1.0
C      1  0.5112420000000  0.5371140000000  0.5570010000000 1.0
C      1  0.5517110000000  0.5368930000000  0.5099130000000 1.0
C      1  0.5367940000000  0.5333940000000  0.4388130000000 1.0
C      1  0.4565100000000  0.5389970000000  0.4645430000000 1.0
C      1  0.4370460000000  0.5390090000000  0.5207460000000 1.0
C      1  0.5666760000000  0.4609390000000  0.5161130000000 1.0
C      1  0.5072590000000  0.4624260000000  0.5649670000000 1.0
C      1  0.4332150000000  0.4498970000000  0.5256380000000 1.0
C      1  0.4565770000000  0.4646240000000  0.4570270000000 1.0
C      1  0.5364290000000  0.4542810000000  0.4363630000000 1.0
C      1  0.5701590000000  0.4589440000000  0.4850100000000 1.0
C      1  0.5056450000000  0.4585490000000  0.4366010000000 1.0
C      1  0.4320640000000  0.4517360000000  0.4699970000000 1.0
C      1  0.4556330000000  0.4593220000000  0.5413390000000 1.0
C      1  0.5363870000000  0.4514380000000  0.5651220000000 1.0
C      1  0.4576320000000  0.5708840000000  0.5120880000000 1.0
C      1  0.4741390000000  0.5609130000000  0.4704610000000 1.0
C      1  0.5212660000000  0.5767670000000  0.4712540000000 1.0
C      1  0.5448940000000  0.5652960000000  0.5133620000000 1.0
C      1  0.5030480000000  0.5591260000000  0.5405100000000 1.0
C      1  0.4645870000000  0.5810450000000  0.4872470000000 1.0
C      1  0.4768900000000  0.5563840000000  0.5288600000000 1.0
C      1  0.5236060000000  0.5743760000000  0.5294690000000 1.0
C      1  0.5450900000000  0.5728660000000  0.4849540000000 1.0
C      1  0.5016810000000  0.5593580000000  0.4620410000000 1.0
END
