TITL C-2330493-6014-19 -3.41621191480296e-06 125000 -363.505333493963 0 0 60 (C6) n - 1
REM
REM in /home/bkarasulu/CARBON/AIRSS/Generating-Clusters/EDIP-Nigel-Params/Higher-Symm/Box-15A/Only-C60/SD-CG/HFTN-CG
REM
REM
REM
REM
REM
REM ./C.cell (414f73aa93bd7a1190c7fd0f31ff2f98)
REM
REM compiler GCC version 9.2.1 20190827 (Red Hat 9.2.1-1)
REM options -cpp -mtune=generic -march=x86-64 -g -O0 -fpre-include=/usr/include/finclude/math-vector-fortran.h
REM seed 583211258 1958715913 -1063501448 -188990779 896214919 1564021491 -311992468 -818825959 -1803714542 521616137 -601979269 -1099871699 -20654158 -69097588 1473367775 1224760165 -158295012 1996140007 767495724 -1527709026 -1657332160 516597691 -1961994891 -158627050 953792552 1946461814 -1269617134 -708112008 1699103974 705272737 -1954514606 -1234741540 1532865094
REM
CELL 1.54180   50.00000   50.00000   50.00000   90.00000   90.00000   90.00000
LATT -1
SFAC C  
C      1  0.4759050000000  0.5308540000000  0.4469540000000 1.0
C      1  0.4424220000000  0.5316550000000  0.4946030000000 1.0
C      1  0.4669450000000  0.5316880000000  0.5474310000000 1.0
C      1  0.5249520000000  0.5309190000000  0.5526100000000 1.0
C      1  0.5584360000000  0.5301180000000  0.5049610000000 1.0
C      1  0.5339120000000  0.5300850000000  0.4521320000000 1.0
C      1  0.5300300000000  0.5171880000000  0.5022310000000 1.0
C      1  0.5171740000000  0.5171760000000  0.4752570000000 1.0
C      1  0.4873890000000  0.5175730000000  0.4729010000000 1.0
C      1  0.4704580000000  0.5179820000000  0.4975200000000 1.0
C      1  0.4833140000000  0.5179940000000  0.5244950000000 1.0
C      1  0.5131000000000  0.5175970000000  0.5268500000000 1.0
C      1  0.4792800000000  0.4816100000000  0.4744450000000 1.0
C      1  0.4672710000000  0.4819930000000  0.5050080000000 1.0
C      1  0.4877340000000  0.4818900000000  0.5306940000000 1.0
C      1  0.5202060000000  0.4814050000000  0.5258170000000 1.0
C      1  0.5322160000000  0.4810220000000  0.4952530000000 1.0
C      1  0.5117530000000  0.4811250000000  0.4695670000000 1.0
C      1  0.4454160000000  0.4807330000000  0.5430080000000 1.0
C      1  0.5096900000000  0.4800220000000  0.5686100000000 1.0
C      1  0.5639930000000  0.4789660000000  0.5257460000000 1.0
C      1  0.5540200000000  0.4786200000000  0.4572790000000 1.0
C      1  0.4897450000000  0.4793320000000  0.4316770000000 1.0
C      1  0.4354430000000  0.4803880000000  0.4745420000000 1.0
C      1  0.5519060000000  0.5453160000000  0.4758160000000 1.0
C      1  0.5056090000000  0.5457290000000  0.4433430000000 1.0
C      1  0.4543440000000  0.5466090000000  0.4672010000000 1.0
C      1  0.4493760000000  0.5470760000000  0.5235320000000 1.0
C      1  0.4956730000000  0.5466630000000  0.5560040000000 1.0
C      1  0.5469380000000  0.5457830000000  0.5321460000000 1.0
C      1  0.5275950000000  0.5589500000000  0.4870620000000 1.0
C      1  0.5033670000000  0.5591660000000  0.4701340000000 1.0
C      1  0.4765970000000  0.5596260000000  0.4826530000000 1.0
C      1  0.4740540000000  0.5598700000000  0.5120990000000 1.0
C      1  0.4982820000000  0.5596530000000  0.5290260000000 1.0
C      1  0.5250520000000  0.5591930000000  0.5165080000000 1.0
C      1  0.4570790000000  0.4545030000000  0.5380630000000 1.0
C      1  0.5109000000000  0.4538820000000  0.5558140000000 1.0
C      1  0.5531770000000  0.4530280000000  0.5180790000000 1.0
C      1  0.5416340000000  0.4527970000000  0.4625920000000 1.0
C      1  0.4878140000000  0.4534180000000  0.4448400000000 1.0
C      1  0.4455370000000  0.4542710000000  0.4825760000000 1.0
C      1  0.5699090000000  0.4882600000000  0.4786060000000 1.0
C      1  0.5162840000000  0.4886510000000  0.4286640000000 1.0
C      1  0.4462280000000  0.4897750000000  0.4501330000000 1.0
C      1  0.4297960000000  0.4905080000000  0.5215440000000 1.0
C      1  0.4834210000000  0.4901160000000  0.5714860000000 1.0
C      1  0.5534780000000  0.4889920000000  0.5500170000000 1.0
C      1  0.4705740000000  0.4416040000000  0.4904800000000 1.0
C      1  0.4762790000000  0.4417350000000  0.5202270000000 1.0
C      1  0.5048900000000  0.4414090000000  0.5301610000000 1.0
C      1  0.5277960000000  0.4409510000000  0.5103490000000 1.0
C      1  0.5220910000000  0.4408200000000  0.4806030000000 1.0
C      1  0.4934800000000  0.4411470000000  0.4706690000000 1.0
C      1  0.4609070000000  0.5013850000000  0.5587820000000 1.0
C      1  0.5313660000000  0.5004390000000  0.5632580000000 1.0
C      1  0.5704650000000  0.4994810000000  0.5044720000000 1.0
C      1  0.5391050000000  0.4994690000000  0.4412120000000 1.0
C      1  0.4686460000000  0.5004150000000  0.4367360000000 1.0
C      1  0.4295470000000  0.5013730000000  0.4955220000000 1.0
END
