TITL C-2330496-4560-34 -5.08733263387758e-06 125000 -369.769495792126 0 0 60 (C1) n - 1
REM
REM in /home/bkarasulu/CARBON/AIRSS/Generating-Clusters/EDIP-Nigel-Params/Higher-Symm/Box-15A/Only-C60/SD-CG/HFTN-CG
REM
REM
REM
REM
REM
REM ./C.cell (414f73aa93bd7a1190c7fd0f31ff2f98)
REM
REM compiler GCC version 9.2.1 20190827 (Red Hat 9.2.1-1)
REM options -cpp -mtune=generic -march=x86-64 -g -O0 -fpre-include=/usr/include/finclude/math-vector-fortran.h
REM seed -1255624611 1853660982 1756450098 -967339104 712325778 -1105597497 2034617852 -1803911495 1163248097 1173273214 1023335487 -85528575 -2080086302 1825061977 -1459320087 -1123895095 -2110808040 -131735058 560559337 -1389949865 -1168750275 592699872 220236335 -37489665 -853250078 -786758216 -2135193502 1466871492 1563984114 974431701 -1334545714 -1115590507 -841628578
REM
CELL 1.54180   50.00000   50.00000   50.00000   90.00000   90.00000   90.00000
LATT -1
SFAC C  
C      1  0.5140000000000  0.4564980000000  0.4393160000000 1.0
C      1  0.4895100000000  0.4614910000000  0.5631130000000 1.0
C      1  0.4889460000000  0.5380800000000  0.4360220000000 1.0
C      1  0.5157970000000  0.5424400000000  0.5607140000000 1.0
C      1  0.4408490000000  0.4626350000000  0.5127910000000 1.0
C      1  0.5583700000000  0.4639030000000  0.4847640000000 1.0
C      1  0.4390790000000  0.5381010000000  0.4860350000000 1.0
C      1  0.5578100000000  0.5356870000000  0.5143310000000 1.0
C      1  0.5549930000000  0.4868600000000  0.5374850000000 1.0
C      1  0.4440730000000  0.4904410000000  0.4607190000000 1.0
C      1  0.4463000000000  0.5103310000000  0.5382980000000 1.0
C      1  0.5464690000000  0.5127930000000  0.4693600000000 1.0
C      1  0.5389560000000  0.4884280000000  0.5624160000000 1.0
C      1  0.4607440000000  0.4940050000000  0.4361310000000 1.0
C      1  0.5378660000000  0.5082320000000  0.4395460000000 1.0
C      1  0.4615250000000  0.5063700000000  0.5638270000000 1.0
C      1  0.5644710000000  0.4600190000000  0.5343360000000 1.0
C      1  0.4389490000000  0.4620210000000  0.4622950000000 1.0
C      1  0.4414670000000  0.5386500000000  0.5367490000000 1.0
C      1  0.5610780000000  0.5382930000000  0.4682790000000 1.0
C      1  0.5380590000000  0.4601010000000  0.5701790000000 1.0
C      1  0.4653450000000  0.4661220000000  0.4264060000000 1.0
C      1  0.5388670000000  0.5362200000000  0.4298570000000 1.0
C      1  0.4669680000000  0.5341550000000  0.5731100000000 1.0
C      1  0.4339770000000  0.4522770000000  0.4878160000000 1.0
C      1  0.5696400000000  0.4519950000000  0.5079250000000 1.0
C      1  0.5700390000000  0.5486820000000  0.4925670000000 1.0
C      1  0.4353900000000  0.5485820000000  0.5115780000000 1.0
C      1  0.4936940000000  0.4614820000000  0.4199020000000 1.0
C      1  0.5122210000000  0.4511950000000  0.5757840000000 1.0
C      1  0.4953310000000  0.5377580000000  0.5800490000000 1.0
C      1  0.5132650000000  0.5462530000000  0.4251320000000 1.0
C      1  0.5251280000000  0.4887340000000  0.5064130000000 1.0
C      1  0.4752680000000  0.4851380000000  0.4984400000000 1.0
C      1  0.4735160000000  0.5178660000000  0.5039260000000 1.0
C      1  0.5227650000000  0.5161840000000  0.4902510000000 1.0
C      1  0.4976520000000  0.4840870000000  0.5203310000000 1.0
C      1  0.4867380000000  0.4844160000000  0.4694900000000 1.0
C      1  0.4936260000000  0.5208160000000  0.4803400000000 1.0
C      1  0.4896700000000  0.5122430000000  0.5314750000000 1.0
C      1  0.5130830000000  0.5300040000000  0.5351630000000 1.0
C      1  0.4847290000000  0.5445340000000  0.4638450000000 1.0
C      1  0.4887900000000  0.4585020000000  0.5343990000000 1.0
C      1  0.5107970000000  0.4682130000000  0.4651730000000 1.0
C      1  0.5288410000000  0.5361130000000  0.5116770000000 1.0
C      1  0.4583380000000  0.5505420000000  0.4703140000000 1.0
C      1  0.5292020000000  0.4665980000000  0.4874520000000 1.0
C      1  0.4637030000000  0.4519760000000  0.5243840000000 1.0
C      1  0.5648870000000  0.4930860000000  0.4847600000000 1.0
C      1  0.4392330000000  0.4928840000000  0.5137730000000 1.0
C      1  0.4395840000000  0.5078590000000  0.4859030000000 1.0
C      1  0.5599690000000  0.5048910000000  0.5134520000000 1.0
C      1  0.4884060000000  0.4913580000000  0.5638790000000 1.0
C      1  0.5128350000000  0.4935210000000  0.4292410000000 1.0
C      1  0.4876030000000  0.5081550000000  0.4388860000000 1.0
C      1  0.5148350000000  0.5057120000000  0.5717930000000 1.0
C      1  0.5550530000000  0.4433780000000  0.5548040000000 1.0
C      1  0.5564680000000  0.5525180000000  0.4448140000000 1.0
C      1  0.4511460000000  0.4468640000000  0.4420330000000 1.0
C      1  0.4540870000000  0.5537070000000  0.5567540000000 1.0
END
