TITL C-2330503-3907-45 1.63320703757151e-07 125000 -365.188482144237 0 0 60 (C1) n - 1
REM
REM in /home/bkarasulu/CARBON/AIRSS/Generating-Clusters/EDIP-Nigel-Params/Higher-Symm/Box-15A/Only-C60/SD-CG/HFTN-CG
REM
REM
REM
REM
REM
REM ./C.cell (414f73aa93bd7a1190c7fd0f31ff2f98)
REM
REM compiler GCC version 9.2.1 20190827 (Red Hat 9.2.1-1)
REM options -cpp -mtune=generic -march=x86-64 -g -O0 -fpre-include=/usr/include/finclude/math-vector-fortran.h
REM seed 1331234147 -708464853 1510068900 -863053314 -936703827 780869718 -1065327494 440927132 -205523269 233187562 -126496915 1126037649 1883863851 -1599684773 144410215 688719945 -1138494965 -1883105616 941927376 -1898038799 1531000081 133149528 -246465569 1464577293 -1822360923 1828987223 -1372710304 -1756973183 -366143510 -1699388646 1230527786 -2113656904 -1219223319
REM
CELL 1.54180   50.00000   50.00000   50.00000   90.00000   90.00000   90.00000
LATT -1
SFAC C  
C      1  0.4968900000000  0.4659820000000  0.4692850000000 1.0
C      1  0.5363450000000  0.4981000000000  0.4719870000000 1.0
C      1  0.5041620000000  0.5374150000000  0.4730130000000 1.0
C      1  0.4648540000000  0.5054630000000  0.4703310000000 1.0
C      1  0.5001230000000  0.4633450000000  0.5289430000000 1.0
C      1  0.4638890000000  0.4978840000000  0.5297740000000 1.0
C      1  0.4981410000000  0.5346720000000  0.5321100000000 1.0
C      1  0.5352500000000  0.4998010000000  0.5312720000000 1.0
C      1  0.5665390000000  0.4568750000000  0.5414640000000 1.0
C      1  0.5394430000000  0.5663610000000  0.5456640000000 1.0
C      1  0.4250950000000  0.5279740000000  0.5298460000000 1.0
C      1  0.4692920000000  0.4250040000000  0.5264110000000 1.0
C      1  0.4304010000000  0.4660920000000  0.4566130000000 1.0
C      1  0.4642820000000  0.5726970000000  0.4626370000000 1.0
C      1  0.5713220000000  0.5384810000000  0.4632170000000 1.0
C      1  0.5369010000000  0.4317790000000  0.4572460000000 1.0
C      1  0.4368750000000  0.5088410000000  0.4646810000000 1.0
C      1  0.4937680000000  0.4381540000000  0.4628400000000 1.0
C      1  0.5645980000000  0.4952650000000  0.4675580000000 1.0
C      1  0.5071810000000  0.5657670000000  0.4693630000000 1.0
C      1  0.5634460000000  0.5004790000000  0.5367860000000 1.0
C      1  0.4990330000000  0.4333950000000  0.5321050000000 1.0
C      1  0.4339870000000  0.4980380000000  0.5333330000000 1.0
C      1  0.4963150000000  0.5627580000000  0.5379050000000 1.0
C      1  0.5522450000000  0.5449430000000  0.4822720000000 1.0
C      1  0.4571960000000  0.5536530000000  0.4815250000000 1.0
C      1  0.4479110000000  0.4583990000000  0.4767000000000 1.0
C      1  0.5439170000000  0.4493920000000  0.4774700000000 1.0
C      1  0.4493900000000  0.5430510000000  0.5238530000000 1.0
C      1  0.5464800000000  0.5478490000000  0.5262750000000 1.0
C      1  0.5477730000000  0.4517640000000  0.5217200000000 1.0
C      1  0.4551310000000  0.4496010000000  0.5195550000000 1.0
C      1  0.4795630000000  0.5054660000000  0.4441350000000 1.0
C      1  0.4988770000000  0.4812810000000  0.4434910000000 1.0
C      1  0.5230570000000  0.5005840000000  0.4451340000000 1.0
C      1  0.5037040000000  0.5247330000000  0.4457720000000 1.0
C      1  0.5207560000000  0.4985400000000  0.5575980000000 1.0
C      1  0.4996130000000  0.4759900000000  0.5562580000000 1.0
C      1  0.4770260000000  0.4970140000000  0.5568250000000 1.0
C      1  0.4980510000000  0.5196850000000  0.5581710000000 1.0
C      1  0.4712280000000  0.4764110000000  0.4832850000000 1.0
C      1  0.5251010000000  0.4718900000000  0.4843660000000 1.0
C      1  0.5293470000000  0.5259510000000  0.4870710000000 1.0
C      1  0.4754680000000  0.5300220000000  0.4859630000000 1.0
C      1  0.5267410000000  0.4724840000000  0.5159090000000 1.0
C      1  0.4735320000000  0.4726950000000  0.5146010000000 1.0
C      1  0.4726570000000  0.5254380000000  0.5170600000000 1.0
C      1  0.5264760000000  0.5267350000000  0.5184650000000 1.0
C      1  0.4194640000000  0.5125230000000  0.5532990000000 1.0
C      1  0.4829280000000  0.4189830000000  0.5508780000000 1.0
C      1  0.5783510000000  0.4804530000000  0.5471340000000 1.0
C      1  0.5153680000000  0.5777930000000  0.5497810000000 1.0
C      1  0.5814480000000  0.5140510000000  0.4578840000000 1.0
C      1  0.5123690000000  0.4220800000000  0.4516240000000 1.0
C      1  0.4207070000000  0.4909380000000  0.4524880000000 1.0
C      1  0.4890260000000  0.5827660000000  0.4587710000000 1.0
C      1  0.5569240000000  0.4383610000000  0.4992950000000 1.0
C      1  0.5615750000000  0.5574710000000  0.5051450000000 1.0
C      1  0.4461750000000  0.5634130000000  0.5051830000000 1.0
C      1  0.4362890000000  0.4469730000000  0.4992890000000 1.0
END
