TITL C-2330490-4317-22 -8.60797853682264e-05 125000 -367.786550269911 0 0 60 (C2) n - 1
REM
REM in /home/bkarasulu/CARBON/AIRSS/Generating-Clusters/EDIP-Nigel-Params/Higher-Symm/Box-15A/Only-C60/SD-CG/HFTN-CG
REM
REM
REM
REM
REM
REM ./C.cell (414f73aa93bd7a1190c7fd0f31ff2f98)
REM
REM compiler GCC version 9.2.1 20190827 (Red Hat 9.2.1-1)
REM options -cpp -mtune=generic -march=x86-64 -g -O0 -fpre-include=/usr/include/finclude/math-vector-fortran.h
REM seed 1074938223 -182078040 -1704523934 502139011 -1420124239 -1201721626 -2029761513 -517711351 -1940870962 -472912823 759489433 -219954373 -1386459767 -674054226 366536550 1140498049 700135044 -655755218 332842324 1629130205 1801151572 1540731851 -446820681 -368928622 258645315 1336594352 716532623 140522445 976725495 -1114443024 1523854723 519758800 954803809
REM
CELL 1.54180   50.00000   50.00000   50.00000   90.00000   90.00000   90.00000
LATT -1
SFAC C  
C      1  0.5295090000000  0.5583280000000  0.4524360000000 1.0
C      1  0.4442380000000  0.5572500000000  0.4979180000000 1.0
C      1  0.5258500000000  0.5587560000000  0.5493530000000 1.0
C      1  0.5287610000000  0.4393700000000  0.4511900000000 1.0
C      1  0.4441850000000  0.4418260000000  0.4993030000000 1.0
C      1  0.5284270000000  0.4388440000000  0.5486390000000 1.0
C      1  0.4712180000000  0.5606270000000  0.4511990000000 1.0
C      1  0.5558150000000  0.5581740000000  0.4992770000000 1.0
C      1  0.4715930000000  0.5611590000000  0.5486480000000 1.0
C      1  0.4704710000000  0.4416690000000  0.4524510000000 1.0
C      1  0.5557620000000  0.4427500000000  0.4978970000000 1.0
C      1  0.4741710000000  0.4412460000000  0.5493670000000 1.0
C      1  0.4857500000000  0.5652570000000  0.4748130000000 1.0
C      1  0.4851540000000  0.5655710000000  0.5244080000000 1.0
C      1  0.5284480000000  0.5636150000000  0.5001440000000 1.0
C      1  0.4853940000000  0.4357910000000  0.4752850000000 1.0
C      1  0.4862840000000  0.4355770000000  0.5248870000000 1.0
C      1  0.5289910000000  0.4346720000000  0.4992600000000 1.0
C      1  0.5145950000000  0.5642080000000  0.4752760000000 1.0
C      1  0.5137270000000  0.5644240000000  0.5248780000000 1.0
C      1  0.4710090000000  0.5653280000000  0.4992690000000 1.0
C      1  0.5142390000000  0.4347410000000  0.4748110000000 1.0
C      1  0.5148560000000  0.4344300000000  0.5244050000000 1.0
C      1  0.4715520000000  0.4363850000000  0.5001590000000 1.0
C      1  0.5580600000000  0.5305700000000  0.5031200000000 1.0
C      1  0.4723340000000  0.5328660000000  0.4477750000000 1.0
C      1  0.4675350000000  0.5334710000000  0.5493000000000 1.0
C      1  0.5597570000000  0.4702850000000  0.5016730000000 1.0
C      1  0.4728070000000  0.4693670000000  0.4488450000000 1.0
C      1  0.4699580000000  0.4689350000000  0.5495650000000 1.0
C      1  0.4402440000000  0.5297150000000  0.5016970000000 1.0
C      1  0.5271720000000  0.5306310000000  0.4488320000000 1.0
C      1  0.5300630000000  0.5310670000000  0.5495500000000 1.0
C      1  0.4419420000000  0.4694300000000  0.5031460000000 1.0
C      1  0.5276440000000  0.4671310000000  0.4477650000000 1.0
C      1  0.5324860000000  0.4665310000000  0.5492880000000 1.0
C      1  0.4669510000000  0.5154640000000  0.5002320000000 1.0
C      1  0.5150670000000  0.5161750000000  0.5280340000000 1.0
C      1  0.5150290000000  0.5162430000000  0.4724290000000 1.0
C      1  0.4684740000000  0.4837960000000  0.5006610000000 1.0
C      1  0.5165830000000  0.4785810000000  0.5267200000000 1.0
C      1  0.5162670000000  0.4789610000000  0.4730920000000 1.0
C      1  0.5315270000000  0.5162040000000  0.5006470000000 1.0
C      1  0.4834280000000  0.5214200000000  0.5267260000000 1.0
C      1  0.4837220000000  0.5210380000000  0.4730980000000 1.0
C      1  0.5330490000000  0.4845360000000  0.5002190000000 1.0
C      1  0.4849450000000  0.4838270000000  0.5280410000000 1.0
C      1  0.4849600000000  0.4837550000000  0.4724360000000 1.0
C      1  0.5571180000000  0.5239780000000  0.5503780000000 1.0
C      1  0.5142220000000  0.5238630000000  0.4249130000000 1.0
C      1  0.4261480000000  0.5238900000000  0.5251890000000 1.0
C      1  0.5593480000000  0.4739920000000  0.5480240000000 1.0
C      1  0.5128890000000  0.4749080000000  0.4253540000000 1.0
C      1  0.4290070000000  0.4760060000000  0.5270580000000 1.0
C      1  0.4406720000000  0.5260100000000  0.5480480000000 1.0
C      1  0.4870800000000  0.5250880000000  0.4253590000000 1.0
C      1  0.5710040000000  0.5239950000000  0.5270270000000 1.0
C      1  0.4429030000000  0.4760250000000  0.5504040000000 1.0
C      1  0.4857460000000  0.4761340000000  0.4249210000000 1.0
C      1  0.5738620000000  0.4761110000000  0.5251590000000 1.0
END
