TITL C-2330491-2496-29 -2.00198051478277e-05 125000 -358.069664985432 0 0 60 (C1) n - 1
REM
REM in /home/bkarasulu/CARBON/AIRSS/Generating-Clusters/EDIP-Nigel-Params/Higher-Symm/Box-15A/Only-C60/SD-CG/HFTN-CG
REM
REM
REM
REM
REM
REM ./C.cell (414f73aa93bd7a1190c7fd0f31ff2f98)
REM
REM compiler GCC version 9.2.1 20190827 (Red Hat 9.2.1-1)
REM options -cpp -mtune=generic -march=x86-64 -g -O0 -fpre-include=/usr/include/finclude/math-vector-fortran.h
REM seed 601566115 -740144981 -1702810838 1709970504 186202251 -61611565 -2041339745 -1161790931 -449207488 -1986305918 -1122035093 -113449819 1758683780 1969376273 -294160771 -1206381953 -450725586 -448404412 856322651 -1640217924 318513777 565325852 -1556445463 1741776725 -770982956 -295358974 873100418 -1451694895 -67157301 1556851105 464304668 498910713 -665636838
REM
CELL 1.54180   50.00000   50.00000   50.00000   90.00000   90.00000   90.00000
LATT -1
SFAC C  
C      1  0.4503250000000  0.5057870000000  0.4375290000000 1.0
C      1  0.4697920000000  0.5394040000000  0.4428920000000 1.0
C      1  0.4960600000000  0.5542550000000  0.4475190000000 1.0
C      1  0.5184330000000  0.5437110000000  0.4340310000000 1.0
C      1  0.5381310000000  0.5301800000000  0.4488530000000 1.0
C      1  0.5443780000000  0.5014330000000  0.4438580000000 1.0
C      1  0.5295170000000  0.4842610000000  0.4264470000000 1.0
C      1  0.5183440000000  0.4604850000000  0.4372330000000 1.0
C      1  0.4899440000000  0.4531580000000  0.4372270000000 1.0
C      1  0.4697930000000  0.4636850000000  0.4202660000000 1.0
C      1  0.4489140000000  0.4754350000000  0.4356570000000 1.0
C      1  0.5609750000000  0.4591530000000  0.4642880000000 1.0
C      1  0.5329420000000  0.4523320000000  0.4609580000000 1.0
C      1  0.4807510000000  0.4329760000000  0.4569500000000 1.0
C      1  0.4519140000000  0.4337860000000  0.4631780000000 1.0
C      1  0.4451590000000  0.4619640000000  0.4613450000000 1.0
C      1  0.4358010000000  0.5169500000000  0.4628380000000 1.0
C      1  0.4508490000000  0.5418310000000  0.4674140000000 1.0
C      1  0.5020500000000  0.5632530000000  0.4746890000000 1.0
C      1  0.5298390000000  0.5669950000000  0.4825990000000 1.0
C      1  0.5485700000000  0.5467660000000  0.4714230000000 1.0
C      1  0.5659600000000  0.4879100000000  0.4590940000000 1.0
C      1  0.5229450000000  0.4362990000000  0.4834390000000 1.0
C      1  0.4952930000000  0.4290430000000  0.4829020000000 1.0
C      1  0.4472120000000  0.4244470000000  0.4895400000000 1.0
C      1  0.4315740000000  0.4721330000000  0.4852210000000 1.0
C      1  0.4305400000000  0.5008280000000  0.4875380000000 1.0
C      1  0.4626100000000  0.5453640000000  0.4941150000000 1.0
C      1  0.4830310000000  0.5649090000000  0.4962990000000 1.0
C      1  0.5320500000000  0.5689590000000  0.5109410000000 1.0
C      1  0.5592940000000  0.5361480000000  0.4956280000000 1.0
C      1  0.5717910000000  0.4963850000000  0.4857900000000 1.0
C      1  0.5669620000000  0.4539630000000  0.4917890000000 1.0
C      1  0.5502180000000  0.4935200000000  0.5044310000000 1.0
C      1  0.5490200000000  0.4644130000000  0.5116090000000 1.0
C      1  0.5245250000000  0.4481560000000  0.5102750000000 1.0
C      1  0.4865810000000  0.4395810000000  0.5088530000000 1.0
C      1  0.4573930000000  0.4397440000000  0.5112560000000 1.0
C      1  0.4439350000000  0.4658670000000  0.5112630000000 1.0
C      1  0.4433180000000  0.5044970000000  0.5133760000000 1.0
C      1  0.4579180000000  0.5286330000000  0.5169030000000 1.0
C      1  0.4921860000000  0.5431960000000  0.5266470000000 1.0
C      1  0.5223930000000  0.5434500000000  0.5195970000000 1.0
C      1  0.5414840000000  0.5211140000000  0.5123110000000 1.0
C      1  0.4857210000000  0.4732020000000  0.5811620000000 1.0
C      1  0.4706420000000  0.4911570000000  0.5623830000000 1.0
C      1  0.4604780000000  0.5153430000000  0.5713170000000 1.0
C      1  0.4667180000000  0.5410920000000  0.5673490000000 1.0
C      1  0.4869160000000  0.5541000000000  0.5535970000000 1.0
C      1  0.5089530000000  0.5615410000000  0.5684830000000 1.0
C      1  0.5309180000000  0.5531790000000  0.5809560000000 1.0
C      1  0.5453850000000  0.5316810000000  0.5866760000000 1.0
C      1  0.5466930000000  0.5052710000000  0.5844680000000 1.0
C      1  0.5337920000000  0.4836490000000  0.5759340000000 1.0
C      1  0.5106490000000  0.4740500000000  0.5643270000000 1.0
C      1  0.4940060000000  0.4864460000000  0.5165600000000 1.0
C      1  0.4957980000000  0.4923950000000  0.5437630000000 1.0
C      1  0.4801040000000  0.5106520000000  0.4415130000000 1.0
C      1  0.4931730000000  0.4913020000000  0.4901970000000 1.0
C      1  0.4909930000000  0.5006740000000  0.4652990000000 1.0
END
