TITL C-2330504-4001-14 -4.04544519681827e-07 125000 -361.677203660555 0 0 60 (C1) n - 1
REM
REM in /home/bkarasulu/CARBON/AIRSS/Generating-Clusters/EDIP-Nigel-Params/Higher-Symm/Box-15A/Only-C60/SD-CG/HFTN-CG
REM
REM
REM
REM
REM
REM ./C.cell (414f73aa93bd7a1190c7fd0f31ff2f98)
REM
REM compiler GCC version 9.2.1 20190827 (Red Hat 9.2.1-1)
REM options -cpp -mtune=generic -march=x86-64 -g -O0 -fpre-include=/usr/include/finclude/math-vector-fortran.h
REM seed -138652973 -1509970213 2025171931 -1715249309 328031465 899588064 1317580268 -1305075664 -2025321238 891764468 -83144405 737144853 11204788 696434451 766041958 -1733217503 -1115048680 -2022432262 1228331877 210469715 -156065699 10929270 1512087244 2091840892 -849133008 38019387 1987293861 -1871796125 -631094516 -692479672 266385314 549617350 728084780
REM
CELL 1.54180   50.00000   50.00000   50.00000   90.00000   90.00000   90.00000
LATT -1
SFAC C  
C      1  0.5094930000000  0.4559850000000  0.4683750000000 1.0
C      1  0.4594340000000  0.4595830000000  0.5010650000000 1.0
C      1  0.4994020000000  0.4275680000000  0.5032810000000 1.0
C      1  0.4829890000000  0.4842600000000  0.4624250000000 1.0
C      1  0.5013790000000  0.5694070000000  0.4862590000000 1.0
C      1  0.4925310000000  0.5329300000000  0.4545140000000 1.0
C      1  0.4365520000000  0.4928580000000  0.4827990000000 1.0
C      1  0.5552290000000  0.4946280000000  0.4676410000000 1.0
C      1  0.5182990000000  0.5630290000000  0.5520470000000 1.0
C      1  0.5629250000000  0.5313930000000  0.5001710000000 1.0
C      1  0.4670830000000  0.5590110000000  0.5482200000000 1.0
C      1  0.5500820000000  0.4974320000000  0.5254140000000 1.0
C      1  0.5571060000000  0.4719020000000  0.4848280000000 1.0
C      1  0.4746090000000  0.4375550000000  0.4863260000000 1.0
C      1  0.4737080000000  0.4828680000000  0.5147990000000 1.0
C      1  0.5201470000000  0.5002280000000  0.5198200000000 1.0
C      1  0.4891290000000  0.4255570000000  0.5512350000000 1.0
C      1  0.5170420000000  0.5345510000000  0.5608190000000 1.0
C      1  0.4877830000000  0.4529660000000  0.5475000000000 1.0
C      1  0.4822800000000  0.5587150000000  0.4668110000000 1.0
C      1  0.5382260000000  0.5450180000000  0.4618850000000 1.0
C      1  0.4908710000000  0.5717050000000  0.5391970000000 1.0
C      1  0.5031280000000  0.4737430000000  0.5189620000000 1.0
C      1  0.5355270000000  0.5588160000000  0.5283750000000 1.0
C      1  0.4438770000000  0.5409690000000  0.5093050000000 1.0
C      1  0.4888460000000  0.4959540000000  0.5575940000000 1.0
C      1  0.4564380000000  0.5475060000000  0.4740510000000 1.0
C      1  0.5305710000000  0.4681900000000  0.5529730000000 1.0
C      1  0.5042000000000  0.4704830000000  0.5625560000000 1.0
C      1  0.4341120000000  0.5153060000000  0.5007250000000 1.0
C      1  0.5402690000000  0.4907170000000  0.4422860000000 1.0
C      1  0.5197570000000  0.4696420000000  0.4422740000000 1.0
C      1  0.5200360000000  0.5363650000000  0.4409950000000 1.0
C      1  0.5313900000000  0.5139160000000  0.4290820000000 1.0
C      1  0.5421380000000  0.5238960000000  0.5671360000000 1.0
C      1  0.4546400000000  0.5261840000000  0.4542190000000 1.0
C      1  0.4635990000000  0.4902230000000  0.5433290000000 1.0
C      1  0.4539840000000  0.4975970000000  0.4599310000000 1.0
C      1  0.4469860000000  0.5414440000000  0.5384420000000 1.0
C      1  0.4738070000000  0.4571860000000  0.4279780000000 1.0
C      1  0.4854960000000  0.5303660000000  0.5203050000000 1.0
C      1  0.4729910000000  0.5111100000000  0.4997720000000 1.0
C      1  0.5193110000000  0.5120150000000  0.4924860000000 1.0
C      1  0.4939490000000  0.5103210000000  0.4763770000000 1.0
C      1  0.5160340000000  0.4534110000000  0.5003050000000 1.0
C      1  0.4605990000000  0.4444250000000  0.4506470000000 1.0
C      1  0.5033740000000  0.5162480000000  0.5406390000000 1.0
C      1  0.5594620000000  0.5184210000000  0.5454760000000 1.0
C      1  0.5509390000000  0.4690720000000  0.5333040000000 1.0
C      1  0.5449460000000  0.5210520000000  0.4800180000000 1.0
C      1  0.5587320000000  0.5412140000000  0.5262070000000 1.0
C      1  0.5020740000000  0.4285990000000  0.4595480000000 1.0
C      1  0.5271880000000  0.5672150000000  0.4752630000000 1.0
C      1  0.4341500000000  0.4662070000000  0.4914980000000 1.0
C      1  0.4786220000000  0.4232620000000  0.4454810000000 1.0
C      1  0.4485890000000  0.5141380000000  0.5459980000000 1.0
C      1  0.4925980000000  0.4785120000000  0.4340790000000 1.0
C      1  0.4951560000000  0.4146210000000  0.5274870000000 1.0
C      1  0.5002260000000  0.5562560000000  0.5135580000000 1.0
C      1  0.5459610000000  0.4562470000000  0.5059070000000 1.0
END
