TITL C-2330493-6014-59 7.10170890526373e-05 125000 -355.285789666173 0 0 60 (C1) n - 1
REM
REM in /home/bkarasulu/CARBON/AIRSS/Generating-Clusters/EDIP-Nigel-Params/Higher-Symm/Box-15A/Only-C60/SD-CG/HFTN-CG
REM
REM
REM
REM
REM
REM ./C.cell (414f73aa93bd7a1190c7fd0f31ff2f98)
REM
REM compiler GCC version 9.2.1 20190827 (Red Hat 9.2.1-1)
REM options -cpp -mtune=generic -march=x86-64 -g -O0 -fpre-include=/usr/include/finclude/math-vector-fortran.h
REM seed 1946181757 896671057 -1854486356 646030995 1162942071 -209879546 -10891315 -887005073 -1886748407 575020425 -567922320 1858876816 -1946441154 1669025275 -1282551025 -456441003 2131418262 -1138338660 1892392051 1280744137 -94330553 1636996723 -1834823535 1489597477 -621923853 -1297762337 1352943432 1523585344 219129566 1527087558 488249782 -998673894 -481516617
REM
CELL 1.54180   50.00000   50.00000   50.00000   90.00000   90.00000   90.00000
LATT -1
SFAC C  
C      1  0.5271440000000  0.4531610000000  0.4334170000000 1.0
C      1  0.4861420000000  0.4571020000000  0.4221700000000 1.0
C      1  0.4529380000000  0.4661220000000  0.4567350000000 1.0
C      1  0.4391710000000  0.4681150000000  0.4819740000000 1.0
C      1  0.4368000000000  0.4650730000000  0.5373490000000 1.0
C      1  0.4544340000000  0.4638190000000  0.5606980000000 1.0
C      1  0.5038630000000  0.4605920000000  0.5682500000000 1.0
C      1  0.5327470000000  0.4591710000000  0.5658770000000 1.0
C      1  0.5598810000000  0.4604550000000  0.5238930000000 1.0
C      1  0.5706940000000  0.4581690000000  0.4971780000000 1.0
C      1  0.5446420000000  0.4566740000000  0.4557130000000 1.0
C      1  0.5493630000000  0.4891830000000  0.4923520000000 1.0
C      1  0.5330920000000  0.4790440000000  0.4688650000000 1.0
C      1  0.5198610000000  0.4904580000000  0.4423550000000 1.0
C      1  0.4914240000000  0.4827000000000  0.4328470000000 1.0
C      1  0.4712070000000  0.4881720000000  0.4522290000000 1.0
C      1  0.4420380000000  0.4932550000000  0.4968540000000 1.0
C      1  0.4405160000000  0.4910160000000  0.5252820000000 1.0
C      1  0.4701020000000  0.4907550000000  0.5499820000000 1.0
C      1  0.4978770000000  0.4801270000000  0.5482370000000 1.0
C      1  0.5270150000000  0.4897930000000  0.5452460000000 1.0
C      1  0.5392590000000  0.4796030000000  0.5199590000000 1.0
C      1  0.5420920000000  0.5333500000000  0.5212360000000 1.0
C      1  0.5475860000000  0.5198020000000  0.4936500000000 1.0
C      1  0.5377560000000  0.5340360000000  0.4682590000000 1.0
C      1  0.5172830000000  0.5210480000000  0.4489780000000 1.0
C      1  0.4885560000000  0.5331250000000  0.4510930000000 1.0
C      1  0.4647420000000  0.5155910000000  0.4579360000000 1.0
C      1  0.4480710000000  0.5186770000000  0.4827950000000 1.0
C      1  0.4505020000000  0.5348580000000  0.5478570000000 1.0
C      1  0.4723290000000  0.5199740000000  0.5569970000000 1.0
C      1  0.4987450000000  0.5333700000000  0.5515190000000 1.0
C      1  0.5259220000000  0.5203520000000  0.5441960000000 1.0
C      1  0.5496130000000  0.4337410000000  0.5276810000000 1.0
C      1  0.5593210000000  0.4312720000000  0.4913550000000 1.0
C      1  0.5414870000000  0.4315430000000  0.4690720000000 1.0
C      1  0.5124160000000  0.4294060000000  0.4440080000000 1.0
C      1  0.4841650000000  0.4341200000000  0.4386540000000 1.0
C      1  0.4646170000000  0.4393970000000  0.4597700000000 1.0
C      1  0.4465700000000  0.4426730000000  0.4937520000000 1.0
C      1  0.4474900000000  0.4422310000000  0.5224470000000 1.0
C      1  0.4680810000000  0.4381660000000  0.5537100000000 1.0
C      1  0.4963000000000  0.4346260000000  0.5593610000000 1.0
C      1  0.5337310000000  0.4332070000000  0.5517260000000 1.0
C      1  0.4972310000000  0.5631060000000  0.5481100000000 1.0
C      1  0.5225680000000  0.5730180000000  0.5398080000000 1.0
C      1  0.5405740000000  0.5625990000000  0.5209500000000 1.0
C      1  0.5429850000000  0.5737330000000  0.4954110000000 1.0
C      1  0.5349150000000  0.5632170000000  0.4707430000000 1.0
C      1  0.5126340000000  0.5737000000000  0.4572460000000 1.0
C      1  0.4866020000000  0.5625680000000  0.4552700000000 1.0
C      1  0.4699960000000  0.5689440000000  0.4786420000000 1.0
C      1  0.4472030000000  0.5449520000000  0.4965610000000 1.0
C      1  0.4512580000000  0.5526850000000  0.5257270000000 1.0
C      1  0.4756010000000  0.5708810000000  0.5275700000000 1.0
C      1  0.4938950000000  0.5343490000000  0.5024160000000 1.0
C      1  0.4874760000000  0.5625760000000  0.5014230000000 1.0
C      1  0.4938930000000  0.4545550000000  0.4989100000000 1.0
C      1  0.4957000000000  0.5071180000000  0.5038280000000 1.0
C      1  0.4952180000000  0.4803040000000  0.5010820000000 1.0
END
