TITL C-2330492-4925-27 -9.70144434203876e-07 125000 -370.162173266143 0 0 60 (Td) n - 1
REM
REM in /home/bkarasulu/CARBON/AIRSS/Generating-Clusters/EDIP-Nigel-Params/Higher-Symm/Box-15A/Only-C60/SD-CG/HFTN-CG
REM
REM
REM
REM
REM
REM ./C.cell (414f73aa93bd7a1190c7fd0f31ff2f98)
REM
REM compiler GCC version 9.2.1 20190827 (Red Hat 9.2.1-1)
REM options -cpp -mtune=generic -march=x86-64 -g -O0 -fpre-include=/usr/include/finclude/math-vector-fortran.h
REM seed -2128448372 1042689512 1449846745 1283883350 1360252515 623607840 1151899495 -839276687 -1797882015 2134198272 -703500311 -322744272 1177609768 559204719 -260938129 1205395886 986103213 -1656556466 -1780681038 746758400 1599719080 -183902133 -363943849 -890884235 323427539 -1322777165 -777627485 -863528106 -1485600523 -292710474 -33579065 234522994 1294025273
REM
CELL 1.54180   50.00000   50.00000   50.00000   90.00000   90.00000   90.00000
LATT -1
SFAC C  
C      1  0.4852590000000  0.4650710000000  0.4277000000000 1.0
C      1  0.4651930000000  0.4276420000000  0.4852550000000 1.0
C      1  0.4277010000000  0.4851320000000  0.4651240000000 1.0
C      1  0.5146500000000  0.5349570000000  0.4276950000000 1.0
C      1  0.4852340000000  0.5348800000000  0.5723180000000 1.0
C      1  0.5148580000000  0.4650920000000  0.5722860000000 1.0
C      1  0.5347880000000  0.5723630000000  0.4852380000000 1.0
C      1  0.4649700000000  0.5722410000000  0.5147890000000 1.0
C      1  0.5350490000000  0.4277540000000  0.5147180000000 1.0
C      1  0.5722550000000  0.5148810000000  0.4650390000000 1.0
C      1  0.4276950000000  0.5146260000000  0.5349670000000 1.0
C      1  0.5723490000000  0.4853610000000  0.5348700000000 1.0
C      1  0.4650610000000  0.4852020000000  0.4277170000000 1.0
C      1  0.4277470000000  0.4649630000000  0.4852850000000 1.0
C      1  0.4853450000000  0.4276800000000  0.4650770000000 1.0
C      1  0.5348480000000  0.5148260000000  0.4276790000000 1.0
C      1  0.5349890000000  0.4852910000000  0.5722770000000 1.0
C      1  0.4651020000000  0.5146810000000  0.5723270000000 1.0
C      1  0.5722340000000  0.5350420000000  0.4852080000000 1.0
C      1  0.5723700000000  0.4652000000000  0.5147010000000 1.0
C      1  0.4276490000000  0.5347950000000  0.5148060000000 1.0
C      1  0.5146110000000  0.5723330000000  0.4650860000000 1.0
C      1  0.5148970000000  0.4277160000000  0.5348950000000 1.0
C      1  0.4851470000000  0.5722710000000  0.5349420000000 1.0
C      1  0.5289200000000  0.4171880000000  0.4900390000000 1.0
C      1  0.4171730000000  0.4899290000000  0.5288380000000 1.0
C      1  0.4899720000000  0.5287870000000  0.4171490000000 1.0
C      1  0.4710680000000  0.5828160000000  0.4901070000000 1.0
C      1  0.5286550000000  0.5829080000000  0.5099250000000 1.0
C      1  0.4713570000000  0.4170880000000  0.5099290000000 1.0
C      1  0.5828640000000  0.5100600000000  0.5287370000000 1.0
C      1  0.4171030000000  0.5097940000000  0.4712660000000 1.0
C      1  0.5828610000000  0.4902170000000  0.4711580000000 1.0
C      1  0.5099230000000  0.4712450000000  0.4171260000000 1.0
C      1  0.4901730000000  0.4711800000000  0.5828630000000 1.0
C      1  0.5099310000000  0.5287880000000  0.5828620000000 1.0
C      1  0.4170830000000  0.5286510000000  0.4901300000000 1.0
C      1  0.4902300000000  0.4171160000000  0.5287780000000 1.0
C      1  0.5287520000000  0.4901370000000  0.4171180000000 1.0
C      1  0.5829040000000  0.4713530000000  0.4900150000000 1.0
C      1  0.5828200000000  0.5289240000000  0.5098810000000 1.0
C      1  0.4171920000000  0.4710720000000  0.5099740000000 1.0
C      1  0.5098070000000  0.5828730000000  0.5287970000000 1.0
C      1  0.5100480000000  0.4171600000000  0.4711900000000 1.0
C      1  0.4899160000000  0.5828510000000  0.4712350000000 1.0
C      1  0.4711440000000  0.5098950000000  0.4171580000000 1.0
C      1  0.4712810000000  0.4900090000000  0.5828780000000 1.0
C      1  0.5288230000000  0.5099600000000  0.5828460000000 1.0
C      1  0.4415130000000  0.5583000000000  0.5185200000000 1.0
C      1  0.5186060000000  0.4416190000000  0.5583780000000 1.0
C      1  0.5583330000000  0.5185800000000  0.4415660000000 1.0
C      1  0.4814670000000  0.5583590000000  0.5584240000000 1.0
C      1  0.5183370000000  0.5584430000000  0.4415990000000 1.0
C      1  0.5584690000000  0.4816150000000  0.5583610000000 1.0
C      1  0.4416050000000  0.5183630000000  0.5584410000000 1.0
C      1  0.4415930000000  0.4814420000000  0.4416320000000 1.0
C      1  0.4815890000000  0.4415790000000  0.4416000000000 1.0
C      1  0.5585100000000  0.4416930000000  0.5184240000000 1.0
C      1  0.4416850000000  0.4415050000000  0.4815540000000 1.0
C      1  0.5582910000000  0.5585020000000  0.4815030000000 1.0
END
