TITL C-2330493-6014-34 -3.94783141444254e-06 125000 -371.501407194565 0 0 60 (C1) n - 1
REM
REM in /home/bkarasulu/CARBON/AIRSS/Generating-Clusters/EDIP-Nigel-Params/Higher-Symm/Box-15A/Only-C60/SD-CG/HFTN-CG
REM
REM
REM
REM
REM
REM ./C.cell (414f73aa93bd7a1190c7fd0f31ff2f98)
REM
REM compiler GCC version 9.2.1 20190827 (Red Hat 9.2.1-1)
REM options -cpp -mtune=generic -march=x86-64 -g -O0 -fpre-include=/usr/include/finclude/math-vector-fortran.h
REM seed -1783799851 415875086 725225079 -1843602269 1868252838 318440945 -131778096 -1670142592 -1830664653 569102706 1637840033 1069253884 -306507875 -248733681 464022994 246157723 1764679328 961979715 -1672577632 -2064592517 444468041 -1315576241 1165807346 1873928264 -2011717383 -1881932744 -1747478016 -640020475 2519122 435338783 -627346435 1326107777 -1711321614
REM
CELL 1.54180   50.00000   50.00000   50.00000   90.00000   90.00000   90.00000
LATT -1
SFAC C  
C      1  0.4661900000000  0.4467120000000  0.4849280000000 1.0
C      1  0.4669830000000  0.4967800000000  0.4415960000000 1.0
C      1  0.4669610000000  0.5538080000000  0.4758480000000 1.0
C      1  0.4662440000000  0.5382470000000  0.5404040000000 1.0
C      1  0.4682180000000  0.4712930000000  0.5478680000000 1.0
C      1  0.5337720000000  0.4463610000000  0.4848720000000 1.0
C      1  0.5329420000000  0.4967380000000  0.4416280000000 1.0
C      1  0.5330100000000  0.5538270000000  0.4759070000000 1.0
C      1  0.5337150000000  0.5386430000000  0.5405010000000 1.0
C      1  0.5329230000000  0.4717950000000  0.5468260000000 1.0
C      1  0.6224560000000  0.4913030000000  0.4880230000000 1.0
C      1  0.6221970000000  0.5134300000000  0.5045230000000 1.0
C      1  0.6044680000000  0.5081660000000  0.5261770000000 1.0
C      1  0.6063820000000  0.4792200000000  0.5282680000000 1.0
C      1  0.6044670000000  0.4727920000000  0.4999810000000 1.0
C      1  0.3771360000000  0.4913830000000  0.4878220000000 1.0
C      1  0.3774070000000  0.5135120000000  0.5043150000000 1.0
C      1  0.3951590000000  0.5082490000000  0.5259500000000 1.0
C      1  0.3932770000000  0.4793120000000  0.5280230000000 1.0
C      1  0.3951490000000  0.4728780000000  0.4997480000000 1.0
C      1  0.5589720000000  0.5477910000000  0.4834190000000 1.0
C      1  0.5604470000000  0.5309320000000  0.5384860000000 1.0
C      1  0.5597510000000  0.4707260000000  0.5395280000000 1.0
C      1  0.5603750000000  0.4543780000000  0.4819000000000 1.0
C      1  0.5589120000000  0.5017210000000  0.4497600000000 1.0
C      1  0.4409600000000  0.5478280000000  0.4832500000000 1.0
C      1  0.4394460000000  0.5307050000000  0.5383850000000 1.0
C      1  0.4419400000000  0.4715220000000  0.5388410000000 1.0
C      1  0.4395120000000  0.4545320000000  0.4818800000000 1.0
C      1  0.4409830000000  0.5018250000000  0.4496010000000 1.0
C      1  0.4375540000000  0.4878960000000  0.5164910000000 1.0
C      1  0.4243940000000  0.4773310000000  0.4914750000000 1.0
C      1  0.4264880000000  0.5017010000000  0.4733610000000 1.0
C      1  0.4265720000000  0.5252140000000  0.4908190000000 1.0
C      1  0.4244140000000  0.5148620000000  0.5193910000000 1.0
C      1  0.5619240000000  0.4875120000000  0.5170940000000 1.0
C      1  0.5752010000000  0.4772140000000  0.4918130000000 1.0
C      1  0.5730850000000  0.5015470000000  0.4737080000000 1.0
C      1  0.5730200000000  0.5250010000000  0.4911070000000 1.0
C      1  0.5751940000000  0.5146730000000  0.5196570000000 1.0
C      1  0.4855780000000  0.5571990000000  0.4976420000000 1.0
C      1  0.4856060000000  0.5191070000000  0.5504900000000 1.0
C      1  0.4861750000000  0.4566390000000  0.5306210000000 1.0
C      1  0.4854540000000  0.4563080000000  0.4655480000000 1.0
C      1  0.4856140000000  0.5186030000000  0.4447010000000 1.0
C      1  0.5143680000000  0.5573850000000  0.4976500000000 1.0
C      1  0.5145540000000  0.5191550000000  0.5501230000000 1.0
C      1  0.5147800000000  0.4557300000000  0.5310450000000 1.0
C      1  0.5144360000000  0.4563670000000  0.4657180000000 1.0
C      1  0.5143320000000  0.5185720000000  0.4447970000000 1.0
C      1  0.5246300000000  0.4950880000000  0.5596000000000 1.0
C      1  0.5256910000000  0.4402420000000  0.5107190000000 1.0
C      1  0.5246110000000  0.4703900000000  0.4440370000000 1.0
C      1  0.5248510000000  0.5433560000000  0.4515380000000 1.0
C      1  0.5253470000000  0.5585390000000  0.5231150000000 1.0
C      1  0.4761020000000  0.4949090000000  0.5602710000000 1.0
C      1  0.4746390000000  0.4410190000000  0.5107450000000 1.0
C      1  0.4752990000000  0.4704100000000  0.4439030000000 1.0
C      1  0.4751240000000  0.5433990000000  0.4514550000000 1.0
C      1  0.4746050000000  0.5582240000000  0.5231080000000 1.0
END
