TITL C-2330496-4560-25 -8.34893523952098e-07 125000 -354.28602084681 0 0 60 (Cs) n - 1
REM
REM in /home/bkarasulu/CARBON/AIRSS/Generating-Clusters/EDIP-Nigel-Params/Higher-Symm/Box-15A/Only-C60/SD-CG/HFTN-CG
REM
REM
REM
REM
REM
REM ./C.cell (414f73aa93bd7a1190c7fd0f31ff2f98)
REM
REM compiler GCC version 9.2.1 20190827 (Red Hat 9.2.1-1)
REM options -cpp -mtune=generic -march=x86-64 -g -O0 -fpre-include=/usr/include/finclude/math-vector-fortran.h
REM seed 1670462822 1686189709 -1840605949 2050635969 331466289 1061221971 634249394 1946434468 -1786340026 1231013721 -1909172098 239734617 -1116783734 2114021296 622526836 -1239622232 860565340 1968886356 414597197 -1799272451 -833626626 -974819153 -1464948764 1278968395 -1716806623 468905214 -183087990 -1134427264 1010688860 -1433304541 1204327219 1715991674 82405690
REM
CELL 1.54180   50.00000   50.00000   50.00000   90.00000   90.00000   90.00000
LATT -1
SFAC C  
C      1  0.4303490000000  0.4788040000000  0.4858400000000 1.0
C      1  0.5476000000000  0.4792870000000  0.4463620000000 1.0
C      1  0.5230370000000  0.4795920000000  0.5679160000000 1.0
C      1  0.4303490000000  0.4788040000000  0.5141600000000 1.0
C      1  0.5476000000000  0.4792870000000  0.5536380000000 1.0
C      1  0.5230370000000  0.4795920000000  0.4320840000000 1.0
C      1  0.4700150000000  0.5123300000000  0.4811590000000 1.0
C      1  0.5313030000000  0.5122170000000  0.4832180000000 1.0
C      1  0.4991340000000  0.5126320000000  0.5355540000000 1.0
C      1  0.4700150000000  0.5123300000000  0.5188410000000 1.0
C      1  0.5313030000000  0.5122170000000  0.5167820000000 1.0
C      1  0.4991340000000  0.5126320000000  0.4644460000000 1.0
C      1  0.4775880000000  0.4797250000000  0.4305200000000 1.0
C      1  0.5715200000000  0.4795430000000  0.5147840000000 1.0
C      1  0.4521050000000  0.4792150000000  0.5546820000000 1.0
C      1  0.4775880000000  0.4797250000000  0.5694800000000 1.0
C      1  0.5715200000000  0.4795430000000  0.4852160000000 1.0
C      1  0.4521050000000  0.4792150000000  0.4453180000000 1.0
C      1  0.4951250000000  0.5066410000000  0.5667270000000 1.0
C      1  0.4450100000000  0.5059260000000  0.4620770000000 1.0
C      1  0.5603660000000  0.5063530000000  0.4711310000000 1.0
C      1  0.4951250000000  0.5066410000000  0.4332730000000 1.0
C      1  0.4450100000000  0.5059260000000  0.5379230000000 1.0
C      1  0.5603660000000  0.5063530000000  0.5288690000000 1.0
C      1  0.5247650000000  0.5559040000000  0.4857380000000 1.0
C      1  0.4996690000000  0.5563100000000  0.5287630000000 1.0
C      1  0.4749340000000  0.5560470000000  0.4855020000000 1.0
C      1  0.5247650000000  0.5559040000000  0.5142620000000 1.0
C      1  0.4996690000000  0.5563100000000  0.4712370000000 1.0
C      1  0.4749340000000  0.5560470000000  0.5144980000000 1.0
C      1  0.4750850000000  0.4814630000000  0.5144820000000 1.0
C      1  0.5004160000000  0.4810020000000  0.4707590000000 1.0
C      1  0.5253930000000  0.4809300000000  0.5146790000000 1.0
C      1  0.4750850000000  0.4814630000000  0.4855180000000 1.0
C      1  0.5004160000000  0.4810020000000  0.5292410000000 1.0
C      1  0.5253930000000  0.4809300000000  0.4853210000000 1.0
C      1  0.4990540000000  0.4365900000000  0.4716090000000 1.0
C      1  0.5240160000000  0.4365480000000  0.5142920000000 1.0
C      1  0.4730880000000  0.4371620000000  0.5149110000000 1.0
C      1  0.4990540000000  0.4365900000000  0.5283910000000 1.0
C      1  0.5240160000000  0.4365480000000  0.4857080000000 1.0
C      1  0.4730880000000  0.4371620000000  0.4850890000000 1.0
C      1  0.5700950000000  0.5330800000000  0.4847620000000 1.0
C      1  0.4780920000000  0.5330940000000  0.5684400000000 1.0
C      1  0.4516630000000  0.5327860000000  0.4467850000000 1.0
C      1  0.5700950000000  0.5330800000000  0.5152380000000 1.0
C      1  0.4780920000000  0.5330940000000  0.4315600000000 1.0
C      1  0.4516630000000  0.5327860000000  0.5532150000000 1.0
C      1  0.4529190000000  0.4636000000000  0.4726130000000 1.0
C      1  0.5478960000000  0.4640400000000  0.4723130000000 1.0
C      1  0.5003470000000  0.4643240000000  0.5554890000000 1.0
C      1  0.4529190000000  0.4636000000000  0.5273870000000 1.0
C      1  0.5478960000000  0.4640400000000  0.5276870000000 1.0
C      1  0.5003470000000  0.4643240000000  0.4445110000000 1.0
C      1  0.4532340000000  0.5514030000000  0.4683760000000 1.0
C      1  0.5504620000000  0.5515880000000  0.4754620000000 1.0
C      1  0.4957180000000  0.5518630000000  0.5561370000000 1.0
C      1  0.4532340000000  0.5514030000000  0.5316240000000 1.0
C      1  0.5504620000000  0.5515880000000  0.5245380000000 1.0
C      1  0.4957180000000  0.5518630000000  0.4438630000000 1.0
END
