TITL C-2330503-3907-23 4.33013107722875e-05 125000 -367.661526247878 0 0 60 (C1) n - 1
REM
REM in /home/bkarasulu/CARBON/AIRSS/Generating-Clusters/EDIP-Nigel-Params/Higher-Symm/Box-15A/Only-C60/SD-CG/HFTN-CG
REM
REM
REM
REM
REM
REM ./C.cell (414f73aa93bd7a1190c7fd0f31ff2f98)
REM
REM compiler GCC version 9.2.1 20190827 (Red Hat 9.2.1-1)
REM options -cpp -mtune=generic -march=x86-64 -g -O0 -fpre-include=/usr/include/finclude/math-vector-fortran.h
REM seed -35100678 -1080470605 1225979138 886426019 -315654306 -352042905 -1677835515 -506668220 -454123567 2006283052 -213089882 -1186495741 -1358451504 -583876106 1891253696 -1726584822 267228098 209713319 1156533544 -1467469951 -1273674846 -872402057 442458221 1165992629 1077554075 179801818 389549215 -904945280 535254142 -1889934610 1864062578 1419871158 -2096075369
REM
CELL 1.54180   50.00000   50.00000   50.00000   90.00000   90.00000   90.00000
LATT -1
SFAC C  
C      1  0.4907440000000  0.5759660000000  0.4742880000000 1.0
C      1  0.4724300000000  0.4568090000000  0.4592930000000 1.0
C      1  0.4716450000000  0.5330450000000  0.4770020000000 1.0
C      1  0.5177780000000  0.5162740000000  0.4353400000000 1.0
C      1  0.5732600000000  0.4888940000000  0.4596310000000 1.0
C      1  0.4918520000000  0.5015230000000  0.5197960000000 1.0
C      1  0.5057670000000  0.4878730000000  0.4786840000000 1.0
C      1  0.4304620000000  0.4835260000000  0.5335690000000 1.0
C      1  0.5613650000000  0.5397720000000  0.5234610000000 1.0
C      1  0.5273700000000  0.4203030000000  0.4844770000000 1.0
C      1  0.4660430000000  0.5454430000000  0.5538910000000 1.0
C      1  0.4886570000000  0.4786740000000  0.5020150000000 1.0
C      1  0.4939280000000  0.5550180000000  0.5552700000000 1.0
C      1  0.4415140000000  0.5095820000000  0.5334180000000 1.0
C      1  0.5003720000000  0.5745570000000  0.5006040000000 1.0
C      1  0.5282580000000  0.5648320000000  0.5017010000000 1.0
C      1  0.5051850000000  0.5014210000000  0.5753170000000 1.0
C      1  0.4806380000000  0.4330240000000  0.5109470000000 1.0
C      1  0.5119450000000  0.5358170000000  0.4581950000000 1.0
C      1  0.4883540000000  0.5527620000000  0.5172010000000 1.0
C      1  0.5571500000000  0.4797730000000  0.4805850000000 1.0
C      1  0.5165650000000  0.4986070000000  0.5385070000000 1.0
C      1  0.5028410000000  0.4901930000000  0.4341570000000 1.0
C      1  0.4763830000000  0.4632790000000  0.5572170000000 1.0
C      1  0.4902580000000  0.5261060000000  0.5017630000000 1.0
C      1  0.5011700000000  0.4504310000000  0.5635850000000 1.0
C      1  0.4568210000000  0.5550810000000  0.5263020000000 1.0
C      1  0.4348090000000  0.5110750000000  0.4707820000000 1.0
C      1  0.5434050000000  0.4585650000000  0.5322190000000 1.0
C      1  0.5156620000000  0.4544260000000  0.5393140000000 1.0
C      1  0.5242470000000  0.5217040000000  0.5679730000000 1.0
C      1  0.5285660000000  0.4465400000000  0.4977420000000 1.0
C      1  0.4474130000000  0.4546070000000  0.4718580000000 1.0
C      1  0.4605310000000  0.5153110000000  0.5545890000000 1.0
C      1  0.5137800000000  0.5186170000000  0.4841660000000 1.0
C      1  0.5127200000000  0.4283270000000  0.4611500000000 1.0
C      1  0.4865540000000  0.5525180000000  0.4599560000000 1.0
C      1  0.4631190000000  0.4467780000000  0.5331270000000 1.0
C      1  0.4840250000000  0.4854830000000  0.4569430000000 1.0
C      1  0.4802980000000  0.4936460000000  0.5616420000000 1.0
C      1  0.5306340000000  0.4671270000000  0.4756230000000 1.0
C      1  0.5362800000000  0.5497570000000  0.4756070000000 1.0
C      1  0.4407390000000  0.4606070000000  0.5206370000000 1.0
C      1  0.5369200000000  0.5525420000000  0.5276510000000 1.0
C      1  0.5679160000000  0.5229470000000  0.5020120000000 1.0
C      1  0.5279500000000  0.4517910000000  0.4494750000000 1.0
C      1  0.4876510000000  0.4367840000000  0.4735320000000 1.0
C      1  0.5540770000000  0.4974080000000  0.5033290000000 1.0
C      1  0.5169660000000  0.4667160000000  0.4282440000000 1.0
C      1  0.4514650000000  0.4712480000000  0.4952960000000 1.0
C      1  0.5174220000000  0.5407000000000  0.5472850000000 1.0
C      1  0.5624450000000  0.5344950000000  0.4750220000000 1.0
C      1  0.5454260000000  0.5158840000000  0.4314870000000 1.0
C      1  0.4636000000000  0.5091340000000  0.4595340000000 1.0
C      1  0.4345550000000  0.5360240000000  0.4864700000000 1.0
C      1  0.4394170000000  0.5337120000000  0.5153900000000 1.0
C      1  0.5021820000000  0.4531800000000  0.5128430000000 1.0
C      1  0.5437440000000  0.4871090000000  0.5289080000000 1.0
C      1  0.4331960000000  0.4924720000000  0.4909960000000 1.0
C      1  0.5635360000000  0.5141790000000  0.4529790000000 1.0
END
