TITL C-2330497-5381-3 2.92481766971593e-08 125000 -371.751144572294 0 0 60 (C1) n - 1
REM
REM in /home/bkarasulu/CARBON/AIRSS/Generating-Clusters/EDIP-Nigel-Params/Higher-Symm/Box-15A/Only-C60/SD-CG/HFTN-CG
REM
REM
REM
REM
REM
REM ./C.cell (414f73aa93bd7a1190c7fd0f31ff2f98)
REM
REM compiler GCC version 9.2.1 20190827 (Red Hat 9.2.1-1)
REM options -cpp -mtune=generic -march=x86-64 -g -O0 -fpre-include=/usr/include/finclude/math-vector-fortran.h
REM seed -793619147 460322569 570061052 1754460695 992873792 969385920 -357094871 -330080079 999422525 -426392383 -280125981 -1610081145 512362211 1756271499 1725774845 -2076284761 1641498566 419457636 557934520 2056334512 2095490373 1142983208 -755602836 318147618 -1818528448 1737822944 -194930794 795223162 470246408 999610265 -1505927961 1654734074 1923620887
REM
CELL 1.54180   50.00000   50.00000   50.00000   90.00000   90.00000   90.00000
LATT -1
SFAC C  
C      1  0.4326570000000  0.4924620000000  0.4610540000000 1.0
C      1  0.5409780000000  0.4453560000000  0.4684670000000 1.0
C      1  0.5292990000000  0.5680040000000  0.4630550000000 1.0
C      1  0.5155350000000  0.5084630000000  0.4406910000000 1.0
C      1  0.4877810000000  0.5088900000000  0.4345550000000 1.0
C      1  0.4907240000000  0.4799170000000  0.4314630000000 1.0
C      1  0.5592390000000  0.4967330000000  0.5454780000000 1.0
C      1  0.4772110000000  0.5515800000000  0.5431330000000 1.0
C      1  0.4603270000000  0.4470960000000  0.5414350000000 1.0
C      1  0.4448630000000  0.4942590000000  0.5295130000000 1.0
C      1  0.5320400000000  0.4511650000000  0.5401050000000 1.0
C      1  0.5266050000000  0.5544840000000  0.5317850000000 1.0
C      1  0.4928470000000  0.5480340000000  0.4913490000000 1.0
C      1  0.4674810000000  0.4705560000000  0.4934210000000 1.0
C      1  0.5408670000000  0.4840000000000  0.4995990000000 1.0
C      1  0.5523710000000  0.5083450000000  0.5183370000000 1.0
C      1  0.4705280000000  0.5400250000000  0.5161930000000 1.0
C      1  0.4802230000000  0.4501550000000  0.5191460000000 1.0
C      1  0.5621720000000  0.5537170000000  0.5032790000000 1.0
C      1  0.4240590000000  0.5274080000000  0.5053400000000 1.0
C      1  0.5169900000000  0.4189040000000  0.5095140000000 1.0
C      1  0.5353420000000  0.4989950000000  0.5613630000000 1.0
C      1  0.4761910000000  0.5313670000000  0.5634210000000 1.0
C      1  0.4685110000000  0.4633480000000  0.5643690000000 1.0
C      1  0.4878100000000  0.4957440000000  0.4989460000000 1.0
C      1  0.5117470000000  0.4823510000000  0.5099880000000 1.0
C      1  0.5088130000000  0.5227000000000  0.4921310000000 1.0
C      1  0.5690520000000  0.5395230000000  0.4582740000000 1.0
C      1  0.4283400000000  0.5401600000000  0.4587130000000 1.0
C      1  0.5044250000000  0.4175320000000  0.4599610000000 1.0
C      1  0.5165690000000  0.5686130000000  0.4880460000000 1.0
C      1  0.4392690000000  0.4832590000000  0.4868420000000 1.0
C      1  0.5480600000000  0.4541210000000  0.4943920000000 1.0
C      1  0.4419270000000  0.5167340000000  0.4506280000000 1.0
C      1  0.5177650000000  0.4416030000000  0.4529170000000 1.0
C      1  0.5412240000000  0.5435390000000  0.4567210000000 1.0
C      1  0.4722190000000  0.5087600000000  0.5226030000000 1.0
C      1  0.5049060000000  0.4650050000000  0.5328390000000 1.0
C      1  0.5264460000000  0.5257510000000  0.5212350000000 1.0
C      1  0.4836290000000  0.4266420000000  0.4770980000000 1.0
C      1  0.5711010000000  0.5169880000000  0.4759090000000 1.0
C      1  0.4476360000000  0.5534810000000  0.4750240000000 1.0
C      1  0.4757510000000  0.4541670000000  0.4697190000000 1.0
C      1  0.5472180000000  0.4990540000000  0.4737330000000 1.0
C      1  0.4753550000000  0.5465600000000  0.4668050000000 1.0
C      1  0.4703880000000  0.5200120000000  0.4551150000000 1.0
C      1  0.4983390000000  0.4641570000000  0.4543780000000 1.0
C      1  0.5269030000000  0.5189020000000  0.4654390000000 1.0
C      1  0.5378940000000  0.5674040000000  0.5090850000000 1.0
C      1  0.4268300000000  0.4996640000000  0.5080460000000 1.0
C      1  0.5388840000000  0.4353870000000  0.5160730000000 1.0
C      1  0.5161650000000  0.5139610000000  0.5462390000000 1.0
C      1  0.4877660000000  0.5080760000000  0.5492680000000 1.0
C      1  0.4914860000000  0.4787380000000  0.5570320000000 1.0
C      1  0.4396370000000  0.4671260000000  0.5387290000000 1.0
C      1  0.5548330000000  0.4679390000000  0.5480030000000 1.0
C      1  0.5018120000000  0.5642390000000  0.5406380000000 1.0
C      1  0.4898350000000  0.4249300000000  0.5058660000000 1.0
C      1  0.5712960000000  0.5267760000000  0.5036970000000 1.0
C      1  0.4438270000000  0.5471410000000  0.5038010000000 1.0
END
