TITL C-2330495-4568-27 4.21065645006938e-05 125000 -362.922739388683 0 0 60 (C1) n - 1
REM
REM in /home/bkarasulu/CARBON/AIRSS/Generating-Clusters/EDIP-Nigel-Params/Higher-Symm/Box-15A/Only-C60/SD-CG/HFTN-CG
REM
REM
REM
REM
REM
REM ./C.cell (414f73aa93bd7a1190c7fd0f31ff2f98)
REM
REM compiler GCC version 9.2.1 20190827 (Red Hat 9.2.1-1)
REM options -cpp -mtune=generic -march=x86-64 -g -O0 -fpre-include=/usr/include/finclude/math-vector-fortran.h
REM seed -1791615611 1136788595 1778809490 2140694146 1613596325 -882959129 -1853122142 1735021928 -1442735299 -1902067738 1297257203 -375420630 -951252508 370030108 -1912857479 -80620954 -17551622 -1582493626 -1544450068 -2090295311 -376840144 271682522 1802185508 -1261082127 1303308370 -975105177 772106742 1585678267 -1827109048 403900131 503962972 -201130028 956075391
REM
CELL 1.54180   50.00000   50.00000   50.00000   90.00000   90.00000   90.00000
LATT -1
SFAC C  
C      1  0.4997250000000  0.4297270000000  0.5631760000000 1.0
C      1  0.5021980000000  0.5863390000000  0.5442210000000 1.0
C      1  0.4832650000000  0.4860560000000  0.4135610000000 1.0
C      1  0.5037980000000  0.5702310000000  0.5655270000000 1.0
C      1  0.4948060000000  0.4136020000000  0.5417140000000 1.0
C      1  0.4831950000000  0.5126730000000  0.4136080000000 1.0
C      1  0.5089740000000  0.4497030000000  0.5120820000000 1.0
C      1  0.5135120000000  0.5308690000000  0.5409240000000 1.0
C      1  0.4954030000000  0.5167420000000  0.4616180000000 1.0
C      1  0.5084370000000  0.5507340000000  0.5123070000000 1.0
C      1  0.5135630000000  0.4691870000000  0.5409110000000 1.0
C      1  0.4956510000000  0.4834450000000  0.4617450000000 1.0
C      1  0.4685490000000  0.5556990000000  0.4650480000000 1.0
C      1  0.4731810000000  0.4209140000000  0.4804330000000 1.0
C      1  0.4696660000000  0.5155590000000  0.5566280000000 1.0
C      1  0.4691850000000  0.4441680000000  0.4659530000000 1.0
C      1  0.4736110000000  0.5794370000000  0.4782870000000 1.0
C      1  0.4702450000000  0.4842360000000  0.5567090000000 1.0
C      1  0.4824990000000  0.4650300000000  0.5074640000000 1.0
C      1  0.4878180000000  0.5161520000000  0.5311250000000 1.0
C      1  0.4731650000000  0.5299240000000  0.4795090000000 1.0
C      1  0.4820940000000  0.5353270000000  0.5073540000000 1.0
C      1  0.4881460000000  0.4840890000000  0.5311240000000 1.0
C      1  0.4735120000000  0.4702430000000  0.4797430000000 1.0
C      1  0.5624480000000  0.4723730000000  0.5325130000000 1.0
C      1  0.5559630000000  0.5475240000000  0.4993870000000 1.0
C      1  0.5455810000000  0.4813040000000  0.4531780000000 1.0
C      1  0.5623090000000  0.5278010000000  0.5319360000000 1.0
C      1  0.5565530000000  0.4532860000000  0.4995050000000 1.0
C      1  0.5452860000000  0.5198590000000  0.4530750000000 1.0
C      1  0.4745530000000  0.5533510000000  0.4378960000000 1.0
C      1  0.4823580000000  0.4099950000000  0.5036960000000 1.0
C      1  0.4831920000000  0.5289050000000  0.5774230000000 1.0
C      1  0.4758540000000  0.4456560000000  0.4388930000000 1.0
C      1  0.4859820000000  0.5905930000000  0.4991640000000 1.0
C      1  0.4834440000000  0.4716610000000  0.5781300000000 1.0
C      1  0.5385910000000  0.4856330000000  0.5409730000000 1.0
C      1  0.5286770000000  0.5448070000000  0.4914130000000 1.0
C      1  0.5232710000000  0.4733640000000  0.4692720000000 1.0
C      1  0.5384890000000  0.5144310000000  0.5403720000000 1.0
C      1  0.5292960000000  0.4560410000000  0.4914580000000 1.0
C      1  0.5228200000000  0.5274690000000  0.4691150000000 1.0
C      1  0.5033300000000  0.5795130000000  0.5174900000000 1.0
C      1  0.4883720000000  0.4704390000000  0.4356580000000 1.0
C      1  0.5041200000000  0.4568510000000  0.5663470000000 1.0
C      1  0.5042700000000  0.4205490000000  0.5167370000000 1.0
C      1  0.4879250000000  0.5289850000000  0.4352630000000 1.0
C      1  0.5052790000000  0.5426850000000  0.5669770000000 1.0
C      1  0.4481950000000  0.4857230000000  0.4797070000000 1.0
C      1  0.3986990000000  0.4843690000000  0.4801870000000 1.0
C      1  0.4230640000000  0.5263800000000  0.4797660000000 1.0
C      1  0.4480200000000  0.5141560000000  0.4795910000000 1.0
C      1  0.4006530000000  0.5113730000000  0.4800600000000 1.0
C      1  0.4233880000000  0.4732720000000  0.4799760000000 1.0
C      1  0.5689250000000  0.5542040000000  0.5402100000000 1.0
C      1  0.5439210000000  0.5144090000000  0.4251450000000 1.0
C      1  0.5652180000000  0.4321490000000  0.5164570000000 1.0
C      1  0.5689920000000  0.4458350000000  0.5403760000000 1.0
C      1  0.5440980000000  0.4865930000000  0.4252230000000 1.0
C      1  0.5646670000000  0.5683730000000  0.5166600000000 1.0
END
