TITL C-2330504-4001-1 -5.72971540881704e-07 125000 -368.650826463304 0 0 60 (C1) n - 1
REM
REM in /home/bkarasulu/CARBON/AIRSS/Generating-Clusters/EDIP-Nigel-Params/Higher-Symm/Box-15A/Only-C60/SD-CG/HFTN-CG
REM
REM
REM
REM
REM
REM ./C.cell (414f73aa93bd7a1190c7fd0f31ff2f98)
REM
REM compiler GCC version 9.2.1 20190827 (Red Hat 9.2.1-1)
REM options -cpp -mtune=generic -march=x86-64 -g -O0 -fpre-include=/usr/include/finclude/math-vector-fortran.h
REM seed 1914444717 -976689978 756204962 479460784 1879805601 1689276409 -1783628760 -751574516 8130263 -1658501826 2135901440 -1691024485 1876617526 -2082281752 1367569780 1143517585 -60051321 399493183 676456895 845473622 -750159006 -602159488 -1380459850 -1210462595 1227930910 -2114001549 1897463276 1312019703 -1422276736 -1361878984 644900791 945539790 -2136063609
REM
CELL 1.54180   50.00000   50.00000   50.00000   90.00000   90.00000   90.00000
LATT -1
SFAC C  
C      1  0.5033290000000  0.4451590000000  0.4639830000000 1.0
C      1  0.4511620000000  0.5241730000000  0.4639880000000 1.0
C      1  0.5456670000000  0.5308610000000  0.4640550000000 1.0
C      1  0.4747570000000  0.4399110000000  0.4736620000000 1.0
C      1  0.4607540000000  0.5515560000000  0.4735550000000 1.0
C      1  0.5643730000000  0.5086320000000  0.4736640000000 1.0
C      1  0.5694390000000  0.5104200000000  0.5026160000000 1.0
C      1  0.4741510000000  0.4349800000000  0.5026780000000 1.0
C      1  0.4565510000000  0.5549320000000  0.5025050000000 1.0
C      1  0.5647480000000  0.4828070000000  0.5452560000000 1.0
C      1  0.4527500000000  0.4525880000000  0.5456150000000 1.0
C      1  0.4823420000000  0.5646010000000  0.5454380000000 1.0
C      1  0.5295090000000  0.5476860000000  0.5338550000000 1.0
C      1  0.5264690000000  0.4505800000000  0.5335940000000 1.0
C      1  0.4439830000000  0.5017680000000  0.5336060000000 1.0
C      1  0.5691060000000  0.4596490000000  0.5080310000000 1.0
C      1  0.4302110000000  0.4602930000000  0.5085450000000 1.0
C      1  0.5004520000000  0.5802600000000  0.5084620000000 1.0
C      1  0.5492440000000  0.5490720000000  0.5111590000000 1.0
C      1  0.5177900000000  0.4329020000000  0.5108590000000 1.0
C      1  0.4330570000000  0.5181290000000  0.5108380000000 1.0
C      1  0.5573270000000  0.4537120000000  0.5362390000000 1.0
C      1  0.4312180000000  0.4735830000000  0.5366360000000 1.0
C      1  0.5113070000000  0.5727980000000  0.5366420000000 1.0
C      1  0.5144280000000  0.4874720000000  0.4984290000000 1.0
C      1  0.4822110000000  0.4929040000000  0.4975530000000 1.0
C      1  0.5037670000000  0.5186020000000  0.4977640000000 1.0
C      1  0.4787500000000  0.4842640000000  0.4626660000000 1.0
C      1  0.4971590000000  0.5262710000000  0.4623080000000 1.0
C      1  0.5246450000000  0.4897150000000  0.4609120000000 1.0
C      1  0.5485540000000  0.4623490000000  0.4866450000000 1.0
C      1  0.4423450000000  0.4767380000000  0.4868900000000 1.0
C      1  0.5085720000000  0.5612810000000  0.4870880000000 1.0
C      1  0.5372250000000  0.5256770000000  0.5531650000000 1.0
C      1  0.5036530000000  0.4543980000000  0.5530640000000 1.0
C      1  0.4588790000000  0.5194470000000  0.5530300000000 1.0
C      1  0.4743900000000  0.5107810000000  0.4489250000000 1.0
C      1  0.5226640000000  0.5175050000000  0.4491710000000 1.0
C      1  0.5031490000000  0.4718730000000  0.4496730000000 1.0
C      1  0.5236590000000  0.4460470000000  0.4860420000000 1.0
C      1  0.4414900000000  0.5063860000000  0.4861290000000 1.0
C      1  0.5350020000000  0.5478940000000  0.4863110000000 1.0
C      1  0.4896790000000  0.5551030000000  0.4652370000000 1.0
C      1  0.5527800000000  0.4819790000000  0.4652460000000 1.0
C      1  0.4573070000000  0.4633290000000  0.4651450000000 1.0
C      1  0.5147400000000  0.5139900000000  0.4202520000000 1.0
C      1  0.4993260000000  0.4790260000000  0.4206400000000 1.0
C      1  0.4861830000000  0.5056920000000  0.4204290000000 1.0
C      1  0.5391960000000  0.4981770000000  0.5436590000000 1.0
C      1  0.4788580000000  0.4670540000000  0.5442990000000 1.0
C      1  0.4817830000000  0.5348170000000  0.5436590000000 1.0
C      1  0.5177120000000  0.4819390000000  0.5295170000000 1.0
C      1  0.4755330000000  0.4934780000000  0.5294610000000 1.0
C      1  0.5065690000000  0.5243360000000  0.5294760000000 1.0
C      1  0.4940270000000  0.4181130000000  0.5128100000000 1.0
C      1  0.4320280000000  0.5461110000000  0.5126510000000 1.0
C      1  0.5740210000000  0.5359990000000  0.5129830000000 1.0
C      1  0.4487510000000  0.4374830000000  0.5179170000000 1.0
C      1  0.4713730000000  0.5757660000000  0.5177430000000 1.0
C      1  0.5798950000000  0.4869530000000  0.5176300000000 1.0
END
