TITL C-2330498-5673-6 -4.3223317533759e-06 125000 -361.210516256366 0 0 60 (C1) n - 1
REM
REM in /home/bkarasulu/CARBON/AIRSS/Generating-Clusters/EDIP-Nigel-Params/Higher-Symm/Box-15A/Only-C60/SD-CG/HFTN-CG
REM
REM
REM
REM
REM
REM ./C.cell (414f73aa93bd7a1190c7fd0f31ff2f98)
REM
REM compiler GCC version 9.2.1 20190827 (Red Hat 9.2.1-1)
REM options -cpp -mtune=generic -march=x86-64 -g -O0 -fpre-include=/usr/include/finclude/math-vector-fortran.h
REM seed 444124665 1828098923 -2011213149 -1988703534 -1596262844 1390300154 -1888409144 2026422447 1960335317 1339043863 1980595963 407476757 -819109994 2086166122 624779823 730733728 -341461146 -1489234275 -971764663 997961965 -81509708 -1774046502 -1360902516 1798326481 352825673 -201759407 -508845158 -1947529459 837918112 -1535011731 -678786212 -166686705 1792314110
REM
CELL 1.54180   50.00000   50.00000   50.00000   90.00000   90.00000   90.00000
LATT -1
SFAC C  
C      1  0.4495750000000  0.5167840000000  0.4656240000000 1.0
C      1  0.4452870000000  0.4669260000000  0.4867820000000 1.0
C      1  0.4470850000000  0.4800370000000  0.5353840000000 1.0
C      1  0.4507000000000  0.5309530000000  0.5146240000000 1.0
C      1  0.4547150000000  0.4889140000000  0.4694830000000 1.0
C      1  0.4559120000000  0.5356120000000  0.4864950000000 1.0
C      1  0.4548720000000  0.5074330000000  0.5316980000000 1.0
C      1  0.4503770000000  0.4608410000000  0.5144510000000 1.0
C      1  0.4986350000000  0.4566750000000  0.5714390000000 1.0
C      1  0.5034620000000  0.5724530000000  0.5457330000000 1.0
C      1  0.4969170000000  0.5460600000000  0.4317570000000 1.0
C      1  0.5028160000000  0.4322470000000  0.4498940000000 1.0
C      1  0.5036170000000  0.5527690000000  0.5648240000000 1.0
C      1  0.4942390000000  0.4389790000000  0.5508590000000 1.0
C      1  0.5036460000000  0.4522500000000  0.4302310000000 1.0
C      1  0.4889530000000  0.5629590000000  0.4527780000000 1.0
C      1  0.4834140000000  0.5751130000000  0.4951460000000 1.0
C      1  0.4798390000000  0.4817550000000  0.4263550000000 1.0
C      1  0.4779540000000  0.4268550000000  0.5080910000000 1.0
C      1  0.4835160000000  0.5095560000000  0.5719080000000 1.0
C      1  0.4771010000000  0.4289060000000  0.4780410000000 1.0
C      1  0.4793700000000  0.5125080000000  0.4244410000000 1.0
C      1  0.4792960000000  0.5724910000000  0.5259530000000 1.0
C      1  0.4773500000000  0.4786800000000  0.5765880000000 1.0
C      1  0.5378380000000  0.5222450000000  0.4188460000000 1.0
C      1  0.5337790000000  0.4171310000000  0.4859480000000 1.0
C      1  0.5392930000000  0.4824180000000  0.5796740000000 1.0
C      1  0.5373720000000  0.5835950000000  0.5106430000000 1.0
C      1  0.5388160000000  0.4846830000000  0.4181780000000 1.0
C      1  0.5293280000000  0.5818690000000  0.4741260000000 1.0
C      1  0.5311750000000  0.5184300000000  0.5826430000000 1.0
C      1  0.5245590000000  0.4178680000000  0.5220680000000 1.0
C      1  0.5176040000000  0.4864330000000  0.4656480000000 1.0
C      1  0.5103660000000  0.4656640000000  0.5139700000000 1.0
C      1  0.5145420000000  0.5151730000000  0.5349240000000 1.0
C      1  0.5133050000000  0.5350030000000  0.4862200000000 1.0
C      1  0.5196790000000  0.5154450000000  0.4656810000000 1.0
C      1  0.5212390000000  0.5346620000000  0.5142730000000 1.0
C      1  0.5181660000000  0.4859390000000  0.5337180000000 1.0
C      1  0.5184610000000  0.4655940000000  0.4860300000000 1.0
C      1  0.4589950000000  0.4729760000000  0.4452520000000 1.0
C      1  0.4532920000000  0.4335420000000  0.5203820000000 1.0
C      1  0.4615330000000  0.5211950000000  0.5564280000000 1.0
C      1  0.4616390000000  0.5627720000000  0.4789490000000 1.0
C      1  0.4576080000000  0.5231970000000  0.4396920000000 1.0
C      1  0.4597570000000  0.5513380000000  0.5334570000000 1.0
C      1  0.4542080000000  0.4716860000000  0.5609490000000 1.0
C      1  0.4538420000000  0.4448630000000  0.4682750000000 1.0
C      1  0.5150140000000  0.4376460000000  0.4760890000000 1.0
C      1  0.5143370000000  0.4807310000000  0.5634640000000 1.0
C      1  0.5170160000000  0.5640980000000  0.5202320000000 1.0
C      1  0.5146050000000  0.5231530000000  0.4369900000000 1.0
C      1  0.5061210000000  0.5632740000000  0.4770690000000 1.0
C      1  0.5090800000000  0.5248160000000  0.5636270000000 1.0
C      1  0.5021410000000  0.4374910000000  0.5235160000000 1.0
C      1  0.5170680000000  0.4775190000000  0.4369960000000 1.0
C      1  0.5582750000000  0.5039560000000  0.4224630000000 1.0
C      1  0.5551960000000  0.5050810000000  0.5778900000000 1.0
C      1  0.5488180000000  0.4212480000000  0.5089220000000 1.0
C      1  0.5530820000000  0.5795040000000  0.4881870000000 1.0
END
