TITL C-2330496-4560-41 -8.93832979655646e-06 125000 -364.755748397002 0 0 60 (C1) n - 1
REM
REM in /home/bkarasulu/CARBON/AIRSS/Generating-Clusters/EDIP-Nigel-Params/Higher-Symm/Box-15A/Only-C60/SD-CG/HFTN-CG
REM
REM
REM
REM
REM
REM ./C.cell (414f73aa93bd7a1190c7fd0f31ff2f98)
REM
REM compiler GCC version 9.2.1 20190827 (Red Hat 9.2.1-1)
REM options -cpp -mtune=generic -march=x86-64 -g -O0 -fpre-include=/usr/include/finclude/math-vector-fortran.h
REM seed 974597308 347359684 -333018708 177128998 1505540050 1298238150 1057052854 2147145735 -240803771 18797507 -1632982874 822889373 -1239965714 1521792114 -930620736 1424926404 351344485 -721553287 2122631698 2036239890 -466649600 397837037 1288405341 1313593741 1663038517 1466198509 1892823295 -744326502 -1500588461 -1179004577 -893196836 1794190405 -299520462
REM
CELL 1.54180   50.00000   50.00000   50.00000   90.00000   90.00000   90.00000
LATT -1
SFAC C  
C      1  0.5443820000000  0.4758960000000  0.4504510000000 1.0
C      1  0.4500990000000  0.4815990000000  0.4571980000000 1.0
C      1  0.4569960000000  0.4724890000000  0.5515760000000 1.0
C      1  0.5512210000000  0.4746110000000  0.5441620000000 1.0
C      1  0.5433230000000  0.5304410000000  0.5454830000000 1.0
C      1  0.4484490000000  0.5237360000000  0.5438890000000 1.0
C      1  0.4564610000000  0.5305870000000  0.4515150000000 1.0
C      1  0.5523710000000  0.5254390000000  0.4558920000000 1.0
C      1  0.5576240000000  0.5258770000000  0.4997510000000 1.0
C      1  0.5033700000000  0.5239060000000  0.4411790000000 1.0
C      1  0.4414380000000  0.5237950000000  0.4963030000000 1.0
C      1  0.4933350000000  0.5270670000000  0.5589180000000 1.0
C      1  0.5596130000000  0.4735480000000  0.4967060000000 1.0
C      1  0.5056790000000  0.4736270000000  0.5665330000000 1.0
C      1  0.4349990000000  0.4757280000000  0.5070450000000 1.0
C      1  0.4949290000000  0.4862310000000  0.4382820000000 1.0
C      1  0.4678140000000  0.5626230000000  0.4846480000000 1.0
C      1  0.4807280000000  0.5591490000000  0.5268620000000 1.0
C      1  0.5291320000000  0.5602320000000  0.5107590000000 1.0
C      1  0.5170710000000  0.5614120000000  0.4682040000000 1.0
C      1  0.4662810000000  0.4412260000000  0.5152800000000 1.0
C      1  0.4807280000000  0.4441040000000  0.4621240000000 1.0
C      1  0.5321700000000  0.4394500000000  0.4816520000000 1.0
C      1  0.5182430000000  0.4395450000000  0.5345530000000 1.0
C      1  0.5060250000000  0.4880320000000  0.5314820000000 1.0
C      1  0.5230820000000  0.4743040000000  0.5079570000000 1.0
C      1  0.5019260000000  0.4780630000000  0.4873270000000 1.0
C      1  0.4720280000000  0.4842700000000  0.5066070000000 1.0
C      1  0.5122900000000  0.5045260000000  0.4740150000000 1.0
C      1  0.5230380000000  0.5172170000000  0.5028410000000 1.0
C      1  0.4956720000000  0.5179450000000  0.5213760000000 1.0
C      1  0.4689830000000  0.5112270000000  0.4929830000000 1.0
C      1  0.5269160000000  0.5396450000000  0.4509160000000 1.0
C      1  0.4456730000000  0.5450850000000  0.4759100000000 1.0
C      1  0.4708130000000  0.5420940000000  0.5488250000000 1.0
C      1  0.5519080000000  0.5450540000000  0.5208610000000 1.0
C      1  0.5284530000000  0.4583300000000  0.5557900000000 1.0
C      1  0.4443290000000  0.4576080000000  0.5282610000000 1.0
C      1  0.4715310000000  0.4665160000000  0.4429590000000 1.0
C      1  0.5541510000000  0.4578740000000  0.4725310000000 1.0
C      1  0.5091250000000  0.5620760000000  0.5312530000000 1.0
C      1  0.5306910000000  0.5766150000000  0.4877300000000 1.0
C      1  0.4882470000000  0.5639030000000  0.4635570000000 1.0
C      1  0.4668080000000  0.5764290000000  0.5094570000000 1.0
C      1  0.5078510000000  0.4540050000000  0.4695050000000 1.0
C      1  0.5386820000000  0.4389550000000  0.5125180000000 1.0
C      1  0.4903210000000  0.4467000000000  0.5310930000000 1.0
C      1  0.4631420000000  0.4463350000000  0.4857770000000 1.0
C      1  0.4810890000000  0.5437460000000  0.4428850000000 1.0
C      1  0.4333360000000  0.5318260000000  0.5218190000000 1.0
C      1  0.5165130000000  0.5426570000000  0.5518170000000 1.0
C      1  0.5682400000000  0.5373510000000  0.4758880000000 1.0
C      1  0.4830010000000  0.4589990000000  0.5559820000000 1.0
C      1  0.4416270000000  0.4649920000000  0.4809020000000 1.0
C      1  0.5167720000000  0.4668130000000  0.4445080000000 1.0
C      1  0.5617190000000  0.4583070000000  0.5211740000000 1.0
C      1  0.4652050000000  0.4989740000000  0.5411660000000 1.0
C      1  0.5418130000000  0.5003540000000  0.4668250000000 1.0
C      1  0.5422160000000  0.5027610000000  0.5339490000000 1.0
C      1  0.4703320000000  0.5055800000000  0.4625900000000 1.0
END
