TITL C-2301002-566-1 -1.25662375298386e-06 125000 -360.729383261581 0 0 60 (C1) n - 1
REM
REM in /home/bkarasulu/CARBON/AIRSS/Generating-Clusters/EDIP-Nigel-Params/Higher-Symm/Box-15A/Only-C60/SD-CG/HFTN-CG
REM
REM
REM
REM
REM
REM ./C.cell (414f73aa93bd7a1190c7fd0f31ff2f98)
REM
REM compiler GCC version 9.2.1 20190827 (Red Hat 9.2.1-1)
REM options -cpp -mtune=generic -march=x86-64 -g -O0 -fpre-include=/usr/include/finclude/math-vector-fortran.h
REM seed -1421506244 1329837400 -959680284 1895575494 -1768817552 606871238 1906344389 -558023935 493179615 1030969569 1219641606 1483717800 1840965383 1913585898 1438906120 -443778785 190229641 854937363 1735432661 -510240875 -702040113 -1900955790 803290942 -1904477987 -2133499226 -1710245802 1375952852 -340053257 -790137470 -91539535 164417787 1841364798 1620950529
REM
CELL 1.54180   50.00000   50.00000   50.00000   90.00000   90.00000   90.00000
LATT -1
SFAC C  
C      1  0.5304580000000  0.4527270000000  0.4877690000000 1.0
C      1  0.4484080000000  0.4857620000000  0.5357890000000 1.0
C      1  0.4871000000000  0.5373490000000  0.4442900000000 1.0
C      1  0.4621020000000  0.5561920000000  0.4872420000000 1.0
C      1  0.5412140000000  0.5577650000000  0.5164360000000 1.0
C      1  0.4609520000000  0.4405690000000  0.5181890000000 1.0
C      1  0.5551120000000  0.5144050000000  0.5389420000000 1.0
C      1  0.4385560000000  0.5100000000000  0.4566040000000 1.0
C      1  0.5594740000000  0.4884900000000  0.4614420000000 1.0
C      1  0.5120900000000  0.4633490000000  0.4417860000000 1.0
C      1  0.4885100000000  0.4622790000000  0.5595320000000 1.0
C      1  0.5165610000000  0.5412660000000  0.5581610000000 1.0
C      1  0.4287030000000  0.5243340000000  0.5065970000000 1.0
C      1  0.5301810000000  0.5077980000000  0.4257080000000 1.0
C      1  0.5087300000000  0.4270950000000  0.5293610000000 1.0
C      1  0.5695870000000  0.4753330000000  0.5077580000000 1.0
C      1  0.4287480000000  0.4715780000000  0.4930010000000 1.0
C      1  0.5746590000000  0.5262850000000  0.4949910000000 1.0
C      1  0.4716480000000  0.4950190000000  0.4223170000000 1.0
C      1  0.5260830000000  0.4950670000000  0.5751300000000 1.0
C      1  0.4758020000000  0.5097340000000  0.5701190000000 1.0
C      1  0.4940880000000  0.5729820000000  0.5255260000000 1.0
C      1  0.5091790000000  0.5686750000000  0.4763450000000 1.0
C      1  0.4879060000000  0.4314260000000  0.4704750000000 1.0
C      1  0.5327300000000  0.5165200000000  0.5577230000000 1.0
C      1  0.5168190000000  0.5574890000000  0.5331570000000 1.0
C      1  0.5580060000000  0.5331670000000  0.5168470000000 1.0
C      1  0.4687150000000  0.4845260000000  0.5569420000000 1.0
C      1  0.5431440000000  0.4839440000000  0.4363400000000 1.0
C      1  0.4572940000000  0.5173850000000  0.4345030000000 1.0
C      1  0.4832830000000  0.4379120000000  0.5406080000000 1.0
C      1  0.5136940000000  0.4450750000000  0.4646810000000 1.0
C      1  0.4849960000000  0.5545480000000  0.4681470000000 1.0
C      1  0.4439810000000  0.4649670000000  0.5162630000000 1.0
C      1  0.5568210000000  0.4663710000000  0.4827460000000 1.0
C      1  0.4396970000000  0.5363630000000  0.4823830000000 1.0
C      1  0.4942840000000  0.5131390000000  0.5359180000000 1.0
C      1  0.5131600000000  0.5347830000000  0.4952140000000 1.0
C      1  0.5334050000000  0.4897990000000  0.5102370000000 1.0
C      1  0.5108530000000  0.4873550000000  0.5303980000000 1.0
C      1  0.4855270000000  0.4959890000000  0.4589430000000 1.0
C      1  0.5143960000000  0.5029180000000  0.4614840000000 1.0
C      1  0.4840430000000  0.4642070000000  0.4903350000000 1.0
C      1  0.4985540000000  0.4639370000000  0.5162360000000 1.0
C      1  0.4871780000000  0.5286650000000  0.5115450000000 1.0
C      1  0.4649660000000  0.5102040000000  0.5033330000000 1.0
C      1  0.5290610000000  0.5105400000000  0.4869790000000 1.0
C      1  0.4692050000000  0.4884140000000  0.4821140000000 1.0
C      1  0.4736710000000  0.5554850000000  0.5162430000000 1.0
C      1  0.5564810000000  0.5163530000000  0.4757040000000 1.0
C      1  0.5170130000000  0.4749210000000  0.5574740000000 1.0
C      1  0.5278680000000  0.4361560000000  0.5109420000000 1.0
C      1  0.4679060000000  0.4290340000000  0.4916780000000 1.0
C      1  0.5346510000000  0.5664360000000  0.4892060000000 1.0
C      1  0.4422650000000  0.4832320000000  0.4708620000000 1.0
C      1  0.5642310000000  0.4875810000000  0.5330430000000 1.0
C      1  0.4371620000000  0.5114680000000  0.5304780000000 1.0
C      1  0.4893000000000  0.5350040000000  0.5673850000000 1.0
C      1  0.5152040000000  0.5269650000000  0.4424340000000 1.0
C      1  0.4845890000000  0.4736680000000  0.4379660000000 1.0
END
