TITL C-2330503-3907-41 -1.65953016008676e-06 125000 -368.679799470142 0 0 60 (C1) n - 1
REM
REM in /home/bkarasulu/CARBON/AIRSS/Generating-Clusters/EDIP-Nigel-Params/Higher-Symm/Box-15A/Only-C60/SD-CG/HFTN-CG
REM
REM
REM
REM
REM
REM ./C.cell (414f73aa93bd7a1190c7fd0f31ff2f98)
REM
REM compiler GCC version 9.2.1 20190827 (Red Hat 9.2.1-1)
REM options -cpp -mtune=generic -march=x86-64 -g -O0 -fpre-include=/usr/include/finclude/math-vector-fortran.h
REM seed 412117396 -1930793430 908222590 -1332908352 -1787364327 -1924520588 741734364 162381827 1678333052 -1725136971 -1707464736 -377038877 1324985281 1971405404 607871733 1601117052 -1467449379 -359221631 -750093828 335708855 -563198708 -720976582 -700770964 38390984 1014372037 1244819425 -1031428843 1449841325 -2077025276 -264355233 912553559 -1697919935 2049610948
REM
CELL 1.54180   50.00000   50.00000   50.00000   90.00000   90.00000   90.00000
LATT -1
SFAC C  
C      1  0.5380430000000  0.4521370000000  0.5211810000000 1.0
C      1  0.4915370000000  0.4514950000000  0.5423700000000 1.0
C      1  0.4569180000000  0.4524920000000  0.5052040000000 1.0
C      1  0.4819480000000  0.4521930000000  0.4607060000000 1.0
C      1  0.5320250000000  0.4519100000000  0.4706050000000 1.0
C      1  0.4418070000000  0.4554960000000  0.4791600000000 1.0
C      1  0.5019840000000  0.4551160000000  0.4382050000000 1.0
C      1  0.5595920000000  0.4553880000000  0.4826290000000 1.0
C      1  0.5348140000000  0.4550880000000  0.5511340000000 1.0
C      1  0.4623300000000  0.4554660000000  0.5490740000000 1.0
C      1  0.4983550000000  0.4759880000000  0.5267260000000 1.0
C      1  0.4741720000000  0.4768230000000  0.5067670000000 1.0
C      1  0.4856680000000  0.4767590000000  0.4772990000000 1.0
C      1  0.5173080000000  0.4764230000000  0.4791730000000 1.0
C      1  0.5250560000000  0.4765220000000  0.5097740000000 1.0
C      1  0.5189900000000  0.4988590000000  0.4565060000000 1.0
C      1  0.5467200000000  0.4994070000000  0.5041870000000 1.0
C      1  0.5097410000000  0.4984900000000  0.5460430000000 1.0
C      1  0.4600130000000  0.4995460000000  0.5241620000000 1.0
C      1  0.4646040000000  0.4992740000000  0.4687220000000 1.0
C      1  0.5308700000000  0.5249740000000  0.4923560000000 1.0
C      1  0.5152850000000  0.5236090000000  0.5272150000000 1.0
C      1  0.4794310000000  0.5250620000000  0.5240840000000 1.0
C      1  0.4704500000000  0.5245280000000  0.4872430000000 1.0
C      1  0.5032610000000  0.5240030000000  0.4682590000000 1.0
C      1  0.4814080000000  0.5354440000000  0.5528600000000 1.0
C      1  0.4445550000000  0.5354090000000  0.4991600000000 1.0
C      1  0.4840520000000  0.5351500000000  0.4468340000000 1.0
C      1  0.5458280000000  0.5353900000000  0.4677610000000 1.0
C      1  0.5433890000000  0.5349290000000  0.5333380000000 1.0
C      1  0.4816240000000  0.4951420000000  0.4224960000000 1.0
C      1  0.5682440000000  0.4952920000000  0.4581970000000 1.0
C      1  0.5600230000000  0.4953000000000  0.5517100000000 1.0
C      1  0.4691230000000  0.4952460000000  0.5748220000000 1.0
C      1  0.4209680000000  0.4953860000000  0.4941480000000 1.0
C      1  0.4994880000000  0.5646850000000  0.5247880000000 1.0
C      1  0.4762540000000  0.5654170000000  0.5071800000000 1.0
C      1  0.4858130000000  0.5649720000000  0.4796380000000 1.0
C      1  0.5148930000000  0.5646800000000  0.4801370000000 1.0
C      1  0.5232620000000  0.5652570000000  0.5080390000000 1.0
C      1  0.4448070000000  0.4446900000000  0.5293580000000 1.0
C      1  0.4552990000000  0.4441570000000  0.4567770000000 1.0
C      1  0.5274530000000  0.4437580000000  0.4440910000000 1.0
C      1  0.5620000000000  0.4442250000000  0.5087450000000 1.0
C      1  0.5108060000000  0.4435240000000  0.5612190000000 1.0
C      1  0.4701480000000  0.5570250000000  0.4576180000000 1.0
C      1  0.5310220000000  0.5571760000000  0.4582370000000 1.0
C      1  0.5486340000000  0.5570070000000  0.5168590000000 1.0
C      1  0.4991310000000  0.5571650000000  0.5519840000000 1.0
C      1  0.4504890000000  0.5574960000000  0.5152930000000 1.0
C      1  0.4375260000000  0.4848490000000  0.4741800000000 1.0
C      1  0.5054930000000  0.4844450000000  0.4324430000000 1.0
C      1  0.5656800000000  0.4848540000000  0.4840530000000 1.0
C      1  0.5349570000000  0.4844360000000  0.5577530000000 1.0
C      1  0.4571270000000  0.4850230000000  0.5516940000000 1.0
C      1  0.5465520000000  0.5110350000000  0.4512640000000 1.0
C      1  0.5601190000000  0.5111970000000  0.5290530000000 1.0
C      1  0.4903600000000  0.5107720000000  0.5663040000000 1.0
C      1  0.4343210000000  0.5113190000000  0.5124510000000 1.0
C      1  0.4682320000000  0.5110980000000  0.4407320000000 1.0
END
