TITL C-2330492-4925-45 1.70231259853429e-06 125000 -372.668599597961 0 0 60 (C1) n - 1
REM
REM in /home/bkarasulu/CARBON/AIRSS/Generating-Clusters/EDIP-Nigel-Params/Higher-Symm/Box-15A/Only-C60/SD-CG/HFTN-CG
REM
REM
REM
REM
REM
REM ./C.cell (414f73aa93bd7a1190c7fd0f31ff2f98)
REM
REM compiler GCC version 9.2.1 20190827 (Red Hat 9.2.1-1)
REM options -cpp -mtune=generic -march=x86-64 -g -O0 -fpre-include=/usr/include/finclude/math-vector-fortran.h
REM seed 1669763871 2028463675 809019181 -1052428126 390116924 -118551655 363610503 1702275171 -663595410 -485284363 -123129586 -1760849743 -773171574 1187398464 -143963645 1136248935 1743701415 -1790440210 809087208 -115044668 941966760 -629896201 1409054218 -1600080498 1933640743 1950724743 -844388425 1183638644 -1196304740 -1040908520 276619499 -83514872 -1100306717
REM
CELL 1.54180   50.00000   50.00000   50.00000   90.00000   90.00000   90.00000
LATT -1
SFAC C  
C      1  0.5555030000000  0.5262570000000  0.5193150000000 1.0
C      1  0.5164100000000  0.4499470000000  0.5304390000000 1.0
C      1  0.5378750000000  0.5024140000000  0.5237000000000 1.0
C      1  0.5756120000000  0.5143580000000  0.5029450000000 1.0
C      1  0.5064380000000  0.4701470000000  0.5078140000000 1.0
C      1  0.5550460000000  0.4432760000000  0.5041760000000 1.0
C      1  0.4416500000000  0.4761240000000  0.4869300000000 1.0
C      1  0.4610940000000  0.4728570000000  0.5305790000000 1.0
C      1  0.4588970000000  0.5358340000000  0.5493770000000 1.0
C      1  0.5372990000000  0.5368740000000  0.4320800000000 1.0
C      1  0.5054610000000  0.4357430000000  0.4893330000000 1.0
C      1  0.4999230000000  0.5038600000000  0.4706830000000 1.0
C      1  0.4579690000000  0.5064520000000  0.4485030000000 1.0
C      1  0.5741160000000  0.4872430000000  0.4935140000000 1.0
C      1  0.4662670000000  0.4610550000000  0.4819640000000 1.0
C      1  0.4453320000000  0.5517700000000  0.4760330000000 1.0
C      1  0.4809150000000  0.5572120000000  0.5056240000000 1.0
C      1  0.5250310000000  0.4919190000000  0.4950320000000 1.0
C      1  0.4754200000000  0.5039690000000  0.4892300000000 1.0
C      1  0.4676980000000  0.5127460000000  0.5634220000000 1.0
C      1  0.4759370000000  0.4394900000000  0.4986960000000 1.0
C      1  0.5209600000000  0.5615210000000  0.5293760000000 1.0
C      1  0.4926420000000  0.4360410000000  0.5434770000000 1.0
C      1  0.5298240000000  0.4326380000000  0.5098030000000 1.0
C      1  0.4358940000000  0.4812410000000  0.5157690000000 1.0
C      1  0.5341230000000  0.4834240000000  0.4364030000000 1.0
C      1  0.5232680000000  0.5354430000000  0.4897900000000 1.0
C      1  0.4887920000000  0.4423720000000  0.5705690000000 1.0
C      1  0.5510390000000  0.5002510000000  0.4543640000000 1.0
C      1  0.4452880000000  0.5308810000000  0.5240600000000 1.0
C      1  0.4883000000000  0.5715350000000  0.4801320000000 1.0
C      1  0.5485550000000  0.4816690000000  0.4779690000000 1.0
C      1  0.4835970000000  0.4643620000000  0.4591870000000 1.0
C      1  0.4767190000000  0.5577400000000  0.5507660000000 1.0
C      1  0.4414510000000  0.5005200000000  0.4714900000000 1.0
C      1  0.4933330000000  0.5677190000000  0.5305690000000 1.0
C      1  0.5693240000000  0.4658390000000  0.5136830000000 1.0
C      1  0.4912880000000  0.5120210000000  0.5328240000000 1.0
C      1  0.4639830000000  0.5699590000000  0.4637860000000 1.0
C      1  0.4826600000000  0.4878420000000  0.5155390000000 1.0
C      1  0.4945260000000  0.5301540000000  0.5053360000000 1.0
C      1  0.5354160000000  0.4632270000000  0.5503680000000 1.0
C      1  0.4518050000000  0.5511320000000  0.5042990000000 1.0
C      1  0.5096610000000  0.5544850000000  0.4689830000000 1.0
C      1  0.4664950000000  0.5350140000000  0.4487720000000 1.0
C      1  0.5390740000000  0.5496380000000  0.5109140000000 1.0
C      1  0.5430940000000  0.5275520000000  0.4580180000000 1.0
C      1  0.5078030000000  0.4486340000000  0.4621360000000 1.0
C      1  0.4964910000000  0.5316150000000  0.4535460000000 1.0
C      1  0.4690970000000  0.4431550000000  0.5271430000000 1.0
C      1  0.5325370000000  0.4583230000000  0.4518130000000 1.0
C      1  0.4289490000000  0.5083090000000  0.5199540000000 1.0
C      1  0.5166910000000  0.4829780000000  0.5629890000000 1.0
C      1  0.4655450000000  0.4841900000000  0.5590920000000 1.0
C      1  0.4812360000000  0.4873020000000  0.4410490000000 1.0
C      1  0.5081750000000  0.4971890000000  0.4278910000000 1.0
C      1  0.5109620000000  0.5271120000000  0.4278440000000 1.0
C      1  0.5547780000000  0.4799880000000  0.5352910000000 1.0
C      1  0.4895630000000  0.4707620000000  0.5708990000000 1.0
C      1  0.5171720000000  0.5066770000000  0.5447190000000 1.0
END
