TITL C-2330491-2496-9 -2.44815199696585e-05 125000 -376.779028397006 0 0 60 (C1) n - 1
REM
REM in /home/bkarasulu/CARBON/AIRSS/Generating-Clusters/EDIP-Nigel-Params/Higher-Symm/Box-15A/Only-C60/SD-CG/HFTN-CG
REM
REM
REM
REM
REM
REM ./C.cell (414f73aa93bd7a1190c7fd0f31ff2f98)
REM
REM compiler GCC version 9.2.1 20190827 (Red Hat 9.2.1-1)
REM options -cpp -mtune=generic -march=x86-64 -g -O0 -fpre-include=/usr/include/finclude/math-vector-fortran.h
REM seed 1441365055 -461508110 -138839524 1728082617 -1612090454 566381149 -1255577609 390554290 717053314 -1464753003 -1536776794 1361837391 619566029 1609790367 -424410832 159560667 1600967794 -1598576209 -1794019934 -1593253606 862344925 -1280968012 -1324746725 552039378 -1580947560 -730181519 265628958 1965192606 630644870 1128292222 1007338874 -1043426531 -1078166684
REM
CELL 1.54180   50.00000   50.00000   50.00000   90.00000   90.00000   90.00000
LATT -1
SFAC C  
C      1  0.5558220000000  0.5050280000000  0.4636310000000 1.0
C      1  0.5217050000000  0.5479860000000  0.5366460000000 1.0
C      1  0.4648270000000  0.5463600000000  0.4607250000000 1.0
C      1  0.4439500000000  0.4943100000000  0.5358530000000 1.0
C      1  0.4773570000000  0.4504970000000  0.4655960000000 1.0
C      1  0.5334180000000  0.4531180000000  0.5379520000000 1.0
C      1  0.4434220000000  0.5034860000000  0.4552820000000 1.0
C      1  0.4676020000000  0.4512770000000  0.5444490000000 1.0
C      1  0.5254230000000  0.4498400000000  0.4577100000000 1.0
C      1  0.5576650000000  0.4954220000000  0.5475700000000 1.0
C      1  0.5318380000000  0.5474560000000  0.4552450000000 1.0
C      1  0.4737890000000  0.5492240000000  0.5446880000000 1.0
C      1  0.4860350000000  0.4734340000000  0.5453180000000 1.0
C      1  0.5151330000000  0.4758640000000  0.4508140000000 1.0
C      1  0.5286250000000  0.4981040000000  0.5507410000000 1.0
C      1  0.5135470000000  0.5253580000000  0.4520960000000 1.0
C      1  0.4859720000000  0.5222460000000  0.5421630000000 1.0
C      1  0.4711570000000  0.5003420000000  0.4471840000000 1.0
C      1  0.4865380000000  0.4761400000000  0.4523270000000 1.0
C      1  0.5144070000000  0.4725400000000  0.5526670000000 1.0
C      1  0.5293660000000  0.5011270000000  0.4495920000000 1.0
C      1  0.5140050000000  0.5232060000000  0.5525090000000 1.0
C      1  0.4847580000000  0.5263660000000  0.4457950000000 1.0
C      1  0.4709490000000  0.4979100000000  0.5479100000000 1.0
C      1  0.5265100000000  0.4980340000000  0.5028300000000 1.0
C      1  0.5102220000000  0.5228680000000  0.5090260000000 1.0
C      1  0.4875940000000  0.5289320000000  0.4873750000000 1.0
C      1  0.4748660000000  0.5044530000000  0.5042100000000 1.0
C      1  0.4853750000000  0.4761340000000  0.4958460000000 1.0
C      1  0.5122150000000  0.4729630000000  0.5100820000000 1.0
C      1  0.5238040000000  0.5728500000000  0.4641460000000 1.0
C      1  0.4491710000000  0.5550280000000  0.5332190000000 1.0
C      1  0.4275670000000  0.4820320000000  0.4639630000000 1.0
C      1  0.4765490000000  0.4257240000000  0.5365710000000 1.0
C      1  0.5522960000000  0.4450450000000  0.4644110000000 1.0
C      1  0.5719860000000  0.5169620000000  0.5361300000000 1.0
C      1  0.4946480000000  0.5690040000000  0.5041750000000 1.0
C      1  0.4326960000000  0.5315390000000  0.4946300000000 1.0
C      1  0.4386200000000  0.4573190000000  0.5045710000000 1.0
C      1  0.5061760000000  0.4244670000000  0.4962060000000 1.0
C      1  0.5667220000000  0.4697250000000  0.5047060000000 1.0
C      1  0.5638280000000  0.5437730000000  0.4943510000000 1.0
C      1  0.4390150000000  0.5310420000000  0.4651970000000 1.0
C      1  0.4416410000000  0.4633760000000  0.5339400000000 1.0
C      1  0.5027440000000  0.4330690000000  0.4674940000000 1.0
C      1  0.5606980000000  0.4680590000000  0.5348720000000 1.0
C      1  0.5573850000000  0.5357520000000  0.4657000000000 1.0
C      1  0.4967220000000  0.5644120000000  0.5331850000000 1.0
C      1  0.4794480000000  0.4273450000000  0.5088770000000 1.0
C      1  0.5528670000000  0.4467120000000  0.4923580000000 1.0
C      1  0.5708980000000  0.5185670000000  0.5081530000000 1.0
C      1  0.5210520000000  0.5701650000000  0.4918120000000 1.0
C      1  0.4447940000000  0.5559630000000  0.5059050000000 1.0
C      1  0.4300410000000  0.4820580000000  0.4917900000000 1.0
C      1  0.5431620000000  0.5598310000000  0.5074130000000 1.0
C      1  0.4686200000000  0.5626350000000  0.4891030000000 1.0
C      1  0.4436230000000  0.5046670000000  0.5066010000000 1.0
C      1  0.4669730000000  0.4509520000000  0.4954700000000 1.0
C      1  0.5265650000000  0.4450580000000  0.5070140000000 1.0
C      1  0.5555990000000  0.4968430000000  0.4942050000000 1.0
END
