TITL C-2330496-4560-37 -2.6090723175795e-06 125000 -357.641748790847 0 0 60 (C1) n - 1
REM
REM in /home/bkarasulu/CARBON/AIRSS/Generating-Clusters/EDIP-Nigel-Params/Higher-Symm/Box-15A/Only-C60/SD-CG/HFTN-CG
REM
REM
REM
REM
REM
REM ./C.cell (414f73aa93bd7a1190c7fd0f31ff2f98)
REM
REM compiler GCC version 9.2.1 20190827 (Red Hat 9.2.1-1)
REM options -cpp -mtune=generic -march=x86-64 -g -O0 -fpre-include=/usr/include/finclude/math-vector-fortran.h
REM seed -1274370621 -911416183 -1678487980 40738632 140074045 -1750138749 -1359956599 -1430957613 1147329173 1103511099 -1390926533 61899690 -1534701727 -338764752 -343056304 -1862505762 -412481422 1733881358 1545644658 405916862 36888083 906500913 1730624508 383100736 -794317226 1118928342 644314348 1555177158 -252933201 2024064086 2026045406 -827814715 -33790937
REM
CELL 1.54180   50.00000   50.00000   50.00000   90.00000   90.00000   90.00000
LATT -1
SFAC C  
C      1  0.4841450000000  0.4713310000000  0.5595600000000 1.0
C      1  0.4857630000000  0.4595320000000  0.4387060000000 1.0
C      1  0.4834450000000  0.5725300000000  0.4999790000000 1.0
C      1  0.5444050000000  0.5343430000000  0.4856810000000 1.0
C      1  0.5503290000000  0.4976920000000  0.5374630000000 1.0
C      1  0.5471710000000  0.4661760000000  0.4767800000000 1.0
C      1  0.4490470000000  0.4460900000000  0.5240400000000 1.0
C      1  0.4573870000000  0.5025490000000  0.4374830000000 1.0
C      1  0.4528070000000  0.5466210000000  0.5351500000000 1.0
C      1  0.4265300000000  0.4772340000000  0.4904300000000 1.0
C      1  0.4206280000000  0.5208700000000  0.5035740000000 1.0
C      1  0.4222890000000  0.4945330000000  0.5116390000000 1.0
C      1  0.4976410000000  0.4832560000000  0.4781960000000 1.0
C      1  0.4952030000000  0.5280280000000  0.5004640000000 1.0
C      1  0.5037010000000  0.5032240000000  0.5170930000000 1.0
C      1  0.5280240000000  0.5514800000000  0.5476650000000 1.0
C      1  0.5217480000000  0.4343530000000  0.5186540000000 1.0
C      1  0.5252420000000  0.5223340000000  0.4364290000000 1.0
C      1  0.4845220000000  0.4532100000000  0.5366930000000 1.0
C      1  0.4916120000000  0.4879990000000  0.4486090000000 1.0
C      1  0.4890030000000  0.5525870000000  0.5222190000000 1.0
C      1  0.5100170000000  0.4363470000000  0.4926020000000 1.0
C      1  0.5101790000000  0.5406090000000  0.4511060000000 1.0
C      1  0.5158380000000  0.5276200000000  0.5581130000000 1.0
C      1  0.4481360000000  0.4662220000000  0.5453400000000 1.0
C      1  0.4510540000000  0.4750850000000  0.4431270000000 1.0
C      1  0.4488220000000  0.5585390000000  0.5087640000000 1.0
C      1  0.5648680000000  0.4734880000000  0.4980690000000 1.0
C      1  0.5595520000000  0.5085100000000  0.4820570000000 1.0
C      1  0.5681000000000  0.5118400000000  0.5195930000000 1.0
C      1  0.5176140000000  0.4587530000000  0.4745410000000 1.0
C      1  0.5160340000000  0.5423420000000  0.4801470000000 1.0
C      1  0.5209190000000  0.5028570000000  0.5426070000000 1.0
C      1  0.4372580000000  0.4908480000000  0.5355290000000 1.0
C      1  0.4378710000000  0.4707930000000  0.4669680000000 1.0
C      1  0.4424350000000  0.5350900000000  0.4933970000000 1.0
C      1  0.5536190000000  0.5514300000000  0.5064730000000 1.0
C      1  0.5548630000000  0.4693050000000  0.5408530000000 1.0
C      1  0.5555570000000  0.4769770000000  0.4514100000000 1.0
C      1  0.5124160000000  0.4788560000000  0.5592650000000 1.0
C      1  0.5140390000000  0.4504370000000  0.4446710000000 1.0
C      1  0.5121880000000  0.5710810000000  0.4898550000000 1.0
C      1  0.5719040000000  0.5392370000000  0.5238730000000 1.0
C      1  0.5703300000000  0.4580340000000  0.5205340000000 1.0
C      1  0.5665860000000  0.5030290000000  0.4542690000000 1.0
C      1  0.4701900000000  0.4838650000000  0.4942050000000 1.0
C      1  0.4669590000000  0.5190520000000  0.4848540000000 1.0
C      1  0.4747480000000  0.4951490000000  0.5255100000000 1.0
C      1  0.5029670000000  0.4307720000000  0.5390940000000 1.0
C      1  0.5150910000000  0.4966200000000  0.4321280000000 1.0
C      1  0.5063350000000  0.5675740000000  0.5414480000000 1.0
C      1  0.4622380000000  0.4526610000000  0.4988310000000 1.0
C      1  0.4664020000000  0.5233340000000  0.4550780000000 1.0
C      1  0.4664950000000  0.5222000000000  0.5444550000000 1.0
C      1  0.5296850000000  0.4564650000000  0.5496590000000 1.0
C      1  0.5324780000000  0.4723920000000  0.4328330000000 1.0
C      1  0.5318680000000  0.5705900000000  0.5135930000000 1.0
C      1  0.4823630000000  0.4342040000000  0.4925380000000 1.0
C      1  0.4833640000000  0.5426440000000  0.4447340000000 1.0
C      1  0.4879750000000  0.5291810000000  0.5613690000000 1.0
END
