TITL C-2330502-4094-24 -3.56658964489931e-05 125000 -354.618356035092 0 0 60 (D2) n - 1
REM
REM in /home/bkarasulu/CARBON/AIRSS/Generating-Clusters/EDIP-Nigel-Params/Higher-Symm/Box-15A/Only-C60/SD-CG/HFTN-CG
REM
REM
REM
REM
REM
REM ./C.cell (414f73aa93bd7a1190c7fd0f31ff2f98)
REM
REM compiler GCC version 9.2.1 20190827 (Red Hat 9.2.1-1)
REM options -cpp -mtune=generic -march=x86-64 -g -O0 -fpre-include=/usr/include/finclude/math-vector-fortran.h
REM seed 1072511774 -1741532168 -789260151 -173325756 160940734 -59473059 1169396058 1415333494 1240033075 -442933019 -238935349 -1764106892 -492932856 -1960729189 -1236764073 1105842358 -416421700 695919997 -56799689 1028431710 -809693222 -2042028852 1501623212 -744617607 408095610 -307920733 -169258815 853219595 -1714077429 -1725166565 739488968 -508737887 2100513428
REM
CELL 1.54180   50.00000   50.00000   50.00000   90.00000   90.00000   90.00000
LATT -1
SFAC C  
C      1  0.5715010000000  0.5101190000000  0.4774210000000 1.0
C      1  0.5235680000000  0.5101840000000  0.5724820000000 1.0
C      1  0.4284920000000  0.5100620000000  0.5225820000000 1.0
C      1  0.4764260000000  0.5101910000000  0.4275210000000 1.0
C      1  0.4275200000000  0.4911200000000  0.4764350000000 1.0
C      1  0.4774300000000  0.4912180000000  0.5715060000000 1.0
C      1  0.5724860000000  0.4911630000000  0.5235620000000 1.0
C      1  0.5225770000000  0.4912580000000  0.4284910000000 1.0
C      1  0.5612410000000  0.4652170000000  0.5244940000000 1.0
C      1  0.4751210000000  0.4646220000000  0.5620860000000 1.0
C      1  0.4387830000000  0.4651820000000  0.4754940000000 1.0
C      1  0.5249040000000  0.4646600000000  0.4379030000000 1.0
C      1  0.4378990000000  0.5366620000000  0.5249040000000 1.0
C      1  0.5244940000000  0.5361280000000  0.5612320000000 1.0
C      1  0.5620760000000  0.5367130000000  0.4751080000000 1.0
C      1  0.4754810000000  0.5361310000000  0.4387800000000 1.0
C      1  0.5439870000000  0.5560250000000  0.5224340000000 1.0
C      1  0.4765020000000  0.5579170000000  0.5441920000000 1.0
C      1  0.4559740000000  0.5560010000000  0.4775840000000 1.0
C      1  0.5234580000000  0.5579480000000  0.4558270000000 1.0
C      1  0.4558400000000  0.4433770000000  0.5234730000000 1.0
C      1  0.5224490000000  0.4453160000000  0.5439950000000 1.0
C      1  0.5442000000000  0.4434160000000  0.4765080000000 1.0
C      1  0.4775890000000  0.4453150000000  0.4559870000000 1.0
C      1  0.4641580000000  0.5322930000000  0.5372510000000 1.0
C      1  0.4627540000000  0.5308250000000  0.4645700000000 1.0
C      1  0.5358200000000  0.5323310000000  0.4627590000000 1.0
C      1  0.5372250000000  0.5308390000000  0.5354400000000 1.0
C      1  0.5354500000000  0.4705030000000  0.5372270000000 1.0
C      1  0.5372530000000  0.4690360000000  0.4641600000000 1.0
C      1  0.4645710000000  0.4704900000000  0.4627630000000 1.0
C      1  0.4627690000000  0.4689980000000  0.5358300000000 1.0
C      1  0.5424690000000  0.4916420000000  0.5595760000000 1.0
C      1  0.4415240000000  0.4916710000000  0.5414150000000 1.0
C      1  0.4575370000000  0.4916320000000  0.4404210000000 1.0
C      1  0.5584820000000  0.4917250000000  0.4585820000000 1.0
C      1  0.4585870000000  0.5096070000000  0.5584850000000 1.0
C      1  0.5595790000000  0.5097060000000  0.5424610000000 1.0
C      1  0.5414070000000  0.5096550000000  0.4415180000000 1.0
C      1  0.4404150000000  0.5096780000000  0.4575410000000 1.0
C      1  0.5095190000000  0.4378210000000  0.5198860000000 1.0
C      1  0.4801330000000  0.4376460000000  0.5094670000000 1.0
C      1  0.4905250000000  0.4378210000000  0.4800940000000 1.0
C      1  0.5199110000000  0.4376630000000  0.4905120000000 1.0
C      1  0.4905020000000  0.5636670000000  0.5199000000000 1.0
C      1  0.5198750000000  0.5635130000000  0.5095050000000 1.0
C      1  0.5094540000000  0.5636810000000  0.4801200000000 1.0
C      1  0.4800810000000  0.5635030000000  0.4905160000000 1.0
C      1  0.5170000000000  0.4853090000000  0.5165730000000 1.0
C      1  0.4842740000000  0.4811400000000  0.5165740000000 1.0
C      1  0.4830110000000  0.4853020000000  0.4834220000000 1.0
C      1  0.5157390000000  0.4811570000000  0.4834200000000 1.0
C      1  0.4834180000000  0.5201720000000  0.5157380000000 1.0
C      1  0.5165720000000  0.5160260000000  0.5169950000000 1.0
C      1  0.5165680000000  0.5201890000000  0.4842690000000 1.0
C      1  0.4834180000000  0.5160200000000  0.4830100000000 1.0
C      1  0.4161110000000  0.5008480000000  0.4996780000000 1.0
C      1  0.4996690000000  0.5004650000000  0.4161110000000 1.0
C      1  0.5838890000000  0.5009070000000  0.5003220000000 1.0
C      1  0.5003310000000  0.5004370000000  0.5838890000000 1.0
END
