TITL C-2330490-4317-26 -3.41823102585195e-06 125000 -358.050818386976 0 0 60 (C3h) n - 1
REM
REM in /home/bkarasulu/CARBON/AIRSS/Generating-Clusters/EDIP-Nigel-Params/Higher-Symm/Box-15A/Only-C60/SD-CG/HFTN-CG
REM
REM
REM
REM
REM
REM ./C.cell (414f73aa93bd7a1190c7fd0f31ff2f98)
REM
REM compiler GCC version 9.2.1 20190827 (Red Hat 9.2.1-1)
REM options -cpp -mtune=generic -march=x86-64 -g -O0 -fpre-include=/usr/include/finclude/math-vector-fortran.h
REM seed 305069084 -628477578 1301805470 -525617660 -1920277220 381481021 1316874770 -626669245 -40484888 1589032778 1984922927 -939911028 631333883 2039120559 -113235982 685189940 164268383 -335348756 -723916157 1529025731 523907591 1450656585 1565367600 1514549252 -1238281489 1816152480 -707110651 893561461 -1216913386 232717906 -1062513720 429900230 2110471250
REM
CELL 1.54180   50.00000   50.00000   50.00000   90.00000   90.00000   90.00000
LATT -1
SFAC C  
C      1  0.5385130000000  0.4332020000000  0.4708150000000 1.0
C      1  0.4554680000000  0.4332030000000  0.4812380000000 1.0
C      1  0.5060170000000  0.4332020000000  0.5479450000000 1.0
C      1  0.5385140000000  0.5667980000000  0.4708160000000 1.0
C      1  0.4554690000000  0.5667980000000  0.4812390000000 1.0
C      1  0.5060180000000  0.5667970000000  0.5479470000000 1.0
C      1  0.4632490000000  0.5686120000000  0.5277640000000 1.0
C      1  0.5424200000000  0.5686110000000  0.5179470000000 1.0
C      1  0.4943320000000  0.5686120000000  0.4542920000000 1.0
C      1  0.4632490000000  0.4313880000000  0.5277620000000 1.0
C      1  0.5424190000000  0.4313880000000  0.5179450000000 1.0
C      1  0.4943310000000  0.4313890000000  0.4542900000000 1.0
C      1  0.4293080000000  0.4585360000000  0.5110850000000 1.0
C      1  0.5449450000000  0.4585340000000  0.5556770000000 1.0
C      1  0.5257450000000  0.4585360000000  0.4332360000000 1.0
C      1  0.4293090000000  0.5414650000000  0.5110860000000 1.0
C      1  0.5449460000000  0.5414640000000  0.5556780000000 1.0
C      1  0.5257460000000  0.5414650000000  0.4332380000000 1.0
C      1  0.5139770000000  0.5162840000000  0.4310300000000 1.0
C      1  0.4332810000000  0.5162830000000  0.5223810000000 1.0
C      1  0.5527420000000  0.5162820000000  0.5465900000000 1.0
C      1  0.5139770000000  0.4837180000000  0.4310290000000 1.0
C      1  0.4332810000000  0.4837170000000  0.5223800000000 1.0
C      1  0.5527410000000  0.4837160000000  0.5465900000000 1.0
C      1  0.4952200000000  0.5140180000000  0.5296070000000 1.0
C      1  0.5280310000000  0.5140180000000  0.4893370000000 1.0
C      1  0.4767500000000  0.5140190000000  0.4810570000000 1.0
C      1  0.4952190000000  0.4859810000000  0.5296070000000 1.0
C      1  0.5280310000000  0.4859820000000  0.4893360000000 1.0
C      1  0.4767500000000  0.4859820000000  0.4810560000000 1.0
C      1  0.4835330000000  0.4845400000000  0.4323610000000 1.0
C      1  0.4496560000000  0.4845390000000  0.5480800000000 1.0
C      1  0.5668100000000  0.4845390000000  0.5195590000000 1.0
C      1  0.4835330000000  0.5154620000000  0.4323610000000 1.0
C      1  0.4496560000000  0.5154600000000  0.5480800000000 1.0
C      1  0.5668110000000  0.5154600000000  0.5195590000000 1.0
C      1  0.4698510000000  0.5569840000000  0.4597680000000 1.0
C      1  0.4802320000000  0.5569830000000  0.5462270000000 1.0
C      1  0.5499180000000  0.5569830000000  0.4940070000000 1.0
C      1  0.4698510000000  0.4430170000000  0.4597660000000 1.0
C      1  0.4802310000000  0.4430160000000  0.5462260000000 1.0
C      1  0.5499170000000  0.4430160000000  0.4940060000000 1.0
C      1  0.4691140000000  0.4727750000000  0.4563870000000 1.0
C      1  0.4776730000000  0.4727740000000  0.5485530000000 1.0
C      1  0.5532120000000  0.4727740000000  0.4950580000000 1.0
C      1  0.4691150000000  0.5272270000000  0.4563880000000 1.0
C      1  0.4776740000000  0.5272250000000  0.5485540000000 1.0
C      1  0.5532120000000  0.5272250000000  0.4950590000000 1.0
C      1  0.4944180000000  0.5141680000000  0.5685460000000 1.0
C      1  0.5621540000000  0.5141690000000  0.4705620000000 1.0
C      1  0.4434290000000  0.5141690000000  0.4608930000000 1.0
C      1  0.4944170000000  0.4858310000000  0.5685460000000 1.0
C      1  0.5621540000000  0.4858310000000  0.4705610000000 1.0
C      1  0.4434290000000  0.4858320000000  0.4608920000000 1.0
C      1  0.5330310000000  0.5632070000000  0.5433790000000 1.0
C      1  0.5210510000000  0.5632090000000  0.4497060000000 1.0
C      1  0.4459190000000  0.5632080000000  0.5069180000000 1.0
C      1  0.5330310000000  0.4367910000000  0.5433770000000 1.0
C      1  0.5210500000000  0.4367920000000  0.4497050000000 1.0
C      1  0.4459180000000  0.4367920000000  0.5069160000000 1.0
END
