TITL C-38185-7677-268 5.71698489001504 125000 -342.124435905103 0 0 60 (C2) n - 1
REM
REM in /home/bkarasulu/CARBON/AIRSS/Generating-Clusters/EDIP-Nigel-Params/Higher-Symm/Box-15A/Only-C60/SD-CG/FIRE-HFTN
REM
REM
REM
REM
REM
REM ./C.cell (414f73aa93bd7a1190c7fd0f31ff2f98)
REM
REM compiler GCC version 9.2.1 20190827 (Red Hat 9.2.1-1)
REM options -cpp -mtune=generic -march=x86-64 -g -O0 -fpre-include=/usr/include/finclude/math-vector-fortran.h
REM seed 1720440569 1774462296 569483703 1216387550 1438913340 915245529 1200098929 -919736859 -1331619689 290976876 1131403475 -741232055 -1749500731 289543560 -1652184859 659333316 -769680339 -39854001 -1728957643 -1811607637 -934137482 -1162047621 -1402699329 -1110222663 2087875499 -1096436818 -129560431 -1213570799 414593996 -1524583479 -1868574189 862136053 -477314595
REM
CELL 1.54180   50.00000   50.00000   50.00000   90.00000   90.00000   90.00000
LATT -1
SFAC C  
C      1  0.5240280000000  0.4708120000000  0.4053080000000 1.0
C      1  0.5240280000000  0.5291880000000  0.5946920000000 1.0
C      1  0.5130140000000  0.4948060000000  0.6731960000000 1.0
C      1  0.5130140000000  0.5051940000000  0.3268040000000 1.0
C      1  0.4307730000000  0.5458630000000  0.3872270000000 1.0
C      1  0.4307730000000  0.4541370000000  0.6127730000000 1.0
C      1  0.4782830000000  0.5861360000000  0.5904110000000 1.0
C      1  0.4782830000000  0.4138640000000  0.4095890000000 1.0
C      1  0.4844620000000  0.5242250000000  0.4335860000000 1.0
C      1  0.4844620000000  0.4757750000000  0.5664140000000 1.0
C      1  0.4696560000000  0.4810430000000  0.5178390000000 1.0
C      1  0.4696560000000  0.5189570000000  0.4821610000000 1.0
C      1  0.4527700000000  0.5476370000000  0.4050960000000 1.0
C      1  0.4527700000000  0.4523630000000  0.5949040000000 1.0
C      1  0.4911570000000  0.5268810000000  0.3845460000000 1.0
C      1  0.4911570000000  0.4731190000000  0.6154540000000 1.0
C      1  0.5735700000000  0.4982690000000  0.5506930000000 1.0
C      1  0.5735700000000  0.5017310000000  0.4493070000000 1.0
C      1  0.4259440000000  0.4559660000000  0.5863070000000 1.0
C      1  0.4259430000000  0.5440340000000  0.4136930000000 1.0
C      1  0.4797080000000  0.5545570000000  0.5549070000000 1.0
C      1  0.4797080000000  0.4454430000000  0.4450930000000 1.0
C      1  0.5899500000000  0.5026490000000  0.4716940000000 1.0
C      1  0.5899500000000  0.4973510000000  0.5283060000000 1.0
C      1  0.5092340000000  0.5513390000000  0.5929490000000 1.0
C      1  0.5092340000000  0.4486610000000  0.4070510000000 1.0
C      1  0.5252460000000  0.5061930000000  0.4615260000000 1.0
C      1  0.5252460000000  0.4938070000000  0.5384740000000 1.0
C      1  0.5202460000000  0.5021270000000  0.5129990000000 1.0
C      1  0.5202460000000  0.4978730000000  0.4870010000000 1.0
C      1  0.4697690000000  0.4465080000000  0.4818390000000 1.0
C      1  0.4697690000000  0.5534920000000  0.5181610000000 1.0
C      1  0.4899220000000  0.5652420000000  0.5791970000000 1.0
C      1  0.4899220000000  0.4347580000000  0.4208030000000 1.0
C      1  0.4733620000000  0.5275480000000  0.4071690000000 1.0
C      1  0.4733620000000  0.4724520000000  0.5928310000000 1.0
C      1  0.4961880000000  0.4966420000000  0.6528750000000 1.0
C      1  0.4961880000000  0.5033580000000  0.3471250000000 1.0
C      1  0.4621320000000  0.5276780000000  0.5086600000000 1.0
C      1  0.4621320000000  0.4723220000000  0.4913400000000 1.0
C      1  0.4613720000000  0.4937690000000  0.4726280000000 1.0
C      1  0.4613720000000  0.5062310000000  0.5273720000000 1.0
C      1  0.5474030000000  0.4936440000000  0.4449590000000 1.0
C      1  0.5474030000000  0.5063560000000  0.5550400000000 1.0
C      1  0.4592080000000  0.4338130000000  0.4595100000000 1.0
C      1  0.4592080000000  0.5661870000000  0.5404900000000 1.0
C      1  0.4814430000000  0.4731070000000  0.6432500000000 1.0
C      1  0.4814430000000  0.5268930000000  0.3567500000000 1.0
C      1  0.4667760000000  0.5285630000000  0.4556380000000 1.0
C      1  0.4667760000000  0.4714370000000  0.5443620000000 1.0
C      1  0.5921830000000  0.4798060000000  0.4874740000000 1.0
C      1  0.5921830000000  0.5201940000000  0.5125260000000 1.0
C      1  0.5287580000000  0.5059080000000  0.5803880000000 1.0
C      1  0.5287580000000  0.4940920000000  0.4196120000000 1.0
C      1  0.5058980000000  0.5033000000000  0.3748860000000 1.0
C      1  0.5058980000000  0.4967000000000  0.6251140000000 1.0
C      1  0.5054620000000  0.5047330000000  0.4380810000000 1.0
C      1  0.5054620000000  0.4952670000000  0.5619190000000 1.0
C      1  0.5920860000000  0.4735320000000  0.5138600000000 1.0
C      1  0.5920860000000  0.5264680000000  0.4861400000000 1.0
END
