TITL C-38199-1586-66 6.91866935805822e-05 125000 -357.978521169551 0 0 60 (C2) n - 1
REM
REM in /home/bkarasulu/CARBON/AIRSS/Generating-Clusters/EDIP-Nigel-Params/Higher-Symm/Box-15A/Only-C60/SD-CG/FIRE-HFTN
REM
REM
REM
REM
REM
REM ./C.cell (414f73aa93bd7a1190c7fd0f31ff2f98)
REM
REM compiler GCC version 9.2.1 20190827 (Red Hat 9.2.1-1)
REM options -cpp -mtune=generic -march=x86-64 -g -O0 -fpre-include=/usr/include/finclude/math-vector-fortran.h
REM seed 1517137831 -129136613 -1743044480 530905118 1717954911 -968125262 -833361107 -1147945364 -670665222 -337554573 -1947070831 -2081061118 -441148191 755381134 1424599042 -1963840047 -482668959 1931129315 1392503583 -530972692 -1491207918 332541261 -267233750 192764018 1637478934 -1333287487 -1971033606 878877576 840670355 -36607183 -531825201 907885140 702880306
REM
CELL 1.54180   50.00000   50.00000   50.00000   90.00000   90.00000   90.00000
LATT -1
SFAC C  
C      1  0.4840330000000  0.4826650000000  0.4269870000000 1.0
C      1  0.5159670000000  0.4826650000000  0.5730130000000 1.0
C      1  0.4420330000000  0.4686950000000  0.5083940000000 1.0
C      1  0.5579670000000  0.4686950000000  0.4916060000000 1.0
C      1  0.5051830000000  0.4300910000000  0.4713010000000 1.0
C      1  0.4948170000000  0.4300910000000  0.5286990000000 1.0
C      1  0.4844620000000  0.4561380000000  0.4358380000000 1.0
C      1  0.5155380000000  0.4561380000000  0.5641620000000 1.0
C      1  0.5276120000000  0.4218150000000  0.4868070000000 1.0
C      1  0.4723880000000  0.4218150000000  0.5131930000000 1.0
C      1  0.5240440000000  0.5527800000000  0.4581210000000 1.0
C      1  0.4759560000000  0.5527800000000  0.5418790000000 1.0
C      1  0.4729470000000  0.4003120000000  0.4957090000000 1.0
C      1  0.5270530000000  0.4003120000000  0.5042910000000 1.0
C      1  0.5297120000000  0.5132470000000  0.4778920000000 1.0
C      1  0.4702880000000  0.5132470000000  0.5221080000000 1.0
C      1  0.4853860000000  0.5823280000000  0.4954170000000 1.0
C      1  0.5146140000000  0.5823280000000  0.5045830000000 1.0
C      1  0.5042780000000  0.5379090000000  0.5462330000000 1.0
C      1  0.4957220000000  0.5379090000000  0.4537670000000 1.0
C      1  0.4726370000000  0.4700970000000  0.5505290000000 1.0
C      1  0.5273630000000  0.4700970000000  0.4494710000000 1.0
C      1  0.5276130000000  0.5770850000000  0.5303990000000 1.0
C      1  0.4723870000000  0.5770850000000  0.4696010000000 1.0
C      1  0.4693740000000  0.5518260000000  0.4545130000000 1.0
C      1  0.5306260000000  0.5518260000000  0.5454870000000 1.0
C      1  0.5712950000000  0.4888420000000  0.5351480000000 1.0
C      1  0.4287050000000  0.4888420000000  0.4648520000000 1.0
C      1  0.5073750000000  0.4495600000000  0.4503990000000 1.0
C      1  0.4926250000000  0.4495600000000  0.5496010000000 1.0
C      1  0.4797190000000  0.4180300000000  0.4755470000000 1.0
C      1  0.5202810000000  0.4180300000000  0.5244530000000 1.0
C      1  0.4245080000000  0.5122460000000  0.5064560000000 1.0
C      1  0.5754920000000  0.5122460000000  0.4935440000000 1.0
C      1  0.4251370000000  0.4860910000000  0.4923280000000 1.0
C      1  0.5748630000000  0.4860910000000  0.5076720000000 1.0
C      1  0.5522330000000  0.5330420000000  0.5349440000000 1.0
C      1  0.4477670000000  0.5330420000000  0.4650560000000 1.0
C      1  0.4469750000000  0.4721610000000  0.5368740000000 1.0
C      1  0.5530250000000  0.4721610000000  0.4631260000000 1.0
C      1  0.4911530000000  0.5247330000000  0.5714310000000 1.0
C      1  0.5088470000000  0.5247330000000  0.4285690000000 1.0
C      1  0.5384540000000  0.4982720000000  0.5682010000000 1.0
C      1  0.4615460000000  0.4982720000000  0.4317990000000 1.0
C      1  0.5563280000000  0.5018390000000  0.4711600000000 1.0
C      1  0.4436720000000  0.5018390000000  0.5288400000000 1.0
C      1  0.5116240000000  0.4990430000000  0.4935450000000 1.0
C      1  0.4883760000000  0.4990430000000  0.5064550000000 1.0
C      1  0.5339820000000  0.5399980000000  0.4330260000000 1.0
C      1  0.4660180000000  0.5399980000000  0.5669740000000 1.0
C      1  0.5628790000000  0.5361910000000  0.5070900000000 1.0
C      1  0.4371210000000  0.5361910000000  0.4929100000000 1.0
C      1  0.5143930000000  0.5503460000000  0.5051150000000 1.0
C      1  0.4856070000000  0.5503460000000  0.4948850000000 1.0
C      1  0.5344990000000  0.5415320000000  0.4845110000000 1.0
C      1  0.4655010000000  0.5415320000000  0.5154890000000 1.0
C      1  0.4905080000000  0.4958080000000  0.5717130000000 1.0
C      1  0.5094920000000  0.4958080000000  0.4282870000000 1.0
C      1  0.4444140000000  0.5072780000000  0.4516380000000 1.0
C      1  0.5555860000000  0.5072780000000  0.5483620000000 1.0
END
