TITL C-38198-1686-35 -1.12842691002197e-06 125000 -341.415813739472 0 0 60 (Ci) n - 1
REM
REM in /home/bkarasulu/CARBON/AIRSS/Generating-Clusters/EDIP-Nigel-Params/Higher-Symm/Box-15A/Only-C60/SD-CG/FIRE-HFTN
REM
REM
REM
REM
REM
REM ./C.cell (414f73aa93bd7a1190c7fd0f31ff2f98)
REM
REM compiler GCC version 9.2.1 20190827 (Red Hat 9.2.1-1)
REM options -cpp -mtune=generic -march=x86-64 -g -O0 -fpre-include=/usr/include/finclude/math-vector-fortran.h
REM seed 1950552897 1677669984 -2080011650 -1987977559 359857058 807180912 -2043002251 1897893768 -1739921374 -681769028 666296355 45932180 -1083885958 50355423 1102787775 -1167494882 -1860151304 -2050485474 -1339945403 680834094 1197063088 612031978 1382777206 -1352352318 -89422196 -213185043 -208781321 1726227241 1276808957 -52366609 170957381 -548766442 -64378230
REM
CELL 1.54180   50.00000   50.00000   50.00000   90.00000   90.00000   90.00000
LATT -1
SFAC C  
C      1  0.4479830000000  0.4858310000000  0.4359150000000 1.0
C      1  0.4492510000000  0.4521220000000  0.5451190000000 1.0
C      1  0.4457630000000  0.5623560000000  0.5193130000000 1.0
C      1  0.5490240000000  0.4838730000000  0.5647870000000 1.0
C      1  0.5529220000000  0.4519320000000  0.4552770000000 1.0
C      1  0.5532040000000  0.5617200000000  0.4806840000000 1.0
C      1  0.5520170000000  0.5141690000000  0.5640850000000 1.0
C      1  0.5507490000000  0.5478780000000  0.4548810000000 1.0
C      1  0.5542370000000  0.4376440000000  0.4806870000000 1.0
C      1  0.4509760000000  0.5161270000000  0.4352130000000 1.0
C      1  0.4470780000000  0.5480680000000  0.5447230000000 1.0
C      1  0.4467960000000  0.4382800000000  0.5193160000000 1.0
C      1  0.4416150000000  0.4775050000000  0.4647170000000 1.0
C      1  0.4440120000000  0.4811250000000  0.5396170000000 1.0
C      1  0.4418450000000  0.5428500000000  0.4972250000000 1.0
C      1  0.5553350000000  0.4742660000000  0.5371470000000 1.0
C      1  0.5550760000000  0.4805850000000  0.4584720000000 1.0
C      1  0.5559030000000  0.5436390000000  0.5033320000000 1.0
C      1  0.5583850000000  0.5224950000000  0.5352830000000 1.0
C      1  0.5559880000000  0.5188750000000  0.4603830000000 1.0
C      1  0.5581550000000  0.4571500000000  0.5027750000000 1.0
C      1  0.4446650000000  0.5257340000000  0.4628530000000 1.0
C      1  0.4449240000000  0.5194150000000  0.5415280000000 1.0
C      1  0.4440970000000  0.4563610000000  0.4966680000000 1.0
C      1  0.4809220000000  0.5263770000000  0.4379970000000 1.0
C      1  0.4802080000000  0.4323960000000  0.5019340000000 1.0
C      1  0.4818960000000  0.5376800000000  0.5558720000000 1.0
C      1  0.5244240000000  0.5286110000000  0.5621630000000 1.0
C      1  0.5236480000000  0.4316170000000  0.4962370000000 1.0
C      1  0.5213630000000  0.5410420000000  0.4454680000000 1.0
C      1  0.5190780000000  0.4736230000000  0.5620030000000 1.0
C      1  0.5197920000000  0.5676040000000  0.4980660000000 1.0
C      1  0.5181040000000  0.4623200000000  0.4441280000000 1.0
C      1  0.4755760000000  0.4713890000000  0.4378370000000 1.0
C      1  0.4763520000000  0.5683830000000  0.5037630000000 1.0
C      1  0.4786370000000  0.4589580000000  0.5545320000000 1.0
C      1  0.4696270000000  0.4852520000000  0.4741610000000 1.0
C      1  0.4710280000000  0.4851480000000  0.5259620000000 1.0
C      1  0.4689130000000  0.5300590000000  0.5002220000000 1.0
C      1  0.5289570000000  0.4845290000000  0.5256330000000 1.0
C      1  0.5296540000000  0.4849150000000  0.4735520000000 1.0
C      1  0.5294490000000  0.5300440000000  0.5003940000000 1.0
C      1  0.5303730000000  0.5147480000000  0.5258390000000 1.0
C      1  0.5289720000000  0.5148520000000  0.4740380000000 1.0
C      1  0.5310870000000  0.4699410000000  0.4997780000000 1.0
C      1  0.4710430000000  0.5154710000000  0.4743670000000 1.0
C      1  0.4703460000000  0.5150850000000  0.5264480000000 1.0
C      1  0.4705510000000  0.4699560000000  0.4996060000000 1.0
C      1  0.4978040000000  0.5569690000000  0.4534890000000 1.0
C      1  0.4992300000000  0.4282520000000  0.4775400000000 1.0
C      1  0.4984040000000  0.5177810000000  0.5724410000000 1.0
C      1  0.5024780000000  0.5563110000000  0.5462390000000 1.0
C      1  0.5030630000000  0.4286230000000  0.5217770000000 1.0
C      1  0.5042270000000  0.5106380000000  0.4292440000000 1.0
C      1  0.5021960000000  0.4430310000000  0.5465110000000 1.0
C      1  0.5007700000000  0.5717480000000  0.5224600000000 1.0
C      1  0.5015960000000  0.4822190000000  0.4275590000000 1.0
C      1  0.4975220000000  0.4436890000000  0.4537610000000 1.0
C      1  0.4969370000000  0.5713770000000  0.4782230000000 1.0
C      1  0.4957730000000  0.4893620000000  0.5707560000000 1.0
END
