TITL C-38197-8510-454 -7.71081434141114e-07 125000 -376.104637402307 0 0 60 (C4) n - 1
REM
REM in /home/bkarasulu/CARBON/AIRSS/Generating-Clusters/EDIP-Nigel-Params/Higher-Symm/Box-15A/Only-C60/SD-CG/FIRE-HFTN
REM
REM
REM
REM
REM
REM ./C.cell (414f73aa93bd7a1190c7fd0f31ff2f98)
REM
REM compiler GCC version 9.2.1 20190827 (Red Hat 9.2.1-1)
REM options -cpp -mtune=generic -march=x86-64 -g -O0 -fpre-include=/usr/include/finclude/math-vector-fortran.h
REM seed -1605247770 598579315 -1936775821 -319584121 1907164212 608928625 -785680156 793062402 -135783487 378472500 1267383472 -1094049908 1568828899 1280194697 -1093862807 864925698 -167369593 1154116055 1744918157 449059829 1559890905 -707768137 1139518462 -1537416953 -234529702 -146607231 493292586 931142475 652549794 1772213258 -1808495227 1690731144 251533666
REM
CELL 1.54180   50.00000   50.00000   50.00000   90.00000   90.00000   90.00000
LATT -1
SFAC C  
C      1  0.4863480000000  0.4657160000000  0.5569610000000 1.0
C      1  0.5342840000000  0.4863480000000  0.5569610000000 1.0
C      1  0.5136520000000  0.5342840000000  0.5569610000000 1.0
C      1  0.4657160000000  0.5136520000000  0.5569610000000 1.0
C      1  0.4853260000000  0.5344840000000  0.5613810000000 1.0
C      1  0.5344840000000  0.5146740000000  0.5613810000000 1.0
C      1  0.5146740000000  0.4655160000000  0.5613810000000 1.0
C      1  0.4655160000000  0.4853260000000  0.5613810000000 1.0
C      1  0.4677190000000  0.4344710000000  0.5246370000000 1.0
C      1  0.5655290000000  0.4677190000000  0.5246370000000 1.0
C      1  0.5322810000000  0.5655290000000  0.5246370000000 1.0
C      1  0.4344710000000  0.5322810000000  0.5246370000000 1.0
C      1  0.4681460000000  0.5652570000000  0.5253110000000 1.0
C      1  0.5652570000000  0.5318540000000  0.5253110000000 1.0
C      1  0.5318540000000  0.4347430000000  0.5253110000000 1.0
C      1  0.4347430000000  0.4681460000000  0.5253110000000 1.0
C      1  0.5144790000000  0.4448900000000  0.4522310000000 1.0
C      1  0.5551100000000  0.5144790000000  0.4522310000000 1.0
C      1  0.4855210000000  0.5551100000000  0.4522310000000 1.0
C      1  0.4448900000000  0.4855210000000  0.4522310000000 1.0
C      1  0.5146690000000  0.5549530000000  0.4521380000000 1.0
C      1  0.5549530000000  0.4853310000000  0.4521380000000 1.0
C      1  0.4853310000000  0.4450470000000  0.4521380000000 1.0
C      1  0.4450470000000  0.5146690000000  0.4521380000000 1.0
C      1  0.5191230000000  0.4607230000000  0.4280450000000 1.0
C      1  0.5392770000000  0.5191230000000  0.4280450000000 1.0
C      1  0.4808770000000  0.5392770000000  0.4280450000000 1.0
C      1  0.4607230000000  0.4808770000000  0.4280450000000 1.0
C      1  0.5190970000000  0.5390390000000  0.4280540000000 1.0
C      1  0.5390390000000  0.4809030000000  0.4280540000000 1.0
C      1  0.4809030000000  0.4609610000000  0.4280540000000 1.0
C      1  0.4609610000000  0.5190970000000  0.4280540000000 1.0
C      1  0.5149980000000  0.5594490000000  0.5019390000000 1.0
C      1  0.4405510000000  0.5149980000000  0.5019390000000 1.0
C      1  0.4850020000000  0.4405510000000  0.5019390000000 1.0
C      1  0.5594490000000  0.4850020000000  0.5019390000000 1.0
C      1  0.5146950000000  0.4408960000000  0.5023820000000 1.0
C      1  0.4408960000000  0.4853050000000  0.5023820000000 1.0
C      1  0.4853050000000  0.5591040000000  0.5023820000000 1.0
C      1  0.5591040000000  0.5146950000000  0.5023820000000 1.0
C      1  0.5496470000000  0.5283190000000  0.4778410000000 1.0
C      1  0.4716810000000  0.5496470000000  0.4778410000000 1.0
C      1  0.4503530000000  0.4716810000000  0.4778410000000 1.0
C      1  0.5283190000000  0.4503530000000  0.4778410000000 1.0
C      1  0.5494190000000  0.4715620000000  0.4776500000000 1.0
C      1  0.4715620000000  0.4505810000000  0.4776500000000 1.0
C      1  0.4505810000000  0.5284380000000  0.4776500000000 1.0
C      1  0.5284380000000  0.5494190000000  0.4776500000000 1.0
C      1  0.5593800000000  0.5231610000000  0.5514610000000 1.0
C      1  0.4768390000000  0.5593800000000  0.5514610000000 1.0
C      1  0.4406200000000  0.4768390000000  0.5514610000000 1.0
C      1  0.5231610000000  0.4406200000000  0.5514610000000 1.0
C      1  0.5600290000000  0.4774290000000  0.5503370000000 1.0
C      1  0.4774290000000  0.4399710000000  0.5503370000000 1.0
C      1  0.4399710000000  0.5225710000000  0.5503370000000 1.0
C      1  0.5225710000000  0.5600290000000  0.5503370000000 1.0
C      1  0.5590140000000  0.4406040000000  0.5210540000000 1.0
C      1  0.4406040000000  0.4409860000000  0.5210540000000 1.0
C      1  0.5593960000000  0.5590140000000  0.5210540000000 1.0
C      1  0.4409860000000  0.5593960000000  0.5210540000000 1.0
END
