TITL C-38192-7909-204 2.11705922633881e-06 125000 -381.303749692286 0 0 60 (C5) n - 1
REM
REM in /home/bkarasulu/CARBON/AIRSS/Generating-Clusters/EDIP-Nigel-Params/Higher-Symm/Box-15A/Only-C60/SD-CG/FIRE-HFTN
REM
REM
REM
REM
REM
REM ./C.cell (414f73aa93bd7a1190c7fd0f31ff2f98)
REM
REM compiler GCC version 9.2.1 20190827 (Red Hat 9.2.1-1)
REM options -cpp -mtune=generic -march=x86-64 -g -O0 -fpre-include=/usr/include/finclude/math-vector-fortran.h
REM seed -74920038 307753311 2112167522 -778865969 1368413039 357794952 467902795 -445731026 1967330429 2052593900 708957322 1687103849 -1849115382 -146134745 -199723780 3002523 -2015457737 -1086975745 -1936804482 1148655860 -1461237769 127188977 2032522120 -1508517303 -547386473 -2071883535 -742623207 250143206 1435335281 785391516 1670675713 1675373530 -1273383663
REM
CELL 1.54180   50.00000   50.00000   50.00000   90.00000   90.00000   90.00000
LATT -1
SFAC C  
C      1  0.5043630000000  0.5316990000000  0.5671160000000 1.0
C      1  0.4375190000000  0.5317020000000  0.5248910000000 1.0
C      1  0.4570220000000  0.5317060000000  0.4482700000000 1.0
C      1  0.5359190000000  0.5317060000000  0.4431410000000 1.0
C      1  0.5651780000000  0.5317020000000  0.5165910000000 1.0
C      1  0.4947520000000  0.5527840000000  0.5515920000000 1.0
C      1  0.4493140000000  0.5527870000000  0.5109540000000 1.0
C      1  0.4739230000000  0.5527900000000  0.4551820000000 1.0
C      1  0.5345700000000  0.5527890000000  0.4613510000000 1.0
C      1  0.5474430000000  0.5527850000000  0.5209360000000 1.0
C      1  0.5023360000000  0.4818160000000  0.5700960000000 1.0
C      1  0.4340560000000  0.4818190000000  0.5238820000000 1.0
C      1  0.4569080000000  0.4818240000000  0.4446630000000 1.0
C      1  0.5393120000000  0.4818230000000  0.4419160000000 1.0
C      1  0.5673880000000  0.4818190000000  0.5194380000000 1.0
C      1  0.5490500000000  0.4565580000000  0.4801570000000 1.0
C      1  0.5340260000000  0.4565550000000  0.5405160000000 1.0
C      1  0.4719790000000  0.4565550000000  0.5448790000000 1.0
C      1  0.4486560000000  0.4565580000000  0.4872180000000 1.0
C      1  0.4962880000000  0.4565600000000  0.4472170000000 1.0
C      1  0.5166600000000  0.4424840000000  0.5199250000000 1.0
C      1  0.4861960000000  0.4424840000000  0.5220000000000 1.0
C      1  0.4748080000000  0.4424860000000  0.4936680000000 1.0
C      1  0.4982340000000  0.4424870000000  0.4740820000000 1.0
C      1  0.5241010000000  0.4424850000000  0.4903100000000 1.0
C      1  0.5612520000000  0.4585980000000  0.5340900000000 1.0
C      1  0.4865040000000  0.4585970000000  0.5687870000000 1.0
C      1  0.4304070000000  0.4586010000000  0.5084200000000 1.0
C      1  0.4704850000000  0.4586040000000  0.4364130000000 1.0
C      1  0.5513510000000  0.4586030000000  0.4522780000000 1.0
C      1  0.4286000000000  0.5074600000000  0.5098960000000 1.0
C      1  0.4685250000000  0.5074640000000  0.4351530000000 1.0
C      1  0.5519470000000  0.5074620000000  0.4500270000000 1.0
C      1  0.5635800000000  0.5074580000000  0.5339630000000 1.0
C      1  0.4873470000000  0.5074560000000  0.5709640000000 1.0
C      1  0.4878670000000  0.5578840000000  0.4786940000000 1.0
C      1  0.5165170000000  0.5578840000000  0.4818790000000 1.0
C      1  0.5223410000000  0.5578820000000  0.5101110000000 1.0
C      1  0.4972910000000  0.5578820000000  0.5243740000000 1.0
C      1  0.4759850000000  0.5578830000000  0.5049580000000 1.0
C      1  0.5321400000000  0.5272870000000  0.5677040000000 1.0
C      1  0.4455430000000  0.5272880000000  0.5514900000000 1.0
C      1  0.4342040000000  0.5272930000000  0.4641200000000 1.0
C      1  0.5137930000000  0.5272950000000  0.4263380000000 1.0
C      1  0.5743210000000  0.5272910000000  0.4903560000000 1.0
C      1  0.4602750000000  0.5044530000000  0.5587410000000 1.0
C      1  0.4318590000000  0.5044580000000  0.4803710000000 1.0
C      1  0.4976120000000  0.5044600000000  0.4291280000000 1.0
C      1  0.5666650000000  0.5044570000000  0.4758280000000 1.0
C      1  0.5435900000000  0.5044530000000  0.5559330000000 1.0
C      1  0.4816410000000  0.4949420000000  0.5165080000000 1.0
C      1  0.4786270000000  0.4949440000000  0.4876410000000 1.0
C      1  0.5051500000000  0.4949440000000  0.4758530000000 1.0
C      1  0.5245560000000  0.4949430000000  0.4974360000000 1.0
C      1  0.5100270000000  0.4949420000000  0.5225610000000 1.0
C      1  0.4613490000000  0.4840120000000  0.5364590000000 1.0
C      1  0.4533810000000  0.4840160000000  0.4745070000000 1.0
C      1  0.5098390000000  0.4840170000000  0.4477840000000 1.0
C      1  0.5527000000000  0.4840140000000  0.4932210000000 1.0
C      1  0.5227310000000  0.4840110000000  0.5480250000000 1.0
END
