TITL C-38186-4112-251 1.70767936674719e-06 125000 -367.111048858296 0 0 60 (C2) n - 1
REM
REM in /home/bkarasulu/CARBON/AIRSS/Generating-Clusters/EDIP-Nigel-Params/Higher-Symm/Box-15A/Only-C60/SD-CG/FIRE-HFTN
REM
REM
REM
REM
REM
REM ./C.cell (414f73aa93bd7a1190c7fd0f31ff2f98)
REM
REM compiler GCC version 9.2.1 20190827 (Red Hat 9.2.1-1)
REM options -cpp -mtune=generic -march=x86-64 -g -O0 -fpre-include=/usr/include/finclude/math-vector-fortran.h
REM seed 574133590 -1239910721 1489385501 591605276 -427011538 -2081860017 -1043359110 807414657 -1799867643 484750379 -1482220447 1994351174 -1230501167 936575491 1225130527 124788011 -646296769 -279392815 1710834790 -676039672 361563347 1838386441 -1118990162 1421818607 261929285 -1763250997 1723325954 -896149595 -459411984 -835857130 -1311926678 -200871900 -1182631473
REM
CELL 1.54180   50.00000   50.00000   50.00000   90.00000   90.00000   90.00000
LATT -1
SFAC C  
C      1  0.4588630000000  0.5005130000000  0.5160650000000 1.0
C      1  0.4981650000000  0.5170000000000  0.4536460000000 1.0
C      1  0.5135400000000  0.4589470000000  0.4978730000000 1.0
C      1  0.5431620000000  0.5014180000000  0.4857880000000 1.0
C      1  0.5433170000000  0.5029850000000  0.5160640000000 1.0
C      1  0.4590180000000  0.5020800000000  0.4857880000000 1.0
C      1  0.5035570000000  0.5178000000000  0.5506530000000 1.0
C      1  0.5040140000000  0.4864980000000  0.4536460000000 1.0
C      1  0.4986230000000  0.4856990000000  0.5506530000000 1.0
C      1  0.4830880000000  0.4565250000000  0.4997400000000 1.0
C      1  0.4886400000000  0.5445510000000  0.4978730000000 1.0
C      1  0.5190920000000  0.5469730000000  0.4997390000000 1.0
C      1  0.4617260000000  0.4980730000000  0.4329450000000 1.0
C      1  0.5037740000000  0.4318820000000  0.4604380000000 1.0
C      1  0.4344060000000  0.4617690000000  0.5011180000000 1.0
C      1  0.5422850000000  0.4996470000000  0.5693980000000 1.0
C      1  0.5404530000000  0.5054240000000  0.4329450000000 1.0
C      1  0.4598950000000  0.5038520000000  0.5693990000000 1.0
C      1  0.4992150000000  0.4347710000000  0.5401230000000 1.0
C      1  0.4984060000000  0.5716150000000  0.4604380000000 1.0
C      1  0.5029650000000  0.5687270000000  0.5401230000000 1.0
C      1  0.5604650000000  0.4600950000000  0.4965550000000 1.0
C      1  0.5677740000000  0.5417290000000  0.5011170000000 1.0
C      1  0.4417140000000  0.5434030000000  0.4965550000000 1.0
C      1  0.4776830000000  0.5596430000000  0.4747730000000 1.0
C      1  0.5610800000000  0.4797540000000  0.4770000000000 1.0
C      1  0.4723300000000  0.4791460000000  0.5635810000000 1.0
C      1  0.5258990000000  0.5597420000000  0.5266370000000 1.0
C      1  0.5244960000000  0.4438550000000  0.4747730000000 1.0
C      1  0.4762810000000  0.4437560000000  0.5266370000000 1.0
C      1  0.4415040000000  0.4772080000000  0.5236910000000 1.0
C      1  0.4411000000000  0.5237440000000  0.4770000000000 1.0
C      1  0.5606760000000  0.5262900000000  0.5236910000000 1.0
C      1  0.5295370000000  0.4803080000000  0.4396570000000 1.0
C      1  0.5298500000000  0.5243530000000  0.5635800000000 1.0
C      1  0.4726420000000  0.5231890000000  0.4396570000000 1.0
C      1  0.5557160000000  0.4751860000000  0.5211100000000 1.0
C      1  0.4754690000000  0.5260020000000  0.5607380000000 1.0
C      1  0.5218520000000  0.5646380000000  0.4746250000000 1.0
C      1  0.4479190000000  0.4744330000000  0.4797980000000 1.0
C      1  0.4464640000000  0.5283130000000  0.5211100000000 1.0
C      1  0.5542610000000  0.5290650000000  0.4797970000000 1.0
C      1  0.5246510000000  0.5273490000000  0.4419410000000 1.0
C      1  0.5267120000000  0.4774970000000  0.5607380000000 1.0
C      1  0.4775280000000  0.4761490000000  0.4419420000000 1.0
C      1  0.4815940000000  0.5583020000000  0.5249940000000 1.0
C      1  0.4803280000000  0.4388590000000  0.4746260000000 1.0
C      1  0.5205860000000  0.4451960000000  0.5249940000000 1.0
C      1  0.5126110000000  0.5138900000000  0.5192580000000 1.0
C      1  0.4875020000000  0.5156000000000  0.4838140000000 1.0
C      1  0.4895690000000  0.4896080000000  0.5192580000000 1.0
C      1  0.5146770000000  0.4878980000000  0.4838140000000 1.0
C      1  0.5400840000000  0.4601660000000  0.5407250000000 1.0
C      1  0.4620960000000  0.5433320000000  0.5407250000000 1.0
C      1  0.5392770000000  0.5454140000000  0.4604260000000 1.0
C      1  0.4629020000000  0.4580840000000  0.4604270000000 1.0
C      1  0.5443970000000  0.5421750000000  0.5432540000000 1.0
C      1  0.4571280000000  0.5422020000000  0.4594110000000 1.0
C      1  0.5450510000000  0.4612960000000  0.4594110000000 1.0
C      1  0.4577830000000  0.4613240000000  0.5432540000000 1.0
END
