TITL C-38185-7677-300 0.109424083730573 125000 -344.507751471992 0 0 60 (C3) n - 1
REM
REM in /home/bkarasulu/CARBON/AIRSS/Generating-Clusters/EDIP-Nigel-Params/Higher-Symm/Box-15A/Only-C60/SD-CG/FIRE-HFTN
REM
REM
REM
REM
REM
REM ./C.cell (414f73aa93bd7a1190c7fd0f31ff2f98)
REM
REM compiler GCC version 9.2.1 20190827 (Red Hat 9.2.1-1)
REM options -cpp -mtune=generic -march=x86-64 -g -O0 -fpre-include=/usr/include/finclude/math-vector-fortran.h
REM seed 1442723890 694931378 -390873958 2028359543 1150309852 1986992052 -1609024014 1152749453 700216367 -722236081 -1971513629 1282131027 1437595479 -2057403017 -955986785 -1009149045 628389505 -485834319 1908943006 -509114988 -245663906 -299474040 1417893478 835044110 1916322770 -1345448459 324361216 -2141923964 -2091206699 -1415796169 -1205621112 738321325 1850328584
REM
CELL 1.54180   50.00000   50.00000   50.00000   90.00000   90.00000   90.00000
LATT -1
SFAC C  
C      1  0.4140560000000  0.5292660000000  0.5851910000000 1.0
C      1  0.4140560000000  0.5591450000000  0.4320600000000 1.0
C      1  0.4140560000000  0.4115890000000  0.4827490000000 1.0
C      1  0.5178240000000  0.5452190000000  0.4668320000000 1.0
C      1  0.5178240000000  0.4486660000000  0.4774230000000 1.0
C      1  0.5178240000000  0.5061150000000  0.5557450000000 1.0
C      1  0.5044150000000  0.5699430000000  0.5169690000000 1.0
C      1  0.5044150000000  0.4797240000000  0.4309430000000 1.0
C      1  0.5044150000000  0.4503320000000  0.5520880000000 1.0
C      1  0.4996390000000  0.4515680000000  0.4977090000000 1.0
C      1  0.4996390000000  0.5222320000000  0.5430890000000 1.0
C      1  0.4996390000000  0.5262000000000  0.4592020000000 1.0
C      1  0.4535600000000  0.4408310000000  0.4732140000000 1.0
C      1  0.4535600000000  0.5063880000000  0.5646350000000 1.0
C      1  0.4535600000000  0.5527820000000  0.4621510000000 1.0
C      1  0.4563230000000  0.5947930000000  0.4938940000000 1.0
C      1  0.4563230000000  0.4473160000000  0.4209590000000 1.0
C      1  0.4563230000000  0.4578910000000  0.5851460000000 1.0
C      1  0.5429730000000  0.4987820000000  0.5639790000000 1.0
C      1  0.5429730000000  0.5560160000000  0.4690650000000 1.0
C      1  0.5429730000000  0.4452010000000  0.4669560000000 1.0
C      1  0.5466210000000  0.4721670000000  0.5706060000000 1.0
C      1  0.5466210000000  0.5750630000000  0.4888010000000 1.0
C      1  0.5466210000000  0.4527690000000  0.4405930000000 1.0
C      1  0.4489250000000  0.4054340000000  0.4490280000000 1.0
C      1  0.4489250000000  0.5031400000000  0.6073830000000 1.0
C      1  0.4489260000000  0.5914270000000  0.4435890000000 1.0
C      1  0.4397810000000  0.4130240000000  0.4765820000000 1.0
C      1  0.4397810000000  0.5232070000000  0.5870320000000 1.0
C      1  0.4397810000000  0.5637690000000  0.4363860000000 1.0
C      1  0.5645160000000  0.5183210000000  0.5651130000000 1.0
C      1  0.5645170000000  0.5472290000000  0.4515770000000 1.0
C      1  0.5645160000000  0.4344500000000  0.4833100000000 1.0
C      1  0.5351820000000  0.5752270000000  0.5141990000000 1.0
C      1  0.5351820000000  0.4746830000000  0.4277520000000 1.0
C      1  0.5351820000000  0.4500890000000  0.5580490000000 1.0
C      1  0.4842280000000  0.4382230000000  0.5681070000000 1.0
C      1  0.4842280000000  0.5898710000000  0.5194470000000 1.0
C      1  0.4842280000000  0.4719060000000  0.4124460000000 1.0
C      1  0.4623380000000  0.4858540000000  0.5867760000000 1.0
C      1  0.4623390000000  0.5822240000000  0.4688630000000 1.0
C      1  0.4623380000000  0.4319230000000  0.4443610000000 1.0
C      1  0.5404460000000  0.4456480000000  0.5275340000000 1.0
C      1  0.5404460000000  0.5510210000000  0.5333030000000 1.0
C      1  0.5404460000000  0.5033310000000  0.4391630000000 1.0
C      1  0.5617910000000  0.5462450000000  0.5527480000000 1.0
C      1  0.5617910000000  0.5225580000000  0.4335760000000 1.0
C      1  0.5617910000000  0.4311960000000  0.5136760000000 1.0
C      1  0.5865070000000  0.4266910000000  0.4997610000000 1.0
C      1  0.5865070000000  0.5364480000000  0.5636070000000 1.0
C      1  0.5865070000000  0.5368610000000  0.4366320000000 1.0
C      1  0.5102960000000  0.5482150000000  0.5381080000000 1.0
C      1  0.5102960000000  0.5088950000000  0.4391900000000 1.0
C      1  0.5102960000000  0.4428900000000  0.5227020000000 1.0
C      1  0.4575610000000  0.5825730000000  0.5187630000000 1.0
C      1  0.4575610000000  0.4749630000000  0.4191080000000 1.0
C      1  0.4575610000000  0.4424640000000  0.5621290000000 1.0
C      1  0.4730170000000  0.5184050000000  0.5489480000000 1.0
C      1  0.4730170000000  0.5331880000000  0.4595870000000 1.0
C      1  0.4730170000000  0.4484070000000  0.4914650000000 1.0
END
