TITL C-38197-8510-239 5.13799499680954e-06 125000 -359.753746492834 0 0 60 (C1) n - 1
REM
REM in /home/bkarasulu/CARBON/AIRSS/Generating-Clusters/EDIP-Nigel-Params/Higher-Symm/Box-15A/Only-C60/SD-CG/FIRE-HFTN
REM
REM
REM
REM
REM
REM ./C.cell (414f73aa93bd7a1190c7fd0f31ff2f98)
REM
REM compiler GCC version 9.2.1 20190827 (Red Hat 9.2.1-1)
REM options -cpp -mtune=generic -march=x86-64 -g -O0 -fpre-include=/usr/include/finclude/math-vector-fortran.h
REM seed 1622097550 -1149433483 1452886340 -1298577885 1704987986 -435203644 1067996807 -1667784334 -880473197 1094579162 -2021270501 -2029274266 347719224 1927147148 804091389 -1033000719 -217948907 675521460 -1414023333 -1409021162 -37976062 286162526 -1730133969 -167494347 -1429090702 -321038181 1987615646 68458920 -1734094398 -729683652 -1457629811 -941290874 741913566
REM
CELL 1.54180   50.00000   50.00000   50.00000   90.00000   90.00000   90.00000
LATT -1
SFAC C  
C      1  0.5426630000000  0.4588390000000  0.4870590000000 1.0
C      1  0.5427600000000  0.4997360000000  0.4560140000000 1.0
C      1  0.5430050000000  0.5417920000000  0.4856200000000 1.0
C      1  0.5427510000000  0.5255210000000  0.5351480000000 1.0
C      1  0.5431530000000  0.4741780000000  0.5368750000000 1.0
C      1  0.5510780000000  0.4568040000000  0.5151340000000 1.0
C      1  0.5521510000000  0.5003350000000  0.5462140000000 1.0
C      1  0.5511140000000  0.5434280000000  0.5133960000000 1.0
C      1  0.5518520000000  0.5263520000000  0.4623830000000 1.0
C      1  0.5518530000000  0.4729750000000  0.4633390000000 1.0
C      1  0.4919020000000  0.5330890000000  0.4504810000000 1.0
C      1  0.4918430000000  0.5560420000000  0.5120020000000 1.0
C      1  0.4919700000000  0.4992720000000  0.5644870000000 1.0
C      1  0.4917570000000  0.4469620000000  0.5252450000000 1.0
C      1  0.4919260000000  0.4645080000000  0.4500940000000 1.0
C      1  0.4914370000000  0.5272310000000  0.5521690000000 1.0
C      1  0.4910860000000  0.5580710000000  0.4813660000000 1.0
C      1  0.4909040000000  0.5026980000000  0.4397690000000 1.0
C      1  0.4913380000000  0.4480000000000  0.4757980000000 1.0
C      1  0.4908470000000  0.4620910000000  0.5520060000000 1.0
C      1  0.5397610000000  0.5684210000000  0.5250060000000 1.0
C      1  0.5432430000000  0.4969710000000  0.5747070000000 1.0
C      1  0.5398210000000  0.4297170000000  0.5201800000000 1.0
C      1  0.5423320000000  0.4592580000000  0.4383780000000 1.0
C      1  0.5413150000000  0.5453250000000  0.4416460000000 1.0
C      1  0.5385470000000  0.5673400000000  0.4723610000000 1.0
C      1  0.5378800000000  0.4955310000000  0.4278340000000 1.0
C      1  0.5366760000000  0.4309130000000  0.4822170000000 1.0
C      1  0.5392520000000  0.4612100000000  0.5625290000000 1.0
C      1  0.5368630000000  0.5454450000000  0.5552870000000 1.0
C      1  0.4438760000000  0.4576360000000  0.4822630000000 1.0
C      1  0.4411010000000  0.5043720000000  0.4424270000000 1.0
C      1  0.4410470000000  0.5517590000000  0.4837550000000 1.0
C      1  0.4440390000000  0.5229880000000  0.5420850000000 1.0
C      1  0.4403620000000  0.4642580000000  0.5471460000000 1.0
C      1  0.4438490000000  0.4559920000000  0.5198110000000 1.0
C      1  0.4412570000000  0.4996730000000  0.5587610000000 1.0
C      1  0.4438960000000  0.5447090000000  0.5114060000000 1.0
C      1  0.4418170000000  0.5311890000000  0.4521250000000 1.0
C      1  0.4418020000000  0.4691610000000  0.4560620000000 1.0
C      1  0.5139700000000  0.5795540000000  0.4817370000000 1.0
C      1  0.5132870000000  0.5375260000000  0.5703230000000 1.0
C      1  0.5150760000000  0.4450260000000  0.5628090000000 1.0
C      1  0.5126760000000  0.4289350000000  0.4659750000000 1.0
C      1  0.5135400000000  0.5092890000000  0.4198750000000 1.0
C      1  0.5137740000000  0.5774670000000  0.5138100000000 1.0
C      1  0.5148310000000  0.5387270000000  0.4297990000000 1.0
C      1  0.5160230000000  0.4458130000000  0.4391610000000 1.0
C      1  0.5142220000000  0.4286150000000  0.5352220000000 1.0
C      1  0.5172620000000  0.5085740000000  0.5828580000000 1.0
C      1  0.4660110000000  0.5575960000000  0.5255320000000 1.0
C      1  0.4644090000000  0.4898660000000  0.5744360000000 1.0
C      1  0.4660890000000  0.4377250000000  0.5149070000000 1.0
C      1  0.4644440000000  0.4670220000000  0.4372200000000 1.0
C      1  0.4653880000000  0.5475110000000  0.4469120000000 1.0
C      1  0.4636270000000  0.5651700000000  0.4704160000000 1.0
C      1  0.4643120000000  0.4947860000000  0.4277620000000 1.0
C      1  0.4657000000000  0.4386140000000  0.4856020000000 1.0
C      1  0.4633240000000  0.4616970000000  0.5655740000000 1.0
C      1  0.4659120000000  0.5406950000000  0.5494840000000 1.0
END
