TITL C-38196-2854-8 6.72873884088833e-05 125000 -366.092372010836 0 0 60 (C2) n - 1
REM
REM in /home/bkarasulu/CARBON/AIRSS/Generating-Clusters/EDIP-Nigel-Params/Higher-Symm/Box-15A/Only-C60/SD-CG/FIRE-HFTN
REM
REM
REM
REM
REM
REM ./C.cell (414f73aa93bd7a1190c7fd0f31ff2f98)
REM
REM compiler GCC version 9.2.1 20190827 (Red Hat 9.2.1-1)
REM options -cpp -mtune=generic -march=x86-64 -g -O0 -fpre-include=/usr/include/finclude/math-vector-fortran.h
REM seed 104027629 -1144517708 -688713499 -1978568831 -1428696236 1350306681 -6164480 2067255201 421403070 -1244576884 496481086 -606738699 -316754244 -2019842975 1748318108 58294478 524912021 -679413118 1863109025 -1642950954 -723807574 -903780210 -1707471820 900757699 855586478 96095058 1171809171 -768730888 -1040143432 -543795434 -229749730 615718730 -1628897244
REM
CELL 1.54180   50.00000   50.00000   50.00000   90.00000   90.00000   90.00000
LATT -1
SFAC C  
C      1  0.5482310000000  0.5601110000000  0.5153160000000 1.0
C      1  0.5482310000000  0.4398890000000  0.4846840000000 1.0
C      1  0.4933260000000  0.4852640000000  0.4755390000000 1.0
C      1  0.4933260000000  0.5147360000000  0.5244610000000 1.0
C      1  0.4390310000000  0.5321580000000  0.5202340000000 1.0
C      1  0.4390310000000  0.4678420000000  0.4797660000000 1.0
C      1  0.5255950000000  0.5788480000000  0.5149720000000 1.0
C      1  0.5255950000000  0.4211520000000  0.4850280000000 1.0
C      1  0.4397820000000  0.4546180000000  0.5071160000000 1.0
C      1  0.4397820000000  0.5453820000000  0.4928840000000 1.0
C      1  0.5653120000000  0.4905680000000  0.5408630000000 1.0
C      1  0.5653120000000  0.5094320000000  0.4591370000000 1.0
C      1  0.5418890000000  0.5394150000000  0.4918600000000 1.0
C      1  0.5418890000000  0.4605850000000  0.5081400000000 1.0
C      1  0.5214720000000  0.5144200000000  0.5322340000000 1.0
C      1  0.5214720000000  0.4855800000000  0.4677660000000 1.0
C      1  0.5533750000000  0.4656970000000  0.5362590000000 1.0
C      1  0.5533750000000  0.5343030000000  0.4637410000000 1.0
C      1  0.5031420000000  0.4303330000000  0.4694770000000 1.0
C      1  0.5031420000000  0.5696670000000  0.5305230000000 1.0
C      1  0.4388480000000  0.4760780000000  0.5286890000000 1.0
C      1  0.4388480000000  0.5239220000000  0.4713110000000 1.0
C      1  0.5381050000000  0.5445810000000  0.4430100000000 1.0
C      1  0.5381050000000  0.4554190000000  0.5569900000000 1.0
C      1  0.5475880000000  0.5425650000000  0.5405100000000 1.0
C      1  0.5475880000000  0.4574350000000  0.4594900000000 1.0
C      1  0.5135570000000  0.4423190000000  0.5580250000000 1.0
C      1  0.5135570000000  0.5576810000000  0.4419750000000 1.0
C      1  0.5102620000000  0.5476090000000  0.5492660000000 1.0
C      1  0.5102620000000  0.4523910000000  0.4507340000000 1.0
C      1  0.5650510000000  0.4837780000000  0.4705230000000 1.0
C      1  0.5650510000000  0.5162220000000  0.5294770000000 1.0
C      1  0.5420880000000  0.5131420000000  0.5080750000000 1.0
C      1  0.5420880000000  0.4868580000000  0.4919250000000 1.0
C      1  0.5052570000000  0.4316570000000  0.5325850000000 1.0
C      1  0.5052570000000  0.5683430000000  0.4674150000000 1.0
C      1  0.5127920000000  0.5517320000000  0.4916120000000 1.0
C      1  0.5127920000000  0.4482680000000  0.5083880000000 1.0
C      1  0.4396070000000  0.4976510000000  0.4857420000000 1.0
C      1  0.4396070000000  0.5023490000000  0.5142580000000 1.0
C      1  0.4832070000000  0.4689420000000  0.4521770000000 1.0
C      1  0.4832070000000  0.5310580000000  0.5478230000000 1.0
C      1  0.4741660000000  0.5683740000000  0.5207240000000 1.0
C      1  0.4741660000000  0.4316260000000  0.4792760000000 1.0
C      1  0.4644820000000  0.5617090000000  0.4927070000000 1.0
C      1  0.4644820000000  0.4382910000000  0.5072930000000 1.0
C      1  0.4593920000000  0.4720320000000  0.5493900000000 1.0
C      1  0.4593920000000  0.5279680000000  0.4506100000000 1.0
C      1  0.4844400000000  0.5130740000000  0.4747690000000 1.0
C      1  0.4844400000000  0.4869260000000  0.5252310000000 1.0
C      1  0.4692100000000  0.4456020000000  0.5574360000000 1.0
C      1  0.4692100000000  0.5543980000000  0.4425640000000 1.0
C      1  0.4933060000000  0.4714930000000  0.5026910000000 1.0
C      1  0.4933060000000  0.5285070000000  0.4973090000000 1.0
C      1  0.4759980000000  0.5710220000000  0.4667510000000 1.0
C      1  0.4759980000000  0.4289780000000  0.5332490000000 1.0
C      1  0.4915410000000  0.5538660000000  0.4246350000000 1.0
C      1  0.4915410000000  0.4461340000000  0.5753650000000 1.0
C      1  0.4599470000000  0.5479150000000  0.5382340000000 1.0
C      1  0.4599470000000  0.4520850000000  0.4617660000000 1.0
END
