TITL C-38193-7935-292 -1.20734436460051e-05 125000 -360.60755382651 0 0 60 (C1) n - 1
REM
REM in /home/bkarasulu/CARBON/AIRSS/Generating-Clusters/EDIP-Nigel-Params/Higher-Symm/Box-15A/Only-C60/SD-CG/FIRE-HFTN
REM
REM
REM
REM
REM
REM ./C.cell (414f73aa93bd7a1190c7fd0f31ff2f98)
REM
REM compiler GCC version 9.2.1 20190827 (Red Hat 9.2.1-1)
REM options -cpp -mtune=generic -march=x86-64 -g -O0 -fpre-include=/usr/include/finclude/math-vector-fortran.h
REM seed 886189118 -1711275556 -1901179554 1643875679 -280357331 -1600437931 -483753808 1128019927 -1685641358 -1545467195 -572138199 -1550132877 -552579315 -1616517293 -59166873 -1708156872 -1885433222 -1189838029 -1905772189 -1438767751 -1926766698 177083732 -1472380636 -1499668183 1348823648 -278741467 1030888794 1797314658 -6262865 -500108706 -1420705679 406928812 483346856
REM
CELL 1.54180   50.00000   50.00000   50.00000   90.00000   90.00000   90.00000
LATT -1
SFAC C  
C      1  0.4919390000000  0.4386660000000  0.4547150000000 1.0
C      1  0.4761200000000  0.5381960000000  0.5100330000000 1.0
C      1  0.5020930000000  0.5709080000000  0.4910540000000 1.0
C      1  0.5897950000000  0.4615910000000  0.5009350000000 1.0
C      1  0.5400100000000  0.5134620000000  0.5241620000000 1.0
C      1  0.5702150000000  0.5387890000000  0.4820580000000 1.0
C      1  0.4459160000000  0.5200230000000  0.5452000000000 1.0
C      1  0.4313960000000  0.4979050000000  0.5558380000000 1.0
C      1  0.4785910000000  0.4947130000000  0.5120550000000 1.0
C      1  0.4296320000000  0.5342800000000  0.5244920000000 1.0
C      1  0.4908090000000  0.5567030000000  0.5608950000000 1.0
C      1  0.4630070000000  0.4418840000000  0.4594580000000 1.0
C      1  0.4432740000000  0.4728860000000  0.4840250000000 1.0
C      1  0.5727160000000  0.4403580000000  0.5039150000000 1.0
C      1  0.4865080000000  0.4865550000000  0.5697350000000 1.0
C      1  0.5176590000000  0.5030100000000  0.4013840000000 1.0
C      1  0.4971160000000  0.5518300000000  0.4519190000000 1.0
C      1  0.5426690000000  0.5405140000000  0.5319850000000 1.0
C      1  0.4902580000000  0.5739930000000  0.5400250000000 1.0
C      1  0.4742770000000  0.5160320000000  0.5329260000000 1.0
C      1  0.4354570000000  0.4779260000000  0.5365760000000 1.0
C      1  0.4657390000000  0.4702050000000  0.5581870000000 1.0
C      1  0.5246550000000  0.5581890000000  0.4772090000000 1.0
C      1  0.5842840000000  0.4838900000000  0.5179170000000 1.0
C      1  0.5034130000000  0.4287610000000  0.4795160000000 1.0
C      1  0.4958940000000  0.5590600000000  0.5168480000000 1.0
C      1  0.4559290000000  0.5069670000000  0.4707670000000 1.0
C      1  0.4978330000000  0.5089370000000  0.5535230000000 1.0
C      1  0.4918470000000  0.5261210000000  0.4390970000000 1.0
C      1  0.4212610000000  0.5128460000000  0.5037180000000 1.0
C      1  0.5011820000000  0.4533770000000  0.5239980000000 1.0
C      1  0.5300880000000  0.4468010000000  0.5290920000000 1.0
C      1  0.5452420000000  0.5451730000000  0.4939950000000 1.0
C      1  0.5221420000000  0.4865720000000  0.4894920000000 1.0
C      1  0.4362880000000  0.5278860000000  0.4813370000000 1.0
C      1  0.4872310000000  0.4535630000000  0.5503150000000 1.0
C      1  0.4609430000000  0.4481760000000  0.4882870000000 1.0
C      1  0.5727980000000  0.4956540000000  0.4915040000000 1.0
C      1  0.5036600000000  0.4959350000000  0.4693800000000 1.0
C      1  0.5878180000000  0.5182160000000  0.4819660000000 1.0
C      1  0.4701470000000  0.4828900000000  0.4360300000000 1.0
C      1  0.4503560000000  0.4647770000000  0.4464460000000 1.0
C      1  0.5028050000000  0.5246870000000  0.4121740000000 1.0
C      1  0.5669070000000  0.4760760000000  0.5386070000000 1.0
C      1  0.4350230000000  0.4872350000000  0.5089290000000 1.0
C      1  0.5400580000000  0.4704440000000  0.5445610000000 1.0
C      1  0.5215620000000  0.4945570000000  0.5371230000000 1.0
C      1  0.5073310000000  0.5348540000000  0.5661750000000 1.0
C      1  0.4953640000000  0.4761510000000  0.4492540000000 1.0
C      1  0.5304430000000  0.4258490000000  0.4853840000000 1.0
C      1  0.5330860000000  0.5418460000000  0.5579320000000 1.0
C      1  0.5452480000000  0.4371210000000  0.5059560000000 1.0
C      1  0.4814310000000  0.5647590000000  0.4719200000000 1.0
C      1  0.4814290000000  0.5093100000000  0.4859080000000 1.0
C      1  0.5053290000000  0.4822150000000  0.5147270000000 1.0
C      1  0.5306620000000  0.5259810000000  0.4068750000000 1.0
C      1  0.5442050000000  0.5061360000000  0.4960760000000 1.0
C      1  0.4482350000000  0.5474930000000  0.5032980000000 1.0
C      1  0.4869610000000  0.4395310000000  0.5007870000000 1.0
C      1  0.4657160000000  0.5115360000000  0.4423020000000 1.0
END
