TITL C-38197-8510-288 3.96998186487909e-05 125000 -362.145629743959 0 0 60 (C1) n - 1
REM
REM in /home/bkarasulu/CARBON/AIRSS/Generating-Clusters/EDIP-Nigel-Params/Higher-Symm/Box-15A/Only-C60/SD-CG/FIRE-HFTN
REM
REM
REM
REM
REM
REM ./C.cell (414f73aa93bd7a1190c7fd0f31ff2f98)
REM
REM compiler GCC version 9.2.1 20190827 (Red Hat 9.2.1-1)
REM options -cpp -mtune=generic -march=x86-64 -g -O0 -fpre-include=/usr/include/finclude/math-vector-fortran.h
REM seed -1616613545 1293892466 -506254770 -1007955092 -1877060769 1930532649 121752031 -1797045546 -513548864 -1504571258 -1262161945 1765094274 1387571403 571205097 1041335187 1765742901 1840712344 455418859 -1107539628 -517600088 -1260797932 1070423116 -697332379 1493853118 -370913727 409198585 -662570374 -433106035 -2055543820 -855011773 -58945790 -1295965568 -647409467
REM
CELL 1.54180   50.00000   50.00000   50.00000   90.00000   90.00000   90.00000
LATT -1
SFAC C  
C      1  0.5576910000000  0.5623960000000  0.5330550000000 1.0
C      1  0.5728870000000  0.4632360000000  0.5304470000000 1.0
C      1  0.4857790000000  0.4160540000000  0.5254600000000 1.0
C      1  0.4139840000000  0.4877330000000  0.5231340000000 1.0
C      1  0.4561910000000  0.5738640000000  0.5222550000000 1.0
C      1  0.4589700000000  0.5336580000000  0.4756340000000 1.0
C      1  0.5203490000000  0.5566240000000  0.4704720000000 1.0
C      1  0.5582090000000  0.4978850000000  0.4703950000000 1.0
C      1  0.5186460000000  0.4452430000000  0.4698180000000 1.0
C      1  0.4600120000000  0.4644700000000  0.4748770000000 1.0
C      1  0.5101860000000  0.4462460000000  0.4957410000000 1.0
C      1  0.4569450000000  0.4711920000000  0.5015610000000 1.0
C      1  0.4521230000000  0.5298150000000  0.5018210000000 1.0
C      1  0.5333840000000  0.5538790000000  0.4941550000000 1.0
C      1  0.5723050000000  0.4917680000000  0.4922280000000 1.0
C      1  0.4284060000000  0.5378180000000  0.5412670000000 1.0
C      1  0.5098990000000  0.5770660000000  0.5304260000000 1.0
C      1  0.5742580000000  0.5120790000000  0.5351380000000 1.0
C      1  0.5318000000000  0.4313080000000  0.5320590000000 1.0
C      1  0.4391980000000  0.4477050000000  0.5379970000000 1.0
C      1  0.5488670000000  0.4523730000000  0.5210200000000 1.0
C      1  0.4665180000000  0.4355880000000  0.5324360000000 1.0
C      1  0.4263160000000  0.5078200000000  0.5392070000000 1.0
C      1  0.4836290000000  0.5671070000000  0.5211450000000 1.0
C      1  0.5603910000000  0.5353950000000  0.5242990000000 1.0
C      1  0.4639380000000  0.4995890000000  0.4401510000000 1.0
C      1  0.4887720000000  0.5409420000000  0.4352110000000 1.0
C      1  0.5343220000000  0.5237920000000  0.4346340000000 1.0
C      1  0.5341940000000  0.4753070000000  0.4332550000000 1.0
C      1  0.4888100000000  0.4585080000000  0.4332810000000 1.0
C      1  0.4862690000000  0.5395860000000  0.5282710000000 1.0
C      1  0.5324440000000  0.5255960000000  0.5203780000000 1.0
C      1  0.5284100000000  0.4732060000000  0.5171490000000 1.0
C      1  0.4787710000000  0.4613050000000  0.5234700000000 1.0
C      1  0.4543410000000  0.5039750000000  0.5308760000000 1.0
C      1  0.4657450000000  0.5275750000000  0.5465030000000 1.0
C      1  0.5134050000000  0.5398090000000  0.5398250000000 1.0
C      1  0.5386150000000  0.4981860000000  0.5337170000000 1.0
C      1  0.5081290000000  0.4610790000000  0.5370230000000 1.0
C      1  0.4627820000000  0.4778480000000  0.5451990000000 1.0
C      1  0.5079880000000  0.4754600000000  0.5633550000000 1.0
C      1  0.4806520000000  0.4856460000000  0.5684220000000 1.0
C      1  0.4820150000000  0.5155460000000  0.5696950000000 1.0
C      1  0.5108330000000  0.5233050000000  0.5654960000000 1.0
C      1  0.5263720000000  0.4983070000000  0.5613040000000 1.0
C      1  0.5211990000000  0.5153260000000  0.4088250000000 1.0
C      1  0.5211480000000  0.4850680000000  0.4079180000000 1.0
C      1  0.4922200000000  0.4755100000000  0.4083860000000 1.0
C      1  0.4748790000000  0.5002010000000  0.4121070000000 1.0
C      1  0.4922820000000  0.5249270000000  0.4096700000000 1.0
C      1  0.5168610000000  0.5466110000000  0.4446480000000 1.0
C      1  0.5388420000000  0.4989960000000  0.4506740000000 1.0
C      1  0.5167850000000  0.4523830000000  0.4429040000000 1.0
C      1  0.4729280000000  0.4745960000000  0.4525430000000 1.0
C      1  0.4727940000000  0.5240480000000  0.4537120000000 1.0
C      1  0.5104380000000  0.4235980000000  0.5140520000000 1.0
C      1  0.4312440000000  0.4659320000000  0.5164140000000 1.0
C      1  0.4405440000000  0.5504690000000  0.5183530000000 1.0
C      1  0.5352200000000  0.5710150000000  0.5174120000000 1.0
C      1  0.5788650000000  0.4884330000000  0.5191210000000 1.0
END
