TITL C-38185-7677-9 -0.107978723080881 125000 -350.231869049757 0 0 60 (C1) n - 1
REM
REM in /home/bkarasulu/CARBON/AIRSS/Generating-Clusters/EDIP-Nigel-Params/Higher-Symm/Box-15A/Only-C60/SD-CG/FIRE-HFTN
REM
REM
REM
REM
REM
REM ./C.cell (414f73aa93bd7a1190c7fd0f31ff2f98)
REM
REM compiler GCC version 9.2.1 20190827 (Red Hat 9.2.1-1)
REM options -cpp -mtune=generic -march=x86-64 -g -O0 -fpre-include=/usr/include/finclude/math-vector-fortran.h
REM seed 951553862 -345016826 642501777 2120413270 1111922490 -200951170 -1973372486 337508317 1988726255 586236750 822851155 717814734 -1471832272 1754355653 1986209008 -1367686075 1158702479 1808206776 -179654874 -867810804 -1946503315 1757571630 -173127436 1413658668 906302955 -913721485 -125444713 1952096041 850525075 2063377496 1724397176 859489143 -102609137
REM
CELL 1.54180   50.00000   50.00000   50.00000   90.00000   90.00000   90.00000
LATT -1
SFAC C  
C      1  0.4677020000000  0.4616060000000  0.5314470000000 1.0
C      1  0.4722810000000  0.4626430000000  0.4788660000000 1.0
C      1  0.4919480000000  0.4624320000000  0.4570870000000 1.0
C      1  0.5203150000000  0.4527550000000  0.4626350000000 1.0
C      1  0.5390270000000  0.4731310000000  0.4794670000000 1.0
C      1  0.5364340000000  0.4709090000000  0.5102160000000 1.0
C      1  0.4939750000000  0.4667200000000  0.5452720000000 1.0
C      1  0.5192540000000  0.4265000000000  0.4778130000000 1.0
C      1  0.5374320000000  0.4252850000000  0.4990790000000 1.0
C      1  0.5356660000000  0.4439250000000  0.5202620000000 1.0
C      1  0.5114330000000  0.4412070000000  0.5373590000000 1.0
C      1  0.4677160000000  0.4346810000000  0.5200510000000 1.0
C      1  0.4700880000000  0.4348730000000  0.4907680000000 1.0
C      1  0.4935130000000  0.4177240000000  0.4878000000000 1.0
C      1  0.5664740000000  0.4711340000000  0.4717500000000 1.0
C      1  0.5475780000000  0.4896940000000  0.5298780000000 1.0
C      1  0.4894800000000  0.4660580000000  0.5737470000000 1.0
C      1  0.4439500000000  0.4714750000000  0.5415570000000 1.0
C      1  0.4463010000000  0.4709830000000  0.4703330000000 1.0
C      1  0.4829010000000  0.4733880000000  0.4328290000000 1.0
C      1  0.5329610000000  0.4502070000000  0.4370440000000 1.0
C      1  0.5176980000000  0.5551270000000  0.4812490000000 1.0
C      1  0.5334380000000  0.5327650000000  0.4954910000000 1.0
C      1  0.5331030000000  0.5370640000000  0.5263700000000 1.0
C      1  0.5090990000000  0.5555870000000  0.5248770000000 1.0
C      1  0.4843970000000  0.5402870000000  0.5158690000000 1.0
C      1  0.4721320000000  0.5529240000000  0.4933780000000 1.0
C      1  0.4900250000000  0.5459730000000  0.4723110000000 1.0
C      1  0.4127780000000  0.4866240000000  0.5754480000000 1.0
C      1  0.4432070000000  0.5100550000000  0.4912830000000 1.0
C      1  0.4652820000000  0.5182730000000  0.4384840000000 1.0
C      1  0.5202800000000  0.5028870000000  0.4244460000000 1.0
C      1  0.5708150000000  0.5195030000000  0.4785730000000 1.0
C      1  0.5404480000000  0.5099460000000  0.5689270000000 1.0
C      1  0.4839590000000  0.5127200000000  0.5619930000000 1.0
C      1  0.4254290000000  0.4883600000000  0.4779110000000 1.0
C      1  0.4649970000000  0.4925870000000  0.4222880000000 1.0
C      1  0.5383930000000  0.4697860000000  0.4182750000000 1.0
C      1  0.5798750000000  0.4949370000000  0.4667160000000 1.0
C      1  0.5581650000000  0.4789760000000  0.5546230000000 1.0
C      1  0.4788790000000  0.4902890000000  0.5833420000000 1.0
C      1  0.4205630000000  0.4841880000000  0.5483000000000 1.0
C      1  0.5188580000000  0.4836630000000  0.4042580000000 1.0
C      1  0.5668790000000  0.5156620000000  0.4519210000000 1.0
C      1  0.5622520000000  0.4949250000000  0.5766940000000 1.0
C      1  0.4930620000000  0.5144890000000  0.5892020000000 1.0
C      1  0.3990080000000  0.4696810000000  0.5596340000000 1.0
C      1  0.4149610000000  0.5114050000000  0.4907280000000 1.0
C      1  0.4478040000000  0.5146530000000  0.4163140000000 1.0
C      1  0.4900170000000  0.5106560000000  0.5112570000000 1.0
C      1  0.4718790000000  0.5011140000000  0.4865980000000 1.0
C      1  0.4849230000000  0.5172080000000  0.4616230000000 1.0
C      1  0.5102430000000  0.5025140000000  0.4516900000000 1.0
C      1  0.5313710000000  0.5015420000000  0.4721220000000 1.0
C      1  0.5294070000000  0.5103060000000  0.5414020000000 1.0
C      1  0.4994910000000  0.4992530000000  0.5398630000000 1.0
C      1  0.5148630000000  0.5759520000000  0.5030350000000 1.0
C      1  0.5164150000000  0.5082380000000  0.4971970000000 1.0
C      1  0.4933330000000  0.4214500000000  0.5260160000000 1.0
C      1  0.5365340000000  0.5908600000000  0.5076480000000 1.0
END
