TITL C-38191-7580-221 0.00018908020562439 125000 -362.143119732946 0 0 60 (C1) n - 1
REM
REM in /home/bkarasulu/CARBON/AIRSS/Generating-Clusters/EDIP-Nigel-Params/Higher-Symm/Box-15A/Only-C60/SD-CG/FIRE-HFTN
REM
REM
REM
REM
REM
REM ./C.cell (414f73aa93bd7a1190c7fd0f31ff2f98)
REM
REM compiler GCC version 9.2.1 20190827 (Red Hat 9.2.1-1)
REM options -cpp -mtune=generic -march=x86-64 -g -O0 -fpre-include=/usr/include/finclude/math-vector-fortran.h
REM seed -1430073076 -361278318 -455140606 289467875 -1447447451 -118601413 806043121 -1468797440 1312743120 -1056053104 704159282 280216148 1562172559 -1735509262 36009504 -400984859 -1104612387 920263404 2111037740 153360093 -1517676967 -1778355736 1359892043 -1493332504 -761617978 -204040615 -2120768260 1806603044 1293295803 -1290619834 -1818932832 9149011 241282932
REM
CELL 1.54180   50.00000   50.00000   50.00000   90.00000   90.00000   90.00000
LATT -1
SFAC C  
C      1  0.5132780000000  0.4200320000000  0.4764840000000 1.0
C      1  0.5149000000000  0.5864980000000  0.4786680000000 1.0
C      1  0.5460540000000  0.4794410000000  0.4334990000000 1.0
C      1  0.5457340000000  0.5267710000000  0.4372190000000 1.0
C      1  0.5326990000000  0.5770710000000  0.4961750000000 1.0
C      1  0.5303300000000  0.4313450000000  0.4935950000000 1.0
C      1  0.5484170000000  0.4903770000000  0.5306100000000 1.0
C      1  0.5604900000000  0.5200810000000  0.5382020000000 1.0
C      1  0.4869920000000  0.4757140000000  0.5671380000000 1.0
C      1  0.4863690000000  0.5261370000000  0.5586080000000 1.0
C      1  0.4674270000000  0.4708300000000  0.5276870000000 1.0
C      1  0.4662500000000  0.5310340000000  0.5062740000000 1.0
C      1  0.5128650000000  0.5175460000000  0.5029270000000 1.0
C      1  0.5142350000000  0.4709440000000  0.5018800000000 1.0
C      1  0.5592390000000  0.4747890000000  0.4816900000000 1.0
C      1  0.5592920000000  0.5227040000000  0.4848740000000 1.0
C      1  0.4372740000000  0.5228590000000  0.5091820000000 1.0
C      1  0.4377860000000  0.4767340000000  0.5208630000000 1.0
C      1  0.5110560000000  0.4666730000000  0.5522920000000 1.0
C      1  0.5133240000000  0.5278940000000  0.5470620000000 1.0
C      1  0.5408910000000  0.4461310000000  0.5143110000000 1.0
C      1  0.5360310000000  0.5589300000000  0.5167910000000 1.0
C      1  0.4944530000000  0.4196990000000  0.4576700000000 1.0
C      1  0.4928740000000  0.5846820000000  0.4637360000000 1.0
C      1  0.4490680000000  0.5249550000000  0.4505590000000 1.0
C      1  0.4504320000000  0.4764980000000  0.4422350000000 1.0
C      1  0.4705870000000  0.5443150000000  0.5426440000000 1.0
C      1  0.4681780000000  0.4541600000000  0.5630520000000 1.0
C      1  0.4781000000000  0.4345270000000  0.4425910000000 1.0
C      1  0.4742600000000  0.5694740000000  0.4519500000000 1.0
C      1  0.4718870000000  0.5418580000000  0.4503600000000 1.0
C      1  0.4742960000000  0.4619820000000  0.4424360000000 1.0
C      1  0.4837660000000  0.4781090000000  0.5028000000000 1.0
C      1  0.4852200000000  0.5079790000000  0.4944940000000 1.0
C      1  0.5382590000000  0.4785820000000  0.5570470000000 1.0
C      1  0.5393480000000  0.5227040000000  0.5600030000000 1.0
C      1  0.4257050000000  0.4926380000000  0.5438100000000 1.0
C      1  0.4277710000000  0.5207310000000  0.5363890000000 1.0
C      1  0.5235530000000  0.5328950000000  0.4539640000000 1.0
C      1  0.5241970000000  0.4703680000000  0.4491320000000 1.0
C      1  0.4962180000000  0.5271640000000  0.4451460000000 1.0
C      1  0.4972870000000  0.4791250000000  0.4423140000000 1.0
C      1  0.4842750000000  0.5539550000000  0.5191730000000 1.0
C      1  0.4770220000000  0.4421090000000  0.5382640000000 1.0
C      1  0.5302350000000  0.4822930000000  0.4762070000000 1.0
C      1  0.5309200000000  0.5158490000000  0.4782310000000 1.0
C      1  0.5056820000000  0.4405750000000  0.5406860000000 1.0
C      1  0.5120330000000  0.5422090000000  0.5212180000000 1.0
C      1  0.5592830000000  0.5411830000000  0.5173670000000 1.0
C      1  0.5602970000000  0.4682380000000  0.5113670000000 1.0
C      1  0.5717850000000  0.5000410000000  0.4703450000000 1.0
C      1  0.5604420000000  0.5026450000000  0.4417480000000 1.0
C      1  0.4374900000000  0.4990440000000  0.4527640000000 1.0
C      1  0.5213930000000  0.4942920000000  0.5191980000000 1.0
C      1  0.4451080000000  0.4999690000000  0.5644450000000 1.0
C      1  0.4366380000000  0.4959560000000  0.4970890000000 1.0
C      1  0.5389170000000  0.4995310000000  0.5764210000000 1.0
C      1  0.4202790000000  0.4932150000000  0.4741600000000 1.0
C      1  0.4911400000000  0.5025010000000  0.4572280000000 1.0
C      1  0.4732850000000  0.5001520000000  0.5595700000000 1.0
END
