TITL C-38192-7909-542 8.78906679014006e-06 125000 -353.843235475038 0 0 60 (C1) n - 1
REM
REM in /home/bkarasulu/CARBON/AIRSS/Generating-Clusters/EDIP-Nigel-Params/Higher-Symm/Box-15A/Only-C60/SD-CG/FIRE-HFTN
REM
REM
REM
REM
REM
REM ./C.cell (414f73aa93bd7a1190c7fd0f31ff2f98)
REM
REM compiler GCC version 9.2.1 20190827 (Red Hat 9.2.1-1)
REM options -cpp -mtune=generic -march=x86-64 -g -O0 -fpre-include=/usr/include/finclude/math-vector-fortran.h
REM seed 529364990 226602726 -1806099492 1939026821 -1992278638 -996531618 1521701931 1479397705 -1789168018 -1351406852 790770916 774391810 1752128588 -2066348869 1617193310 284083705 -517554632 1851192601 -1330178170 997200091 -1161497789 -200921396 1857340780 -2000213522 -999080743 -1223188294 2135776489 -1258725994 -851430292 1825467849 -1857515934 -831970517 -1031261691
REM
CELL 1.54180   50.00000   50.00000   50.00000   90.00000   90.00000   90.00000
LATT -1
SFAC C  
C      1  0.4941520000000  0.4681260000000  0.4327160000000 1.0
C      1  0.4955470000000  0.4258040000000  0.4842830000000 1.0
C      1  0.4981320000000  0.4396550000000  0.5506610000000 1.0
C      1  0.5034090000000  0.5017950000000  0.5763070000000 1.0
C      1  0.5045070000000  0.5581580000000  0.5443180000000 1.0
C      1  0.5001220000000  0.5734810000000  0.4771600000000 1.0
C      1  0.4884180000000  0.5327230000000  0.4279220000000 1.0
C      1  0.5397660000000  0.5028380000000  0.5372480000000 1.0
C      1  0.5558870000000  0.5238350000000  0.5186830000000 1.0
C      1  0.5503400000000  0.5228410000000  0.4881300000000 1.0
C      1  0.5559840000000  0.4973150000000  0.4740910000000 1.0
C      1  0.5727860000000  0.4852100000000  0.4959010000000 1.0
C      1  0.5541180000000  0.4658100000000  0.5093360000000 1.0
C      1  0.5496560000000  0.4742880000000  0.5368070000000 1.0
C      1  0.4739740000000  0.4485090000000  0.4445000000000 1.0
C      1  0.4796120000000  0.4192500000000  0.5084830000000 1.0
C      1  0.4712620000000  0.4483390000000  0.5648160000000 1.0
C      1  0.4811390000000  0.5191260000000  0.5697070000000 1.0
C      1  0.4853520000000  0.5744720000000  0.5277440000000 1.0
C      1  0.4715530000000  0.5703800000000  0.4638090000000 1.0
C      1  0.4698500000000  0.5134290000000  0.4163860000000 1.0
C      1  0.4501420000000  0.4768170000000  0.4427010000000 1.0
C      1  0.4541700000000  0.4406700000000  0.4897820000000 1.0
C      1  0.4508650000000  0.4477310000000  0.5393200000000 1.0
C      1  0.4612450000000  0.4984060000000  0.5627330000000 1.0
C      1  0.4612270000000  0.5450520000000  0.5345340000000 1.0
C      1  0.4542210000000  0.5617260000000  0.4891390000000 1.0
C      1  0.4458120000000  0.5313120000000  0.4411800000000 1.0
C      1  0.4740630000000  0.4910600000000  0.4340710000000 1.0
C      1  0.4769320000000  0.4447580000000  0.4727040000000 1.0
C      1  0.4790220000000  0.4428730000000  0.5262970000000 1.0
C      1  0.4753430000000  0.4757200000000  0.5745480000000 1.0
C      1  0.4855690000000  0.5346730000000  0.5459930000000 1.0
C      1  0.4834210000000  0.5624270000000  0.5006080000000 1.0
C      1  0.4700290000000  0.5460780000000  0.4462070000000 1.0
C      1  0.4348510000000  0.5201400000000  0.4657520000000 1.0
C      1  0.4366040000000  0.4894160000000  0.4668240000000 1.0
C      1  0.4400070000000  0.4658910000000  0.4970990000000 1.0
C      1  0.4400320000000  0.4722350000000  0.5264760000000 1.0
C      1  0.4529570000000  0.4976440000000  0.5341030000000 1.0
C      1  0.4480510000000  0.5237090000000  0.5195970000000 1.0
C      1  0.4450840000000  0.5337740000000  0.4909820000000 1.0
C      1  0.5197210000000  0.5550420000000  0.4702270000000 1.0
C      1  0.5079020000000  0.5180520000000  0.4419860000000 1.0
C      1  0.5197120000000  0.4689220000000  0.4457960000000 1.0
C      1  0.5200720000000  0.4378870000000  0.4896550000000 1.0
C      1  0.5150710000000  0.4618480000000  0.5432230000000 1.0
C      1  0.5274160000000  0.5101040000000  0.5630130000000 1.0
C      1  0.5274330000000  0.5490260000000  0.5275060000000 1.0
C      1  0.5265250000000  0.4652700000000  0.4962180000000 1.0
C      1  0.5071920000000  0.4755690000000  0.5179680000000 1.0
C      1  0.5108260000000  0.5048020000000  0.5280270000000 1.0
C      1  0.5118560000000  0.5303820000000  0.5108810000000 1.0
C      1  0.5225250000000  0.5296690000000  0.4839600000000 1.0
C      1  0.5093250000000  0.5071230000000  0.4690700000000 1.0
C      1  0.5284550000000  0.4833030000000  0.4699420000000 1.0
C      1  0.5818360000000  0.5071500000000  0.5152170000000 1.0
C      1  0.4580340000000  0.4916270000000  0.4905120000000 1.0
C      1  0.6037630000000  0.5205350000000  0.5079240000000 1.0
C      1  0.4843710000000  0.4984270000000  0.4812320000000 1.0
END
