TITL C-38184-643-290 -1.66382529289726e-06 125000 -368.16521517048 0 0 60 (C3) n - 1
REM
REM in /home/bkarasulu/CARBON/AIRSS/Generating-Clusters/EDIP-Nigel-Params/Higher-Symm/Box-15A/Only-C60/SD-CG/FIRE-HFTN
REM
REM
REM
REM
REM
REM ./C.cell (414f73aa93bd7a1190c7fd0f31ff2f98)
REM
REM compiler GCC version 9.2.1 20190827 (Red Hat 9.2.1-1)
REM options -cpp -mtune=generic -march=x86-64 -g -O0 -fpre-include=/usr/include/finclude/math-vector-fortran.h
REM seed 1677291821 1355322818 -260142025 -274493669 -719359267 -82332000 1895563334 1479968952 963156123 -1702547221 -1123818538 -738404452 462067768 -981342689 -43350120 872274940 -610591608 -2086462076 2099454604 -805537259 655685178 -1001526598 -1771750498 1373138111 431426836 287537869 190698414 -1252057260 645294437 1499550634 743430483 455474961 974691143
REM
CELL 1.54180   50.00000   50.00000   50.00000   90.00000   90.00000   90.00000
LATT -1
SFAC C  
C      1  0.4903330000000  0.5574590000000  0.5478830000000 1.0
C      1  0.4903330000000  0.5127390000000  0.4262980000000 1.0
C      1  0.4903330000000  0.4298030000000  0.5258190000000 1.0
C      1  0.4762490000000  0.5511210000000  0.4589130000000 1.0
C      1  0.4762490000000  0.4388570000000  0.4762720000000 1.0
C      1  0.4762490000000  0.5100220000000  0.5648150000000 1.0
C      1  0.4352270000000  0.4899190000000  0.5448490000000 1.0
C      1  0.4352270000000  0.5438810000000  0.4863050000000 1.0
C      1  0.4352270000000  0.4662000000000  0.4688450000000 1.0
C      1  0.4509310000000  0.4893420000000  0.4705950000000 1.0
C      1  0.4509310000000  0.4798640000000  0.5239330000000 1.0
C      1  0.4509310000000  0.5307940000000  0.5054720000000 1.0
C      1  0.4903630000000  0.5571940000000  0.4859180000000 1.0
C      1  0.4903630000000  0.4592080000000  0.4575090000000 1.0
C      1  0.4903630000000  0.4835980000000  0.5565720000000 1.0
C      1  0.4632920000000  0.4337010000000  0.5301470000000 1.0
C      1  0.4632920000000  0.5592570000000  0.5423430000000 1.0
C      1  0.4632920000000  0.5070420000000  0.4275100000000 1.0
C      1  0.5264960000000  0.4623470000000  0.5413600000000 1.0
C      1  0.5264960000000  0.5546460000000  0.5119290000000 1.0
C      1  0.5264960000000  0.4830080000000  0.4467110000000 1.0
C      1  0.4809550000000  0.4842970000000  0.4738070000000 1.0
C      1  0.4809550000000  0.4851670000000  0.5266960000000 1.0
C      1  0.4809550000000  0.5305350000000  0.4994980000000 1.0
C      1  0.4950740000000  0.5124240000000  0.4746340000000 1.0
C      1  0.4950740000000  0.4718210000000  0.5019230000000 1.0
C      1  0.4950740000000  0.5157550000000  0.5234420000000 1.0
C      1  0.5605910000000  0.4748170000000  0.4876380000000 1.0
C      1  0.5605910000000  0.5018860000000  0.5279900000000 1.0
C      1  0.5605910000000  0.5232970000000  0.4843720000000 1.0
C      1  0.4465490000000  0.4513240000000  0.5156520000000 1.0
C      1  0.4465490000000  0.5378940000000  0.5343280000000 1.0
C      1  0.4465490000000  0.5107830000000  0.4500190000000 1.0
C      1  0.5453400000000  0.5276130000000  0.4430700000000 1.0
C      1  0.5453400000000  0.4368910000000  0.5045510000000 1.0
C      1  0.5453400000000  0.5354960000000  0.5523790000000 1.0
C      1  0.5078390000000  0.5672130000000  0.5286240000000 1.0
C      1  0.5078390000000  0.4911830000000  0.4274800000000 1.0
C      1  0.5078390000000  0.4416050000000  0.5438960000000 1.0
C      1  0.5504230000000  0.5452870000000  0.5262460000000 1.0
C      1  0.5504230000000  0.5000860000000  0.4476580000000 1.0
C      1  0.5504230000000  0.4546270000000  0.5260970000000 1.0
C      1  0.5665470000000  0.4765320000000  0.5158820000000 1.0
C      1  0.5665470000000  0.5254880000000  0.5123820000000 1.0
C      1  0.5665470000000  0.4979790000000  0.4717360000000 1.0
C      1  0.5200520000000  0.4586800000000  0.4630460000000 1.0
C      1  0.5200520000000  0.4886570000000  0.5542610000000 1.0
C      1  0.5200520000000  0.5526630000000  0.4826930000000 1.0
C      1  0.4960310000000  0.5303220000000  0.4497090000000 1.0
C      1  0.4960310000000  0.4412860000000  0.4988850000000 1.0
C      1  0.4960310000000  0.5283920000000  0.5514050000000 1.0
C      1  0.4488960000000  0.4475880000000  0.4854650000000 1.0
C      1  0.4488960000000  0.5136180000000  0.5526580000000 1.0
C      1  0.4488960000000  0.5387940000000  0.4618770000000 1.0
C      1  0.5234910000000  0.5421130000000  0.4537090000000 1.0
C      1  0.5234910000000  0.4388540000000  0.4866750000000 1.0
C      1  0.5234910000000  0.5190330000000  0.5596160000000 1.0
C      1  0.5253210000000  0.5086060000000  0.4826920000000 1.0
C      1  0.5253210000000  0.4807080000000  0.5012010000000 1.0
C      1  0.5253210000000  0.5106860000000  0.5161070000000 1.0
END
