TITL C-38197-8510-379 -2.41376627777856e-05 125000 -355.891431300915 0 0 60 (D3h) n - 1
REM
REM in /home/bkarasulu/CARBON/AIRSS/Generating-Clusters/EDIP-Nigel-Params/Higher-Symm/Box-15A/Only-C60/SD-CG/FIRE-HFTN
REM
REM
REM
REM
REM
REM ./C.cell (414f73aa93bd7a1190c7fd0f31ff2f98)
REM
REM compiler GCC version 9.2.1 20190827 (Red Hat 9.2.1-1)
REM options -cpp -mtune=generic -march=x86-64 -g -O0 -fpre-include=/usr/include/finclude/math-vector-fortran.h
REM seed 833713766 -645936054 1287252748 -10952527 490224924 6006492 -2127636574 -271084753 976536968 -1500281752 -1238417918 1217148770 1442411054 1704733058 51283641 118017157 -1343550415 1559824483 -895976631 34848872 1888275238 1871320827 -400733781 121064576 1381333302 1144875142 -670413036 -945041199 -571079183 1046412995 -25271893 -769027173 -1193483167
REM
CELL 1.54180   50.00000   50.00000   50.00000   90.00000   90.00000   90.00000
LATT -1
SFAC C  
C      1  0.5651180000000  0.4970610000000  0.5558360000000 1.0
C      1  0.5650520000000  0.4531300000000  0.4695360000000 1.0
C      1  0.5651120000000  0.5498240000000  0.4746310000000 1.0
C      1  0.4349340000000  0.4970520000000  0.5558220000000 1.0
C      1  0.4348680000000  0.4531150000000  0.4695370000000 1.0
C      1  0.4349270000000  0.5498170000000  0.4746370000000 1.0
C      1  0.5650520000000  0.4970520000000  0.4441770000000 1.0
C      1  0.5651120000000  0.4531180000000  0.5304650000000 1.0
C      1  0.5651180000000  0.5498240000000  0.5253730000000 1.0
C      1  0.4348680000000  0.4970610000000  0.4441640000000 1.0
C      1  0.4349270000000  0.4531270000000  0.5304610000000 1.0
C      1  0.4349340000000  0.5498170000000  0.5253580000000 1.0
C      1  0.4806210000000  0.5655250000000  0.5248650000000 1.0
C      1  0.4806170000000  0.4457030000000  0.5442980000000 1.0
C      1  0.4804180000000  0.4886070000000  0.4304620000000 1.0
C      1  0.5195700000000  0.5659120000000  0.5249060000000 1.0
C      1  0.5195660000000  0.4454780000000  0.5446390000000 1.0
C      1  0.5193660000000  0.4887790000000  0.4308260000000 1.0
C      1  0.4806170000000  0.5655110000000  0.4751260000000 1.0
C      1  0.4804180000000  0.4454750000000  0.4553640000000 1.0
C      1  0.4806210000000  0.4887710000000  0.5691790000000 1.0
C      1  0.5195660000000  0.5659200000000  0.4751020000000 1.0
C      1  0.5193660000000  0.4457040000000  0.4556950000000 1.0
C      1  0.5195700000000  0.4886130000000  0.5695350000000 1.0
C      1  0.5152580000000  0.4946670000000  0.4589970000000 1.0
C      1  0.5150610000000  0.5386960000000  0.5158720000000 1.0
C      1  0.5150570000000  0.4669070000000  0.5255780000000 1.0
C      1  0.4849310000000  0.4943970000000  0.4585490000000 1.0
C      1  0.4847370000000  0.5381830000000  0.5158910000000 1.0
C      1  0.4847300000000  0.4671600000000  0.5251200000000 1.0
C      1  0.5150610000000  0.4943980000000  0.5414470000000 1.0
C      1  0.5150570000000  0.5386980000000  0.4841290000000 1.0
C      1  0.5152580000000  0.4671570000000  0.4748800000000 1.0
C      1  0.4847370000000  0.4946700000000  0.5410120000000 1.0
C      1  0.4847300000000  0.5381740000000  0.4841200000000 1.0
C      1  0.4849310000000  0.4669040000000  0.4744220000000 1.0
C      1  0.5470750000000  0.4784190000000  0.5678500000000 1.0
C      1  0.5468670000000  0.4520940000000  0.4474930000000 1.0
C      1  0.5470730000000  0.5695520000000  0.4847710000000 1.0
C      1  0.4531190000000  0.4784770000000  0.5677370000000 1.0
C      1  0.4529110000000  0.4520350000000  0.4473850000000 1.0
C      1  0.4531170000000  0.5694200000000  0.4847620000000 1.0
C      1  0.5468670000000  0.4784800000000  0.4322590000000 1.0
C      1  0.5470730000000  0.4520360000000  0.5526190000000 1.0
C      1  0.5470750000000  0.5695500000000  0.5152360000000 1.0
C      1  0.4529110000000  0.4784170000000  0.4321540000000 1.0
C      1  0.4531170000000  0.4520930000000  0.5525000000000 1.0
C      1  0.4531190000000  0.5694230000000  0.5152290000000 1.0
C      1  0.5710730000000  0.4752150000000  0.5143930000000 1.0
C      1  0.5710970000000  0.4999330000000  0.4713360000000 1.0
C      1  0.5710840000000  0.5248570000000  0.5142740000000 1.0
C      1  0.4288690000000  0.4752060000000  0.5143900000000 1.0
C      1  0.4288930000000  0.4999290000000  0.4713350000000 1.0
C      1  0.4288810000000  0.5248590000000  0.5142700000000 1.0
C      1  0.5710970000000  0.4752100000000  0.4856100000000 1.0
C      1  0.5710840000000  0.4999330000000  0.5286640000000 1.0
C      1  0.5710730000000  0.5248570000000  0.4857320000000 1.0
C      1  0.4288930000000  0.4752100000000  0.4856060000000 1.0
C      1  0.4288810000000  0.4999290000000  0.5286640000000 1.0
C      1  0.4288690000000  0.5248590000000  0.4857230000000 1.0
END
