TITL C-38186-4112-442 1.12509098505533e-05 125000 -360.591407888152 0 0 60 (Ci) n - 1
REM
REM in /home/bkarasulu/CARBON/AIRSS/Generating-Clusters/EDIP-Nigel-Params/Higher-Symm/Box-15A/Only-C60/SD-CG/FIRE-HFTN
REM
REM
REM
REM
REM
REM ./C.cell (414f73aa93bd7a1190c7fd0f31ff2f98)
REM
REM compiler GCC version 9.2.1 20190827 (Red Hat 9.2.1-1)
REM options -cpp -mtune=generic -march=x86-64 -g -O0 -fpre-include=/usr/include/finclude/math-vector-fortran.h
REM seed -595574060 -703711278 -275909211 -256399499 -424129642 -569143065 1765812577 1014950326 544545784 -733335096 638802411 1825381819 177993939 470789897 2119466782 1928014522 1478477292 -1463461206 -1284232043 -1085013813 513941293 206616353 251823332 -1850152297 -1687008167 -275845341 1615028152 1956153669 345029431 986689000 1266542094 -1377908072 663601924
REM
CELL 1.54180   50.00000   50.00000   50.00000   90.00000   90.00000   90.00000
LATT -1
SFAC C  
C      1  0.5579420000000  0.5520400000000  0.4960280000000 1.0
C      1  0.4420580000000  0.4479600000000  0.5039720000000 1.0
C      1  0.5268330000000  0.5557630000000  0.5330880000000 1.0
C      1  0.4731670000000  0.4442370000000  0.4669120000000 1.0
C      1  0.5359490000000  0.5689370000000  0.5081770000000 1.0
C      1  0.4640510000000  0.4310630000000  0.4918230000000 1.0
C      1  0.5570610000000  0.5169620000000  0.5407640000000 1.0
C      1  0.4429390000000  0.4830380000000  0.4592360000000 1.0
C      1  0.5357290000000  0.4621490000000  0.5022220000000 1.0
C      1  0.4642710000000  0.5378510000000  0.4977780000000 1.0
C      1  0.4630720000000  0.4593960000000  0.5521590000000 1.0
C      1  0.5369280000000  0.5406040000000  0.4478410000000 1.0
C      1  0.5823020000000  0.5066470000000  0.4936770000000 1.0
C      1  0.4176980000000  0.4933530000000  0.5063230000000 1.0
C      1  0.5273220000000  0.4769180000000  0.5488350000000 1.0
C      1  0.4726780000000  0.5230820000000  0.4511650000000 1.0
C      1  0.5092280000000  0.4725160000000  0.4553650000000 1.0
C      1  0.4907720000000  0.5274840000000  0.5446350000000 1.0
C      1  0.5386910000000  0.5081170000000  0.4861080000000 1.0
C      1  0.4613090000000  0.4918830000000  0.5138920000000 1.0
C      1  0.5190600000000  0.5621150000000  0.4545520000000 1.0
C      1  0.4809400000000  0.4378850000000  0.5454480000000 1.0
C      1  0.4395860000000  0.5159240000000  0.5462400000000 1.0
C      1  0.5604140000000  0.4840760000000  0.4537600000000 1.0
C      1  0.4471640000000  0.4674810000000  0.5273700000000 1.0
C      1  0.5528360000000  0.5325190000000  0.4726300000000 1.0
C      1  0.5797300000000  0.5028320000000  0.4445680000000 1.0
C      1  0.4202700000000  0.4971680000000  0.5554320000000 1.0
C      1  0.4401740000000  0.5132210000000  0.5157170000000 1.0
C      1  0.5598260000000  0.4867790000000  0.4842830000000 1.0
C      1  0.5236590000000  0.4570730000000  0.5285120000000 1.0
C      1  0.4763410000000  0.5429270000000  0.4714880000000 1.0
C      1  0.5512840000000  0.4911930000000  0.5493700000000 1.0
C      1  0.4487160000000  0.5088070000000  0.4506300000000 1.0
C      1  0.4966120000000  0.4484600000000  0.5249460000000 1.0
C      1  0.5033880000000  0.5515400000000  0.4750540000000 1.0
C      1  0.4189880000000  0.4788760000000  0.5338260000000 1.0
C      1  0.5810120000000  0.5211240000000  0.4661740000000 1.0
C      1  0.4680550000000  0.5119540000000  0.5577530000000 1.0
C      1  0.5319450000000  0.4880460000000  0.4422470000000 1.0
C      1  0.5116770000000  0.5752040000000  0.4908660000000 1.0
C      1  0.4883230000000  0.4247960000000  0.5091340000000 1.0
C      1  0.5311530000000  0.4389470000000  0.4850040000000 1.0
C      1  0.4688470000000  0.5610530000000  0.5149960000000 1.0
C      1  0.4893880000000  0.5798510000000  0.5101400000000 1.0
C      1  0.5106120000000  0.4201490000000  0.4898600000000 1.0
C      1  0.5084930000000  0.5099220000000  0.5267580000000 1.0
C      1  0.4915070000000  0.4900780000000  0.4732420000000 1.0
C      1  0.4777740000000  0.4832140000000  0.5634620000000 1.0
C      1  0.5222260000000  0.5167860000000  0.4365380000000 1.0
C      1  0.5344040000000  0.5280100000000  0.5244360000000 1.0
C      1  0.4655960000000  0.4719900000000  0.4755640000000 1.0
C      1  0.4975010000000  0.5571980000000  0.5402380000000 1.0
C      1  0.5024990000000  0.4428020000000  0.4597620000000 1.0
C      1  0.4941900000000  0.5199250000000  0.4334320000000 1.0
C      1  0.5058100000000  0.4800750000000  0.5665680000000 1.0
C      1  0.4279690000000  0.4720400000000  0.4858470000000 1.0
C      1  0.5720310000000  0.5279600000000  0.5141530000000 1.0
C      1  0.4824980000000  0.5115510000000  0.5042890000000 1.0
C      1  0.5175020000000  0.4884490000000  0.4957110000000 1.0
END
