TITL C-38189-4514-367 -4.11898803151364e-05 125000 -360.192262491998 0 0 60 (C1) n - 1
REM
REM in /home/bkarasulu/CARBON/AIRSS/Generating-Clusters/EDIP-Nigel-Params/Higher-Symm/Box-15A/Only-C60/SD-CG/FIRE-HFTN
REM
REM
REM
REM
REM
REM ./C.cell (414f73aa93bd7a1190c7fd0f31ff2f98)
REM
REM compiler GCC version 9.2.1 20190827 (Red Hat 9.2.1-1)
REM options -cpp -mtune=generic -march=x86-64 -g -O0 -fpre-include=/usr/include/finclude/math-vector-fortran.h
REM seed 569387163 213799869 -1751923454 2143099061 217748540 -1021773785 884594025 1717256286 920859569 -1686522391 -2009362324 -1909369684 -722722657 -1759892721 1482814785 -1229523270 -765772103 362634270 -1090506577 482936397 1235677064 2020475577 -1777518355 -1984735030 1494977672 -1838785585 -1873272059 -460441378 384200318 -1588768167 301463248 1725912393 -1812252138
REM
CELL 1.54180   50.00000   50.00000   50.00000   90.00000   90.00000   90.00000
LATT -1
SFAC C  
C      1  0.4686060000000  0.4670090000000  0.4250720000000 1.0
C      1  0.4676370000000  0.5461600000000  0.4271620000000 1.0
C      1  0.4685570000000  0.5779150000000  0.4840660000000 1.0
C      1  0.4664550000000  0.5614550000000  0.5547160000000 1.0
C      1  0.4762790000000  0.4963160000000  0.5826730000000 1.0
C      1  0.4715420000000  0.4325920000000  0.5450820000000 1.0
C      1  0.4711300000000  0.4318840000000  0.4777980000000 1.0
C      1  0.4817910000000  0.5126130000000  0.5350890000000 1.0
C      1  0.4808640000000  0.4801890000000  0.5396480000000 1.0
C      1  0.4786950000000  0.4670530000000  0.5122140000000 1.0
C      1  0.4767680000000  0.4802090000000  0.4709660000000 1.0
C      1  0.4749610000000  0.5057600000000  0.4558270000000 1.0
C      1  0.4769870000000  0.5290720000000  0.4762790000000 1.0
C      1  0.4783760000000  0.5321540000000  0.5088240000000 1.0
C      1  0.4496060000000  0.4488980000000  0.5399950000000 1.0
C      1  0.4496820000000  0.4483230000000  0.4846740000000 1.0
C      1  0.4463520000000  0.4772200000000  0.4387670000000 1.0
C      1  0.4455730000000  0.5341800000000  0.4396380000000 1.0
C      1  0.4476630000000  0.5596440000000  0.4879800000000 1.0
C      1  0.4504310000000  0.5430880000000  0.5411680000000 1.0
C      1  0.4518810000000  0.4949670000000  0.5690830000000 1.0
C      1  0.5030510000000  0.5271560000000  0.5543190000000 1.0
C      1  0.5073880000000  0.4676130000000  0.5530490000000 1.0
C      1  0.5025670000000  0.4456480000000  0.5089750000000 1.0
C      1  0.5012810000000  0.4649030000000  0.4595250000000 1.0
C      1  0.4993920000000  0.5075530000000  0.4364130000000 1.0
C      1  0.4998650000000  0.5466930000000  0.4645930000000 1.0
C      1  0.4979180000000  0.5559670000000  0.5141400000000 1.0
C      1  0.5265380000000  0.5326090000000  0.4684970000000 1.0
C      1  0.5264110000000  0.5472300000000  0.5159770000000 1.0
C      1  0.5298300000000  0.5327160000000  0.5406550000000 1.0
C      1  0.5321200000000  0.4712620000000  0.5366600000000 1.0
C      1  0.5296120000000  0.4579270000000  0.5112450000000 1.0
C      1  0.5254910000000  0.4814050000000  0.4665670000000 1.0
C      1  0.5246520000000  0.5073520000000  0.4529170000000 1.0
C      1  0.4453400000000  0.4695100000000  0.5588190000000 1.0
C      1  0.4423540000000  0.4535700000000  0.5122000000000 1.0
C      1  0.4405190000000  0.4676680000000  0.4656190000000 1.0
C      1  0.4424780000000  0.5057620000000  0.4342870000000 1.0
C      1  0.4412140000000  0.5409300000000  0.4672700000000 1.0
C      1  0.4432970000000  0.5482680000000  0.5140060000000 1.0
C      1  0.4463070000000  0.5162830000000  0.5505740000000 1.0
C      1  0.4978200000000  0.4394500000000  0.4781850000000 1.0
C      1  0.4949370000000  0.4741500000000  0.4302860000000 1.0
C      1  0.4937710000000  0.5400620000000  0.4343660000000 1.0
C      1  0.4949650000000  0.5695280000000  0.4858890000000 1.0
C      1  0.4923830000000  0.5562900000000  0.5462110000000 1.0
C      1  0.5018440000000  0.4974940000000  0.5707760000000 1.0
C      1  0.4979950000000  0.4391370000000  0.5404340000000 1.0
C      1  0.5552980000000  0.5179500000000  0.5407160000000 1.0
C      1  0.5513270000000  0.4903460000000  0.5428670000000 1.0
C      1  0.5507410000000  0.4504660000000  0.4942670000000 1.0
C      1  0.5511400000000  0.4703440000000  0.4745150000000 1.0
C      1  0.5692330000000  0.4913570000000  0.4798370000000 1.0
C      1  0.5412020000000  0.5316610000000  0.4954650000000 1.0
C      1  0.5715540000000  0.5238520000000  0.5169220000000 1.0
C      1  0.5088830000000  0.5011870000000  0.5024230000000 1.0
C      1  0.4835990000000  0.4906040000000  0.4968750000000 1.0
C      1  0.5786210000000  0.4991390000000  0.5047910000000 1.0
C      1  0.5388780000000  0.5004190000000  0.5038500000000 1.0
END
