TITL C-38196-2854-279 0.00364471671549505 125000 -352.278532602348 0 0 60 (C1) n - 1
REM
REM in /home/bkarasulu/CARBON/AIRSS/Generating-Clusters/EDIP-Nigel-Params/Higher-Symm/Box-15A/Only-C60/SD-CG/FIRE-HFTN
REM
REM
REM
REM
REM
REM ./C.cell (414f73aa93bd7a1190c7fd0f31ff2f98)
REM
REM compiler GCC version 9.2.1 20190827 (Red Hat 9.2.1-1)
REM options -cpp -mtune=generic -march=x86-64 -g -O0 -fpre-include=/usr/include/finclude/math-vector-fortran.h
REM seed 1502142384 1911090986 353390596 -646584331 -1855952106 659331364 -517682504 638670928 1018362309 1125373062 -950952761 1048180314 805394209 -1060337083 -739538404 -568021939 -1083851114 -766389595 736230015 562673114 -936862216 -602540604 -1417894182 -1614865429 -1926372927 32005528 -94711373 795228563 124099327 1739227559 -873534299 -1450064219 -247137487
REM
CELL 1.54180   50.00000   50.00000   50.00000   90.00000   90.00000   90.00000
LATT -1
SFAC C  
C      1  0.4606440000000  0.4745550000000  0.5176510000000 1.0
C      1  0.4879510000000  0.5214410000000  0.5331110000000 1.0
C      1  0.4315430000000  0.4783960000000  0.5194850000000 1.0
C      1  0.5314530000000  0.4796920000000  0.5761730000000 1.0
C      1  0.4493510000000  0.5286760000000  0.4404290000000 1.0
C      1  0.4374540000000  0.5301360000000  0.4656890000000 1.0
C      1  0.4384390000000  0.5230640000000  0.5275720000000 1.0
C      1  0.4482480000000  0.5664380000000  0.5013060000000 1.0
C      1  0.4688980000000  0.4527470000000  0.4994770000000 1.0
C      1  0.4292310000000  0.5045570000000  0.5088160000000 1.0
C      1  0.4975180000000  0.4438390000000  0.5487660000000 1.0
C      1  0.5360830000000  0.5034270000000  0.5613940000000 1.0
C      1  0.4818630000000  0.4966860000000  0.4202160000000 1.0
C      1  0.4653910000000  0.5630590000000  0.5227320000000 1.0
C      1  0.5056720000000  0.4938930000000  0.4502270000000 1.0
C      1  0.5289250000000  0.4373170000000  0.4563980000000 1.0
C      1  0.5447770000000  0.5369760000000  0.4558920000000 1.0
C      1  0.4351020000000  0.4823080000000  0.4656010000000 1.0
C      1  0.4959850000000  0.5425260000000  0.4371580000000 1.0
C      1  0.5814620000000  0.5138800000000  0.4752370000000 1.0
C      1  0.5669250000000  0.4818920000000  0.5298990000000 1.0
C      1  0.5120750000000  0.5039650000000  0.4966960000000 1.0
C      1  0.5198140000000  0.4292360000000  0.5071830000000 1.0
C      1  0.4842370000000  0.4680910000000  0.5543640000000 1.0
C      1  0.4932350000000  0.5651230000000  0.5163550000000 1.0
C      1  0.5152970000000  0.4435210000000  0.4812290000000 1.0
C      1  0.4762660000000  0.4562220000000  0.4516930000000 1.0
C      1  0.5432000000000  0.4964980000000  0.5334180000000 1.0
C      1  0.5413400000000  0.4547230000000  0.4387630000000 1.0
C      1  0.4963390000000  0.4287620000000  0.5247520000000 1.0
C      1  0.4954920000000  0.5322570000000  0.5743370000000 1.0
C      1  0.4615990000000  0.5372270000000  0.5370770000000 1.0
C      1  0.5464260000000  0.4386160000000  0.5487150000000 1.0
C      1  0.5862830000000  0.4804280000000  0.5115580000000 1.0
C      1  0.5510370000000  0.5474410000000  0.5267190000000 1.0
C      1  0.4943680000000  0.4720530000000  0.4335970000000 1.0
C      1  0.4873790000000  0.5669930000000  0.4462100000000 1.0
C      1  0.5204200000000  0.5290360000000  0.5616000000000 1.0
C      1  0.4696600000000  0.5365820000000  0.5654290000000 1.0
C      1  0.4567280000000  0.4657540000000  0.5461030000000 1.0
C      1  0.5916020000000  0.4934500000000  0.4889700000000 1.0
C      1  0.4386240000000  0.5537550000000  0.4798820000000 1.0
C      1  0.5300680000000  0.5510040000000  0.5446130000000 1.0
C      1  0.5182180000000  0.4865940000000  0.5198530000000 1.0
C      1  0.4968150000000  0.4893750000000  0.4768110000000 1.0
C      1  0.4363260000000  0.5056290000000  0.4805200000000 1.0
C      1  0.4993950000000  0.5288590000000  0.5067550000000 1.0
C      1  0.5392360000000  0.4547300000000  0.5691440000000 1.0
C      1  0.4916460000000  0.4908000000000  0.5343670000000 1.0
C      1  0.4717720000000  0.4276830000000  0.5113710000000 1.0
C      1  0.5582960000000  0.5456740000000  0.5010110000000 1.0
C      1  0.4757580000000  0.5219590000000  0.4336500000000 1.0
C      1  0.5174600000000  0.4552390000000  0.4248190000000 1.0
C      1  0.5429290000000  0.4311650000000  0.5229920000000 1.0
C      1  0.4812010000000  0.5912290000000  0.4518050000000 1.0
C      1  0.5113900000000  0.5700450000000  0.5367180000000 1.0
C      1  0.5631240000000  0.5343630000000  0.4763170000000 1.0
C      1  0.4895510000000  0.4596160000000  0.4785740000000 1.0
C      1  0.5228050000000  0.5365270000000  0.4406370000000 1.0
C      1  0.4496750000000  0.4642730000000  0.4521650000000 1.0
END
