TITL C-38196-2854-532 -1.21200819168355e-05 125000 -360.555359586196 0 0 60 (C1) n - 1
REM
REM in /home/bkarasulu/CARBON/AIRSS/Generating-Clusters/EDIP-Nigel-Params/Higher-Symm/Box-15A/Only-C60/SD-CG/FIRE-HFTN
REM
REM
REM
REM
REM
REM ./C.cell (414f73aa93bd7a1190c7fd0f31ff2f98)
REM
REM compiler GCC version 9.2.1 20190827 (Red Hat 9.2.1-1)
REM options -cpp -mtune=generic -march=x86-64 -g -O0 -fpre-include=/usr/include/finclude/math-vector-fortran.h
REM seed -800274619 -1947706022 -599858665 1613419569 -1367564945 1360087682 -166305999 1991989138 781196952 -1256864971 -1175727448 -211765392 -419518643 218414367 -2036518714 -73146091 2096327707 -216989415 1092072868 384970301 -1082332680 -2022362601 -1859970813 1613879484 -803795117 -176353398 316116435 -893320204 1462691386 1773771403 1689128597 -2059962813 -1789154586
REM
CELL 1.54180   50.00000   50.00000   50.00000   90.00000   90.00000   90.00000
LATT -1
SFAC C  
C      1  0.5468760000000  0.4866480000000  0.5361170000000 1.0
C      1  0.5447570000000  0.4982020000000  0.5625860000000 1.0
C      1  0.5702810000000  0.4657040000000  0.4701550000000 1.0
C      1  0.5226410000000  0.4479580000000  0.5538430000000 1.0
C      1  0.5313010000000  0.5204250000000  0.4596260000000 1.0
C      1  0.5087440000000  0.4790170000000  0.4844900000000 1.0
C      1  0.4943670000000  0.5063690000000  0.5668210000000 1.0
C      1  0.5073580000000  0.5908290000000  0.5206330000000 1.0
C      1  0.4188380000000  0.4636500000000  0.5203980000000 1.0
C      1  0.5169860000000  0.5088140000000  0.4859440000000 1.0
C      1  0.5077700000000  0.4800370000000  0.4345770000000 1.0
C      1  0.4551860000000  0.5394320000000  0.4963820000000 1.0
C      1  0.4602660000000  0.5507920000000  0.4512140000000 1.0
C      1  0.5145460000000  0.4642370000000  0.4591770000000 1.0
C      1  0.5424050000000  0.5387870000000  0.5060210000000 1.0
C      1  0.5728630000000  0.4904410000000  0.4576000000000 1.0
C      1  0.5075920000000  0.5305070000000  0.5320680000000 1.0
C      1  0.4774920000000  0.5835940000000  0.5428310000000 1.0
C      1  0.4387510000000  0.5012210000000  0.4621330000000 1.0
C      1  0.4512580000000  0.4937980000000  0.5444830000000 1.0
C      1  0.4439980000000  0.5204470000000  0.5397520000000 1.0
C      1  0.4868470000000  0.5442040000000  0.4452470000000 1.0
C      1  0.4856180000000  0.4229410000000  0.4737180000000 1.0
C      1  0.5701500000000  0.4689790000000  0.4977840000000 1.0
C      1  0.4681490000000  0.4241290000000  0.4937250000000 1.0
C      1  0.4857850000000  0.4585700000000  0.5584720000000 1.0
C      1  0.5588340000000  0.5162110000000  0.4963410000000 1.0
C      1  0.4626140000000  0.4390290000000  0.5161710000000 1.0
C      1  0.5337800000000  0.4260600000000  0.4657290000000 1.0
C      1  0.4829590000000  0.4390070000000  0.5366740000000 1.0
C      1  0.5110940000000  0.4348140000000  0.5310810000000 1.0
C      1  0.4815980000000  0.4922850000000  0.4872120000000 1.0
C      1  0.5074890000000  0.5630640000000  0.4460710000000 1.0
C      1  0.5498600000000  0.4495650000000  0.4583090000000 1.0
C      1  0.5237480000000  0.4158940000000  0.5154730000000 1.0
C      1  0.4412860000000  0.5445000000000  0.4709650000000 1.0
C      1  0.5091450000000  0.5759170000000  0.4966000000000 1.0
C      1  0.5059100000000  0.4339820000000  0.4583850000000 1.0
C      1  0.5201920000000  0.4999770000000  0.5750750000000 1.0
C      1  0.4844860000000  0.6052910000000  0.5269710000000 1.0
C      1  0.4447280000000  0.5436260000000  0.5238740000000 1.0
C      1  0.4237700000000  0.5238540000000  0.4634430000000 1.0
C      1  0.5200690000000  0.5084940000000  0.4332920000000 1.0
C      1  0.4917330000000  0.5316990000000  0.5554030000000 1.0
C      1  0.5634160000000  0.4916980000000  0.5126400000000 1.0
C      1  0.5357310000000  0.4156230000000  0.4916050000000 1.0
C      1  0.4788360000000  0.4927850000000  0.4351150000000 1.0
C      1  0.4305460000000  0.4742370000000  0.5431910000000 1.0
C      1  0.4923780000000  0.5210060000000  0.4285550000000 1.0
C      1  0.5312050000000  0.5591380000000  0.4879130000000 1.0
C      1  0.5470960000000  0.4617300000000  0.5504370000000 1.0
C      1  0.5603820000000  0.5138620000000  0.4666880000000 1.0
C      1  0.4583750000000  0.5649420000000  0.5357690000000 1.0
C      1  0.4955340000000  0.5238800000000  0.5049970000000 1.0
C      1  0.5282130000000  0.5503760000000  0.4603960000000 1.0
C      1  0.4767670000000  0.4859320000000  0.5565120000000 1.0
C      1  0.4353830000000  0.4416370000000  0.5239210000000 1.0
C      1  0.4652080000000  0.4918680000000  0.4620040000000 1.0
C      1  0.4826150000000  0.5482110000000  0.4946050000000 1.0
C      1  0.5341970000000  0.5400740000000  0.5327850000000 1.0
END
