TITL C-38196-2854-618 3.23560322110905e-05 125000 -356.865565328969 0 0 60 (C1) n - 1
REM
REM in /home/bkarasulu/CARBON/AIRSS/Generating-Clusters/EDIP-Nigel-Params/Higher-Symm/Box-15A/Only-C60/SD-CG/FIRE-HFTN
REM
REM
REM
REM
REM
REM ./C.cell (414f73aa93bd7a1190c7fd0f31ff2f98)
REM
REM compiler GCC version 9.2.1 20190827 (Red Hat 9.2.1-1)
REM options -cpp -mtune=generic -march=x86-64 -g -O0 -fpre-include=/usr/include/finclude/math-vector-fortran.h
REM seed -1839895086 182243123 -1695921828 991729468 1617582171 1841529120 161087815 -1614623930 -1324016949 2101302750 -809931263 411947634 938312852 1332107463 1080172684 1340215490 -770209319 1067976796 1094508027 586887644 -70184026 -952697970 -1286533602 1102571495 248778652 94299461 1507131983 491983506 -1394943572 -1869617606 1827776101 -1150323388 -651101586
REM
CELL 1.54180   50.00000   50.00000   50.00000   90.00000   90.00000   90.00000
LATT -1
SFAC C  
C      1  0.5061640000000  0.5363600000000  0.4582430000000 1.0
C      1  0.5291220000000  0.4816600000000  0.4606940000000 1.0
C      1  0.4681430000000  0.4835610000000  0.4707950000000 1.0
C      1  0.5258460000000  0.4516440000000  0.5247260000000 1.0
C      1  0.4383510000000  0.4958990000000  0.5326540000000 1.0
C      1  0.5265500000000  0.5393280000000  0.5174310000000 1.0
C      1  0.5469930000000  0.4597160000000  0.4570690000000 1.0
C      1  0.4404860000000  0.4894160000000  0.4699660000000 1.0
C      1  0.5220680000000  0.5593770000000  0.4549130000000 1.0
C      1  0.5144760000000  0.4672720000000  0.5466590000000 1.0
C      1  0.4655840000000  0.5000750000000  0.5412000000000 1.0
C      1  0.5185070000000  0.5251090000000  0.5408940000000 1.0
C      1  0.4759320000000  0.4396350000000  0.5356920000000 1.0
C      1  0.4584010000000  0.5496500000000  0.5365850000000 1.0
C      1  0.5650960000000  0.5088160000000  0.5428240000000 1.0
C      1  0.5162810000000  0.5625270000000  0.5042770000000 1.0
C      1  0.5481750000000  0.4583240000000  0.5075230000000 1.0
C      1  0.4283020000000  0.4802660000000  0.5116480000000 1.0
C      1  0.5862430000000  0.5197940000000  0.5007790000000 1.0
C      1  0.4712050000000  0.4197890000000  0.4930640000000 1.0
C      1  0.4425310000000  0.5689960000000  0.4964840000000 1.0
C      1  0.4490690000000  0.5530490000000  0.4477370000000 1.0
C      1  0.5729500000000  0.5112710000000  0.4420830000000 1.0
C      1  0.4771860000000  0.4360310000000  0.4467390000000 1.0
C      1  0.4864780000000  0.4206680000000  0.4700970000000 1.0
C      1  0.4401460000000  0.5506400000000  0.4757450000000 1.0
C      1  0.5879370000000  0.5264420000000  0.4741180000000 1.0
C      1  0.4822240000000  0.4850320000000  0.5877340000000 1.0
C      1  0.5044860000000  0.5251690000000  0.5852060000000 1.0
C      1  0.5074480000000  0.4971940000000  0.5877160000000 1.0
C      1  0.5551130000000  0.4858060000000  0.5058870000000 1.0
C      1  0.4430340000000  0.4563430000000  0.5050860000000 1.0
C      1  0.4879840000000  0.5664810000000  0.5029820000000 1.0
C      1  0.5282510000000  0.5683660000000  0.4797560000000 1.0
C      1  0.5494690000000  0.4478790000000  0.4815120000000 1.0
C      1  0.4205010000000  0.4935590000000  0.4881440000000 1.0
C      1  0.4966750000000  0.4579490000000  0.4419110000000 1.0
C      1  0.4621070000000  0.5271070000000  0.4413560000000 1.0
C      1  0.5471000000000  0.5149090000000  0.4302550000000 1.0
C      1  0.4814920000000  0.4965010000000  0.5153360000000 1.0
C      1  0.5036270000000  0.5122410000000  0.5020030000000 1.0
C      1  0.5057550000000  0.4618520000000  0.4940970000000 1.0
C      1  0.5208620000000  0.4878260000000  0.4887710000000 1.0
C      1  0.4771390000000  0.4729620000000  0.4975610000000 1.0
C      1  0.4902720000000  0.5335760000000  0.4830600000000 1.0
C      1  0.4875300000000  0.4859860000000  0.4472430000000 1.0
C      1  0.4912810000000  0.5228570000000  0.4362310000000 1.0
C      1  0.5228560000000  0.5006000000000  0.4388840000000 1.0
C      1  0.5080700000000  0.4433140000000  0.4688420000000 1.0
C      1  0.4609130000000  0.5269280000000  0.4736950000000 1.0
C      1  0.5654720000000  0.5336010000000  0.4582740000000 1.0
C      1  0.4624830000000  0.5672610000000  0.5156770000000 1.0
C      1  0.5747610000000  0.5015780000000  0.5181230000000 1.0
C      1  0.4607610000000  0.4356150000000  0.5131560000000 1.0
C      1  0.4977220000000  0.5351170000000  0.5594370000000 1.0
C      1  0.5272890000000  0.4863420000000  0.5671860000000 1.0
C      1  0.4709170000000  0.4779320000000  0.5632240000000 1.0
C      1  0.4883070000000  0.4565490000000  0.5538450000000 1.0
C      1  0.4696910000000  0.5290680000000  0.5515260000000 1.0
C      1  0.5401860000000  0.5111830000000  0.5556450000000 1.0
END
