TITL C-38195-9455-432 -0.000126636460089266 125000 -349.244824381274 0 0 60 (C3i) n - 1
REM
REM in /home/bkarasulu/CARBON/AIRSS/Generating-Clusters/EDIP-Nigel-Params/Higher-Symm/Box-15A/Only-C60/SD-CG/FIRE-HFTN
REM
REM
REM
REM
REM
REM ./C.cell (414f73aa93bd7a1190c7fd0f31ff2f98)
REM
REM compiler GCC version 9.2.1 20190827 (Red Hat 9.2.1-1)
REM options -cpp -mtune=generic -march=x86-64 -g -O0 -fpre-include=/usr/include/finclude/math-vector-fortran.h
REM seed -1238308121 -1482242684 333599539 -1067347618 1760313994 -103565171 -484513758 -192000019 1996736308 605834492 2104585585 82225029 -1611131620 -1046782460 -1952245778 -1657360999 379730029 125046402 -843158730 -874469405 -29897949 472846395 -147878222 -1000853949 -2129078134 1561391477 -398744127 1700988906 1841597306 869685008 1638131047 1853058574 -915950068
REM
CELL 1.54180   50.00000   50.00000   50.00000   90.00000   90.00000   90.00000
LATT -1
SFAC C  
C      1  0.5014780000000  0.5209050000000  0.4812270000000 1.0
C      1  0.4985220000000  0.5267100000000  0.5087180000000 1.0
C      1  0.5014780000000  0.5058050000000  0.5274910000000 1.0
C      1  0.4985220000000  0.4790950000000  0.5187730000000 1.0
C      1  0.5014780000000  0.4732900000000  0.4912820000000 1.0
C      1  0.4985220000000  0.4941950000000  0.4725090000000 1.0
C      1  0.4563130000000  0.4460870000000  0.5006910000000 1.0
C      1  0.5436870000000  0.4724450000000  0.4536560000000 1.0
C      1  0.4563130000000  0.5263580000000  0.4529640000000 1.0
C      1  0.5436870000000  0.5539130000000  0.4993090000000 1.0
C      1  0.4563130000000  0.5275550000000  0.5463440000000 1.0
C      1  0.5436870000000  0.4736420000000  0.5470360000000 1.0
C      1  0.5149300000000  0.4866960000000  0.5699460000000 1.0
C      1  0.4850700000000  0.4327730000000  0.5234510000000 1.0
C      1  0.5149300000000  0.4460770000000  0.4535050000000 1.0
C      1  0.4850700000000  0.5133040000000  0.4300540000000 1.0
C      1  0.5149300000000  0.5672270000000  0.4765490000000 1.0
C      1  0.4850700000000  0.5539230000000  0.5464950000000 1.0
C      1  0.4704800000000  0.4653030000000  0.5548040000000 1.0
C      1  0.5295200000000  0.4351900000000  0.4973540000000 1.0
C      1  0.4704800000000  0.4698870000000  0.4425500000000 1.0
C      1  0.5295200000000  0.5346970000000  0.4451960000000 1.0
C      1  0.4704800000000  0.5648100000000  0.5026460000000 1.0
C      1  0.5295200000000  0.5301130000000  0.5574500000000 1.0
C      1  0.5166770000000  0.4703290000000  0.4372240000000 1.0
C      1  0.4833230000000  0.5395300000000  0.4429160000000 1.0
C      1  0.5166770000000  0.5692010000000  0.5056920000000 1.0
C      1  0.4833230000000  0.5296710000000  0.5627760000000 1.0
C      1  0.5166770000000  0.4604700000000  0.5570840000000 1.0
C      1  0.4833230000000  0.4307990000000  0.4943080000000 1.0
C      1  0.5565290000000  0.4537570000000  0.5271660000000 1.0
C      1  0.4434710000000  0.4533520000000  0.4735360000000 1.0
C      1  0.5565290000000  0.4995950000000  0.4463690000000 1.0
C      1  0.4434710000000  0.5462430000000  0.4728340000000 1.0
C      1  0.5565290000000  0.5466480000000  0.5264640000000 1.0
C      1  0.4434710000000  0.5004050000000  0.5536310000000 1.0
C      1  0.4577480000000  0.5694840000000  0.4792810000000 1.0
C      1  0.5422520000000  0.5526850000000  0.5498160000000 1.0
C      1  0.4577480000000  0.4832010000000  0.5705340000000 1.0
C      1  0.5422520000000  0.4305160000000  0.5207190000000 1.0
C      1  0.4577480000000  0.4473150000000  0.4501840000000 1.0
C      1  0.5422520000000  0.5167990000000  0.4294660000000 1.0
C      1  0.5071350000000  0.5420750000000  0.4615490000000 1.0
C      1  0.4928650000000  0.5543380000000  0.5172120000000 1.0
C      1  0.5071350000000  0.5122620000000  0.5556640000000 1.0
C      1  0.4928650000000  0.4579250000000  0.5384510000000 1.0
C      1  0.5071350000000  0.4456620000000  0.4827880000000 1.0
C      1  0.4928650000000  0.4877380000000  0.4443360000000 1.0
C      1  0.5439520000000  0.4957950000000  0.5231560000000 1.0
C      1  0.4560480000000  0.4778440000000  0.5079360000000 1.0
C      1  0.5439520000000  0.4820490000000  0.4847800000000 1.0
C      1  0.4560480000000  0.5042050000000  0.4768440000000 1.0
C      1  0.5439520000000  0.5221560000000  0.4920640000000 1.0
C      1  0.4560480000000  0.5179510000000  0.5152200000000 1.0
C      1  0.5631260000000  0.5128060000000  0.4713570000000 1.0
C      1  0.4368740000000  0.5312090000000  0.4967690000000 1.0
C      1  0.5631260000000  0.5184030000000  0.5254120000000 1.0
C      1  0.4368740000000  0.4871940000000  0.5286430000000 1.0
C      1  0.5631260000000  0.4687910000000  0.5032310000000 1.0
C      1  0.4368740000000  0.4815970000000  0.4745880000000 1.0
END
