TITL C-38197-8510-631 3.7981974575646e-06 125000 -357.822689988931 0 0 60 (C1) n - 1
REM
REM in /home/bkarasulu/CARBON/AIRSS/Generating-Clusters/EDIP-Nigel-Params/Higher-Symm/Box-15A/Only-C60/SD-CG/FIRE-HFTN
REM
REM
REM
REM
REM
REM ./C.cell (414f73aa93bd7a1190c7fd0f31ff2f98)
REM
REM compiler GCC version 9.2.1 20190827 (Red Hat 9.2.1-1)
REM options -cpp -mtune=generic -march=x86-64 -g -O0 -fpre-include=/usr/include/finclude/math-vector-fortran.h
REM seed -1040633435 -296280363 337537801 1918020513 -949865194 -1644378878 64867996 -304341682 574926631 199038623 1674870783 -946336927 -1873136620 1445474746 -1541882997 18668361 -1811547219 -1626408962 -530726525 1473045779 -1793312953 -342718294 -1224505740 -579710456 1392733571 -567589302 1605874498 199458309 1006376128 1023031564 828806471 -1391794444 -575879564
REM
CELL 1.54180   50.00000   50.00000   50.00000   90.00000   90.00000   90.00000
LATT -1
SFAC C  
C      1  0.4580080000000  0.4336110000000  0.4803860000000 1.0
C      1  0.4757560000000  0.5905400000000  0.5405040000000 1.0
C      1  0.4816290000000  0.4297380000000  0.5417720000000 1.0
C      1  0.5860180000000  0.4779660000000  0.4314150000000 1.0
C      1  0.4863900000000  0.5090510000000  0.4692870000000 1.0
C      1  0.5339090000000  0.5664080000000  0.5056780000000 1.0
C      1  0.4532360000000  0.5508320000000  0.4957520000000 1.0
C      1  0.5177250000000  0.5334240000000  0.5605460000000 1.0
C      1  0.4946990000000  0.5703580000000  0.5404350000000 1.0
C      1  0.5115310000000  0.4412180000000  0.4821530000000 1.0
C      1  0.5582510000000  0.4757320000000  0.5144660000000 1.0
C      1  0.4961390000000  0.4791820000000  0.4297520000000 1.0
C      1  0.5266260000000  0.4555270000000  0.4619010000000 1.0
C      1  0.4843370000000  0.5034270000000  0.4223120000000 1.0
C      1  0.5155400000000  0.5846290000000  0.4930890000000 1.0
C      1  0.5079990000000  0.4652800000000  0.5670760000000 1.0
C      1  0.5507330000000  0.4914390000000  0.5552850000000 1.0
C      1  0.5369230000000  0.4668010000000  0.5627680000000 1.0
C      1  0.4446830000000  0.4484100000000  0.4607350000000 1.0
C      1  0.4931370000000  0.5715120000000  0.4462550000000 1.0
C      1  0.4661630000000  0.5698680000000  0.4529440000000 1.0
C      1  0.5545070000000  0.4534960000000  0.4624400000000 1.0
C      1  0.4520400000000  0.5499490000000  0.4664690000000 1.0
C      1  0.5123920000000  0.5153270000000  0.4727730000000 1.0
C      1  0.4546310000000  0.5956810000000  0.5247990000000 1.0
C      1  0.5027720000000  0.5512700000000  0.4299460000000 1.0
C      1  0.5064470000000  0.5643470000000  0.5142400000000 1.0
C      1  0.5772410000000  0.4548330000000  0.4458980000000 1.0
C      1  0.4546780000000  0.5010520000000  0.5040030000000 1.0
C      1  0.5173390000000  0.4618790000000  0.4349780000000 1.0
C      1  0.5050990000000  0.4241050000000  0.5279000000000 1.0
C      1  0.4606000000000  0.4998690000000  0.5501280000000 1.0
C      1  0.4488710000000  0.4381530000000  0.5062890000000 1.0
C      1  0.5671030000000  0.4621400000000  0.4167930000000 1.0
C      1  0.4620760000000  0.5279800000000  0.5123560000000 1.0
C      1  0.5370770000000  0.5079950000000  0.4792390000000 1.0
C      1  0.5097680000000  0.5816340000000  0.4659520000000 1.0
C      1  0.4671700000000  0.4913950000000  0.4797610000000 1.0
C      1  0.5194590000000  0.4413470000000  0.5100140000000 1.0
C      1  0.4487100000000  0.5259360000000  0.4525040000000 1.0
C      1  0.5392050000000  0.4646130000000  0.4180790000000 1.0
C      1  0.4855350000000  0.4332730000000  0.4769930000000 1.0
C      1  0.4672000000000  0.5271050000000  0.5415280000000 1.0
C      1  0.5442680000000  0.4511500000000  0.5218170000000 1.0
C      1  0.4542260000000  0.4839500000000  0.5271020000000 1.0
C      1  0.5478380000000  0.4444420000000  0.5491550000000 1.0
C      1  0.4515920000000  0.5762970000000  0.5064870000000 1.0
C      1  0.4977680000000  0.4387810000000  0.5625310000000 1.0
C      1  0.5392360000000  0.5160360000000  0.5598680000000 1.0
C      1  0.4529970000000  0.4740860000000  0.4629710000000 1.0
C      1  0.5036870000000  0.5059980000000  0.5948060000000 1.0
C      1  0.5525720000000  0.4899550000000  0.4913480000000 1.0
C      1  0.5004990000000  0.5260680000000  0.4208750000000 1.0
C      1  0.4664250000000  0.4883000000000  0.5748550000000 1.0
C      1  0.5711220000000  0.4888790000000  0.5358750000000 1.0
C      1  0.4461720000000  0.4574880000000  0.5247970000000 1.0
C      1  0.4870650000000  0.5457340000000  0.5561620000000 1.0
C      1  0.4595900000000  0.5092220000000  0.4339990000000 1.0
C      1  0.4921780000000  0.4830450000000  0.5841250000000 1.0
C      1  0.5034070000000  0.5322350000000  0.5856370000000 1.0
END
