TITL C-38194-9318-352 -5.26481414379558e-06 125000 -349.045548907373 0 0 60 (C3i) n - 1
REM
REM in /home/bkarasulu/CARBON/AIRSS/Generating-Clusters/EDIP-Nigel-Params/Higher-Symm/Box-15A/Only-C60/SD-CG/FIRE-HFTN
REM
REM
REM
REM
REM
REM ./C.cell (414f73aa93bd7a1190c7fd0f31ff2f98)
REM
REM compiler GCC version 9.2.1 20190827 (Red Hat 9.2.1-1)
REM options -cpp -mtune=generic -march=x86-64 -g -O0 -fpre-include=/usr/include/finclude/math-vector-fortran.h
REM seed 144087878 1170348103 -1257570634 -1601665223 -402750812 1324353018 -438966826 1591640872 -342445237 570384864 1550311932 -1747386239 1853039520 -1275782863 -1506150252 -943437508 2101788440 118416628 -1895985151 -930657087 -1898729101 277862783 822183065 -1620351163 327368270 706225395 -408423175 2126937863 695618201 368417998 -1557291741 2036318108 665616201
REM
CELL 1.54180   50.00000   50.00000   50.00000   90.00000   90.00000   90.00000
LATT -1
SFAC C  
C      1  0.4720560000000  0.4591000000000  0.4603690000000 1.0
C      1  0.4506070000000  0.5037500000000  0.5396310000000 1.0
C      1  0.4785510000000  0.5446500000000  0.4603690000000 1.0
C      1  0.5279440000000  0.5409000000000  0.5396310000000 1.0
C      1  0.5493930000000  0.4962500000000  0.4603690000000 1.0
C      1  0.5214490000000  0.4553500000000  0.5396310000000 1.0
C      1  0.4868370000000  0.5191100000000  0.5188980000000 1.0
C      1  0.5099680000000  0.5209550000000  0.4811020000000 1.0
C      1  0.5231320000000  0.5018450000000  0.5188980000000 1.0
C      1  0.5131630000000  0.4808900000000  0.4811020000000 1.0
C      1  0.4900320000000  0.4790450000000  0.5188980000000 1.0
C      1  0.4768680000000  0.4981550000000  0.4811020000000 1.0
C      1  0.4952380000000  0.4523490000000  0.4435460000000 1.0
C      1  0.4563520000000  0.4802990000000  0.5564540000000 1.0
C      1  0.4611140000000  0.5279500000000  0.4435460000000 1.0
C      1  0.5047620000000  0.5476510000000  0.5564540000000 1.0
C      1  0.5436480000000  0.5197010000000  0.4435460000000 1.0
C      1  0.5388860000000  0.4720500000000  0.5564540000000 1.0
C      1  0.4908490000000  0.5475190000000  0.5020380000000 1.0
C      1  0.5365770000000  0.5316840000000  0.4979620000000 1.0
C      1  0.5457280000000  0.4841650000000  0.5020380000000 1.0
C      1  0.5091510000000  0.4524810000000  0.4979620000000 1.0
C      1  0.4634230000000  0.4683160000000  0.5020380000000 1.0
C      1  0.4542720000000  0.5158350000000  0.4979620000000 1.0
C      1  0.5164700000000  0.5242280000000  0.4502660000000 1.0
C      1  0.5292170000000  0.4978500000000  0.5497340000000 1.0
C      1  0.5127470000000  0.4736230000000  0.4502660000000 1.0
C      1  0.4835300000000  0.4757720000000  0.5497340000000 1.0
C      1  0.4707830000000  0.5021500000000  0.4502660000000 1.0
C      1  0.4872530000000  0.5263770000000  0.5497340000000 1.0
C      1  0.4331950000000  0.4779910000000  0.5079960000000 1.0
C      1  0.4475370000000  0.5468500000000  0.4920040000000 1.0
C      1  0.5143420000000  0.5688590000000  0.5079960000000 1.0
C      1  0.5668050000000  0.5220090000000  0.4920040000000 1.0
C      1  0.5524630000000  0.4531500000000  0.5079960000000 1.0
C      1  0.4856580000000  0.4311410000000  0.4920040000000 1.0
C      1  0.4539020000000  0.5585660000000  0.4661760000000 1.0
C      1  0.5276700000000  0.5692050000000  0.5338240000000 1.0
C      1  0.5737680000000  0.5106390000000  0.4661760000000 1.0
C      1  0.5460980000000  0.4414340000000  0.5338240000000 1.0
C      1  0.4723300000000  0.4307950000000  0.4661760000000 1.0
C      1  0.4262320000000  0.4893610000000  0.5338240000000 1.0
C      1  0.5470350000000  0.5211050000000  0.5509300000000 1.0
C      1  0.5417950000000  0.4698190000000  0.4490700000000 1.0
C      1  0.4947600000000  0.4487140000000  0.5509300000000 1.0
C      1  0.4529650000000  0.4788950000000  0.4490700000000 1.0
C      1  0.4582050000000  0.5301810000000  0.5509300000000 1.0
C      1  0.5052400000000  0.5512860000000  0.4490700000000 1.0
C      1  0.5359930000000  0.4393200000000  0.4889150000000 1.0
C      1  0.4654460000000  0.4384890000000  0.5110850000000 1.0
C      1  0.4294530000000  0.4991690000000  0.4889150000000 1.0
C      1  0.4640070000000  0.5606800000000  0.5110850000000 1.0
C      1  0.5345540000000  0.5615110000000  0.4889150000000 1.0
C      1  0.5705470000000  0.5008310000000  0.5110850000000 1.0
C      1  0.4542990000000  0.5535230000000  0.5361490000000 1.0
C      1  0.5235020000000  0.5663400000000  0.4638510000000 1.0
C      1  0.5692030000000  0.5128170000000  0.5361490000000 1.0
C      1  0.5457010000000  0.4464770000000  0.4638510000000 1.0
C      1  0.4764980000000  0.4336600000000  0.5361490000000 1.0
C      1  0.4307970000000  0.4871830000000  0.4638510000000 1.0
END
