TITL C-38184-643-231 0.000248933770463712 125000 -350.04873801934 0 0 60 (C1) n - 1
REM
REM in /home/bkarasulu/CARBON/AIRSS/Generating-Clusters/EDIP-Nigel-Params/Higher-Symm/Box-15A/Only-C60/SD-CG/FIRE-HFTN
REM
REM
REM
REM
REM
REM ./C.cell (414f73aa93bd7a1190c7fd0f31ff2f98)
REM
REM compiler GCC version 9.2.1 20190827 (Red Hat 9.2.1-1)
REM options -cpp -mtune=generic -march=x86-64 -g -O0 -fpre-include=/usr/include/finclude/math-vector-fortran.h
REM seed 1002584756 -1919574400 433657040 -1874699190 -42233214 -1162651337 567453518 495088106 -2118450601 -1968173536 -531539912 -1954621301 -1843563800 2091164497 -2098631895 -1066478368 1721216320 -1130851465 1881374834 1488743680 -2000252142 -162931226 -111583210 635079974 1945167866 -1613027886 1284298965 2034685111 441956949 -1213566082 1597101762 -470119045 -1497051771
REM
CELL 1.54180   50.00000   50.00000   50.00000   90.00000   90.00000   90.00000
LATT -1
SFAC C  
C      1  0.4211670000000  0.4711670000000  0.5195780000000 1.0
C      1  0.5220350000000  0.5678630000000  0.5233480000000 1.0
C      1  0.5487360000000  0.4478500000000  0.5245510000000 1.0
C      1  0.5684890000000  0.4870860000000  0.5223130000000 1.0
C      1  0.4704020000000  0.5630770000000  0.5113510000000 1.0
C      1  0.4576670000000  0.4468800000000  0.5199490000000 1.0
C      1  0.5445120000000  0.5528990000000  0.5100960000000 1.0
C      1  0.5203410000000  0.4399430000000  0.5201660000000 1.0
C      1  0.4225890000000  0.5005030000000  0.5162960000000 1.0
C      1  0.4472810000000  0.5469590000000  0.5146530000000 1.0
C      1  0.4782150000000  0.4258590000000  0.5225400000000 1.0
C      1  0.5655270000000  0.5144620000000  0.5125860000000 1.0
C      1  0.4319800000000  0.5331210000000  0.4564800000000 1.0
C      1  0.5573600000000  0.5482320000000  0.4458690000000 1.0
C      1  0.5198870000000  0.4533410000000  0.4649480000000 1.0
C      1  0.5554030000000  0.5036200000000  0.4584410000000 1.0
C      1  0.4734360000000  0.5498100000000  0.4580620000000 1.0
C      1  0.4815330000000  0.4306660000000  0.4577210000000 1.0
C      1  0.4898660000000  0.5607750000000  0.4384290000000 1.0
C      1  0.5466430000000  0.4845600000000  0.4383500000000 1.0
C      1  0.4559990000000  0.4686510000000  0.4452480000000 1.0
C      1  0.5103030000000  0.5417790000000  0.4345530000000 1.0
C      1  0.4541100000000  0.4950600000000  0.4368700000000 1.0
C      1  0.5425300000000  0.4597770000000  0.4502860000000 1.0
C      1  0.4500100000000  0.5117440000000  0.4603640000000 1.0
C      1  0.5311270000000  0.5433050000000  0.4551760000000 1.0
C      1  0.4993130000000  0.4739390000000  0.4669250000000 1.0
C      1  0.5310710000000  0.5173680000000  0.4714390000000 1.0
C      1  0.4779310000000  0.5209890000000  0.4640960000000 1.0
C      1  0.4755720000000  0.4578000000000  0.4616140000000 1.0
C      1  0.4786290000000  0.4857170000000  0.5247640000000 1.0
C      1  0.5231550000000  0.4934190000000  0.5269180000000 1.0
C      1  0.4933830000000  0.5284940000000  0.5265290000000 1.0
C      1  0.4958000000000  0.5275270000000  0.5748090000000 1.0
C      1  0.5216980000000  0.4898330000000  0.5753380000000 1.0
C      1  0.4757660000000  0.4861620000000  0.5734350000000 1.0
C      1  0.5195760000000  0.5612280000000  0.5507570000000 1.0
C      1  0.4476660000000  0.4584750000000  0.5447670000000 1.0
C      1  0.5526250000000  0.4633350000000  0.5489310000000 1.0
C      1  0.5708460000000  0.5247230000000  0.4476650000000 1.0
C      1  0.4462140000000  0.5560990000000  0.4556690000000 1.0
C      1  0.5086560000000  0.4279880000000  0.4599860000000 1.0
C      1  0.4334660000000  0.4496620000000  0.5045130000000 1.0
C      1  0.5638180000000  0.4639650000000  0.5062220000000 1.0
C      1  0.4969170000000  0.5693600000000  0.5099020000000 1.0
C      1  0.4649770000000  0.4802020000000  0.5486290000000 1.0
C      1  0.5000700000000  0.5411530000000  0.5511280000000 1.0
C      1  0.5348640000000  0.4854530000000  0.5513080000000 1.0
C      1  0.5007720000000  0.4325590000000  0.5410490000000 1.0
C      1  0.4483010000000  0.5168170000000  0.5161560000000 1.0
C      1  0.5681860000000  0.5416320000000  0.5259110000000 1.0
C      1  0.4205570000000  0.5314800000000  0.5160680000000 1.0
C      1  0.5391570000000  0.5239420000000  0.4993920000000 1.0
C      1  0.5014140000000  0.4236110000000  0.5036610000000 1.0
C      1  0.5032040000000  0.5135530000000  0.4284140000000 1.0
C      1  0.5243630000000  0.4955980000000  0.4254690000000 1.0
C      1  0.4767950000000  0.5050370000000  0.4229730000000 1.0
C      1  0.5012160000000  0.5030070000000  0.4784740000000 1.0
C      1  0.4989800000000  0.5027480000000  0.5142710000000 1.0
C      1  0.4973520000000  0.5009700000000  0.5822320000000 1.0
END
