TITL C-38194-9318-332 6.83665702129665e-05 125000 -380.55698911148 0 0 60 (C5v) n - 1
REM
REM in /home/bkarasulu/CARBON/AIRSS/Generating-Clusters/EDIP-Nigel-Params/Higher-Symm/Box-15A/Only-C60/SD-CG/FIRE-HFTN
REM
REM
REM
REM
REM
REM ./C.cell (414f73aa93bd7a1190c7fd0f31ff2f98)
REM
REM compiler GCC version 9.2.1 20190827 (Red Hat 9.2.1-1)
REM options -cpp -mtune=generic -march=x86-64 -g -O0 -fpre-include=/usr/include/finclude/math-vector-fortran.h
REM seed -252267025 1185129669 -740969260 -1156443640 119540427 -1709965864 665089333 -2133821801 -1074729816 723532854 -529239384 -1972361794 -296279591 1430310881 1939433475 1926958976 -933405613 679001452 1442331251 267544257 -229169489 -1961878057 -1722441183 -1989001589 -1490454859 1375936282 -1076282015 259325355 -606207839 -187879854 -1553164142 -1767696625 -2013576820
REM
CELL 1.54180   50.00000   50.00000   50.00000   90.00000   90.00000   90.00000
LATT -1
SFAC C  
C      1  0.4440380000000  0.4755400000000  0.5041670000000 1.0
C      1  0.4440380000000  0.4884790000000  0.4780250000000 1.0
C      1  0.4440380000000  0.5173390000000  0.4822520000000 1.0
C      1  0.4440380000000  0.5222370000000  0.5110060000000 1.0
C      1  0.4440380000000  0.4964040000000  0.5245500000000 1.0
C      1  0.4686780000000  0.4504250000000  0.4581950000000 1.0
C      1  0.4686770000000  0.5244390000000  0.4399330000000 1.0
C      1  0.4686770000000  0.5646790000000  0.5046820000000 1.0
C      1  0.4686770000000  0.5155350000000  0.5629600000000 1.0
C      1  0.4686770000000  0.4449220000000  0.5342300000000 1.0
C      1  0.5218350000000  0.4548910000000  0.5076840000000 1.0
C      1  0.5218350000000  0.4787520000000  0.4594740000000 1.0
C      1  0.5218350000000  0.5319770000000  0.4672690000000 1.0
C      1  0.5218350000000  0.5410110000000  0.5202970000000 1.0
C      1  0.5218350000000  0.4933690000000  0.5452760000000 1.0
C      1  0.4963160000000  0.4880120000000  0.4771360000000 1.0
C      1  0.4963160000000  0.5180410000000  0.4815340000000 1.0
C      1  0.4963160000000  0.5231370000000  0.5114510000000 1.0
C      1  0.4963160000000  0.4962590000000  0.5255440000000 1.0
C      1  0.4963160000000  0.4745500000000  0.5043350000000 1.0
C      1  0.4922760000000  0.4723340000000  0.5742800000000 1.0
C      1  0.4922760000000  0.4208060000000  0.4966420000000 1.0
C      1  0.4922760000000  0.4787210000000  0.4236450000000 1.0
C      1  0.4922760000000  0.5660430000000  0.4561680000000 1.0
C      1  0.4922760000000  0.5620950000000  0.5492660000000 1.0
C      1  0.4686770000000  0.4670630000000  0.5558610000000 1.0
C      1  0.4686770000000  0.4366950000000  0.4859370000000 1.0
C      1  0.4686770000000  0.4938120000000  0.4354470000000 1.0
C      1  0.4686770000000  0.5594810000000  0.4741670000000 1.0
C      1  0.4686770000000  0.5429490000000  0.5485870000000 1.0
C      1  0.4922760000000  0.4493000000000  0.4390700000000 1.0
C      1  0.4922760000000  0.5422810000000  0.4329530000000 1.0
C      1  0.4922760000000  0.5768310000000  0.5194930000000 1.0
C      1  0.4922760000000  0.5052030000000  0.5790940000000 1.0
C      1  0.4922760000000  0.4263850000000  0.5293900000000 1.0
C      1  0.4683660000000  0.5295430000000  0.4697600000000 1.0
C      1  0.4683660000000  0.5378890000000  0.5187520000000 1.0
C      1  0.4683660000000  0.4938740000000  0.5418290000000 1.0
C      1  0.4683660000000  0.4583250000000  0.5071000000000 1.0
C      1  0.4683660000000  0.4803700000000  0.4625590000000 1.0
C      1  0.5166300000000  0.4660800000000  0.5575000000000 1.0
C      1  0.5166300000000  0.4348320000000  0.4855090000000 1.0
C      1  0.5166300000000  0.4936440000000  0.4335440000000 1.0
C      1  0.5166300000000  0.5612390000000  0.4734190000000 1.0
C      1  0.5166300000000  0.5442040000000  0.5500280000000 1.0
C      1  0.5636990000000  0.5058930000000  0.4597610000000 1.0
C      1  0.5636990000000  0.5400910000000  0.4931700000000 1.0
C      1  0.5636990000000  0.5188840000000  0.5360180000000 1.0
C      1  0.5636990000000  0.4715800000000  0.5290900000000 1.0
C      1  0.5636990000000  0.4635510000000  0.4819600000000 1.0
C      1  0.5505780000000  0.4825020000000  0.4666250000000 1.0
C      1  0.5505780000000  0.5263340000000  0.4730450000000 1.0
C      1  0.5505780000000  0.5337730000000  0.5167160000000 1.0
C      1  0.5505780000000  0.4945390000000  0.5372860000000 1.0
C      1  0.5505780000000  0.4628520000000  0.5063280000000 1.0
C      1  0.5166300000000  0.4489550000000  0.4569740000000 1.0
C      1  0.5166300000000  0.5251470000000  0.4381580000000 1.0
C      1  0.5166300000000  0.5665860000000  0.5048060000000 1.0
C      1  0.5166300000000  0.5160060000000  0.5648120000000 1.0
C      1  0.5166300000000  0.4433060000000  0.5352510000000 1.0
END
