TITL C-38194-9318-666 3.26370888033297e-06 125000 -374.793509502704 0 0 60 (C1) n - 1
REM
REM in /home/bkarasulu/CARBON/AIRSS/Generating-Clusters/EDIP-Nigel-Params/Higher-Symm/Box-15A/Only-C60/SD-CG/FIRE-HFTN
REM
REM
REM
REM
REM
REM ./C.cell (414f73aa93bd7a1190c7fd0f31ff2f98)
REM
REM compiler GCC version 9.2.1 20190827 (Red Hat 9.2.1-1)
REM options -cpp -mtune=generic -march=x86-64 -g -O0 -fpre-include=/usr/include/finclude/math-vector-fortran.h
REM seed -2053874496 -1022023596 2034173883 -948140682 698229822 1062149557 1869177747 1711316165 185161949 2080463539 -1276091719 -87411910 -1408430687 520944948 -1397571326 1288806963 1755569929 -1393040655 -2114461752 -1171241220 -1591928745 1443856551 1506972004 927724070 -509040700 1827271477 -1435183290 348910936 472426748 -1580744579 -669892179 607894597 52079823
REM
CELL 1.54180   50.00000   50.00000   50.00000   90.00000   90.00000   90.00000
LATT -1
SFAC C  
C      1  0.4690770000000  0.5137890000000  0.5535530000000 1.0
C      1  0.5957800000000  0.4760230000000  0.5182220000000 1.0
C      1  0.5005540000000  0.5740350000000  0.4789610000000 1.0
C      1  0.5326870000000  0.5142730000000  0.4474640000000 1.0
C      1  0.4662960000000  0.4865260000000  0.4451850000000 1.0
C      1  0.5357180000000  0.4900820000000  0.5534180000000 1.0
C      1  0.4032590000000  0.4761110000000  0.4791680000000 1.0
C      1  0.5972360000000  0.5228580000000  0.4793930000000 1.0
C      1  0.4051750000000  0.5200550000000  0.5193990000000 1.0
C      1  0.5003940000000  0.5742840000000  0.5218220000000 1.0
C      1  0.4890220000000  0.4354840000000  0.5316390000000 1.0
C      1  0.4972710000000  0.4254640000000  0.4754070000000 1.0
C      1  0.4804670000000  0.4924350000000  0.5671510000000 1.0
C      1  0.5888930000000  0.5362380000000  0.5021840000000 1.0
C      1  0.5238310000000  0.4331260000000  0.4776090000000 1.0
C      1  0.5219000000000  0.4909440000000  0.4370470000000 1.0
C      1  0.4776550000000  0.5103270000000  0.4365070000000 1.0
C      1  0.5246110000000  0.5123310000000  0.5659260000000 1.0
C      1  0.4134910000000  0.5347240000000  0.4974160000000 1.0
C      1  0.5829820000000  0.4642780000000  0.4966410000000 1.0
C      1  0.4121510000000  0.4610460000000  0.5006170000000 1.0
C      1  0.4721630000000  0.4252780000000  0.5119760000000 1.0
C      1  0.5275570000000  0.5675210000000  0.5225230000000 1.0
C      1  0.4735200000000  0.5667510000000  0.4784730000000 1.0
C      1  0.5381350000000  0.5539970000000  0.4990170000000 1.0
C      1  0.5132880000000  0.5359510000000  0.5564330000000 1.0
C      1  0.5906990000000  0.5216780000000  0.5256790000000 1.0
C      1  0.4632570000000  0.5534130000000  0.5021600000000 1.0
C      1  0.5323320000000  0.4450940000000  0.5027060000000 1.0
C      1  0.4590070000000  0.4401130000000  0.4923940000000 1.0
C      1  0.4878120000000  0.5343990000000  0.4459420000000 1.0
C      1  0.5115630000000  0.4664640000000  0.4450370000000 1.0
C      1  0.4926540000000  0.4679820000000  0.5617270000000 1.0
C      1  0.4135600000000  0.5209690000000  0.4733560000000 1.0
C      1  0.5842150000000  0.4786090000000  0.4729860000000 1.0
C      1  0.4166440000000  0.4752890000000  0.5240180000000 1.0
C      1  0.5150610000000  0.4476850000000  0.5263400000000 1.0
C      1  0.5177420000000  0.4680740000000  0.5473310000000 1.0
C      1  0.5868400000000  0.4959810000000  0.5352410000000 1.0
C      1  0.4754280000000  0.4417380000000  0.4685710000000 1.0
C      1  0.5224110000000  0.5569730000000  0.4744490000000 1.0
C      1  0.4789560000000  0.5567640000000  0.5265920000000 1.0
C      1  0.4842460000000  0.4661860000000  0.4550550000000 1.0
C      1  0.5144190000000  0.5341010000000  0.4577000000000 1.0
C      1  0.4870670000000  0.5342260000000  0.5437090000000 1.0
C      1  0.4155920000000  0.4952250000000  0.4633980000000 1.0
C      1  0.5835710000000  0.5046380000000  0.4635930000000 1.0
C      1  0.4191880000000  0.5010520000000  0.5339110000000 1.0
C      1  0.4691530000000  0.5535490000000  0.4542940000000 1.0
C      1  0.4767550000000  0.4459560000000  0.5546270000000 1.0
C      1  0.4437650000000  0.5095920000000  0.5433580000000 1.0
C      1  0.4359770000000  0.5495180000000  0.5028450000000 1.0
C      1  0.5585990000000  0.4533830000000  0.5031480000000 1.0
C      1  0.5593750000000  0.5138610000000  0.4541190000000 1.0
C      1  0.5316420000000  0.5549920000000  0.5471210000000 1.0
C      1  0.5625090000000  0.4904960000000  0.5469750000000 1.0
C      1  0.5654670000000  0.5501380000000  0.4983900000000 1.0
C      1  0.5300680000000  0.4474680000000  0.4543880000000 1.0
C      1  0.4316440000000  0.4430520000000  0.4933800000000 1.0
C      1  0.4396670000000  0.4874100000000  0.4523100000000 1.0
END
