TITL C-38187-2739-288 2.16802954519404e-06 125000 -345.986329306524 0 0 60 (C2) n - 1
REM
REM in /home/bkarasulu/CARBON/AIRSS/Generating-Clusters/EDIP-Nigel-Params/Higher-Symm/Box-15A/Only-C60/SD-CG/FIRE-HFTN
REM
REM
REM
REM
REM
REM ./C.cell (414f73aa93bd7a1190c7fd0f31ff2f98)
REM
REM compiler GCC version 9.2.1 20190827 (Red Hat 9.2.1-1)
REM options -cpp -mtune=generic -march=x86-64 -g -O0 -fpre-include=/usr/include/finclude/math-vector-fortran.h
REM seed -142587453 -1934055893 -36708642 -1982815676 -1741560970 -471360395 43678995 -1975989515 -2119385755 -2117860330 568907020 -652212624 516284242 89550823 -1262765307 -453297433 2072235458 806352160 1751035899 670498032 1618820364 1492826618 -95190429 641200528 1050443108 -479115519 -1065657844 214833021 1164101088 1103452638 -403535874 1011414318 -1021805296
REM
CELL 1.54180   50.00000   50.00000   50.00000   90.00000   90.00000   90.00000
LATT -1
SFAC C  
C      1  0.4434680000000  0.4467690000000  0.4947610000000 1.0
C      1  0.4432100000000  0.5223360000000  0.5507160000000 1.0
C      1  0.4414110000000  0.5199510000000  0.4549170000000 1.0
C      1  0.5586050000000  0.4510020000000  0.4947210000000 1.0
C      1  0.5565490000000  0.5221380000000  0.4513280000000 1.0
C      1  0.5567590000000  0.5327280000000  0.5447580000000 1.0
C      1  0.5650150000000  0.5279360000000  0.4767380000000 1.0
C      1  0.5651560000000  0.4680660000000  0.4745410000000 1.0
C      1  0.5657860000000  0.5078000000000  0.5374840000000 1.0
C      1  0.4341940000000  0.5285200000000  0.5254910000000 1.0
C      1  0.4349880000000  0.4658570000000  0.5125000000000 1.0
C      1  0.4348650000000  0.4939380000000  0.4595780000000 1.0
C      1  0.4759400000000  0.4853570000000  0.5256140000000 1.0
C      1  0.4748630000000  0.5284270000000  0.5013810000000 1.0
C      1  0.4801860000000  0.4857530000000  0.4743420000000 1.0
C      1  0.5198300000000  0.4849320000000  0.4748290000000 1.0
C      1  0.5240520000000  0.5295110000000  0.5001640000000 1.0
C      1  0.5251290000000  0.4869660000000  0.5253090000000 1.0
C      1  0.5151760000000  0.5166030000000  0.4742730000000 1.0
C      1  0.5162200000000  0.4697440000000  0.5017370000000 1.0
C      1  0.5159390000000  0.5157800000000  0.5263940000000 1.0
C      1  0.4840440000000  0.5149400000000  0.5268690000000 1.0
C      1  0.4848320000000  0.4694130000000  0.5014800000000 1.0
C      1  0.4837870000000  0.5166510000000  0.4746740000000 1.0
C      1  0.4707770000000  0.5294640000000  0.5502380000000 1.0
C      1  0.4682190000000  0.5277580000000  0.4510280000000 1.0
C      1  0.4707290000000  0.4422680000000  0.5015800000000 1.0
C      1  0.5292870000000  0.5302870000000  0.4508340000000 1.0
C      1  0.5291910000000  0.5287380000000  0.5506750000000 1.0
C      1  0.5317970000000  0.4437190000000  0.4995180000000 1.0
C      1  0.5418190000000  0.4714620000000  0.4588360000000 1.0
C      1  0.5507190000000  0.4838340000000  0.5402960000000 1.0
C      1  0.5501170000000  0.5433150000000  0.4954670000000 1.0
C      1  0.4498730000000  0.4743710000000  0.5351980000000 1.0
C      1  0.4582090000000  0.4786500000000  0.4546640000000 1.0
C      1  0.4492660000000  0.5429600000000  0.5061620000000 1.0
C      1  0.5070630000000  0.5742650000000  0.4642050000000 1.0
C      1  0.4981700000000  0.4265570000000  0.4648120000000 1.0
C      1  0.5063010000000  0.4945280000000  0.5813140000000 1.0
C      1  0.4936610000000  0.5731210000000  0.5359810000000 1.0
C      1  0.4929340000000  0.4318240000000  0.5463520000000 1.0
C      1  0.5018680000000  0.5063220000000  0.4188090000000 1.0
C      1  0.4794240000000  0.4469680000000  0.5656390000000 1.0
C      1  0.4797890000000  0.5825310000000  0.5135670000000 1.0
C      1  0.4943880000000  0.4793740000000  0.4194210000000 1.0
C      1  0.5056560000000  0.4405840000000  0.4417970000000 1.0
C      1  0.5205590000000  0.5833780000000  0.4869770000000 1.0
C      1  0.5201820000000  0.4704190000000  0.5782410000000 1.0
C      1  0.5228950000000  0.4253890000000  0.4788900000000 1.0
C      1  0.5267290000000  0.5133410000000  0.5752340000000 1.0
C      1  0.5275670000000  0.5593160000000  0.4514080000000 1.0
C      1  0.4724400000000  0.4282280000000  0.5269950000000 1.0
C      1  0.4771360000000  0.5190860000000  0.4248360000000 1.0
C      1  0.4732310000000  0.5584330000000  0.5492110000000 1.0
C      1  0.4546670000000  0.5694970000000  0.5171220000000 1.0
C      1  0.4670420000000  0.4818060000000  0.4271590000000 1.0
C      1  0.4544900000000  0.4511720000000  0.5523940000000 1.0
C      1  0.5454990000000  0.5698150000000  0.4839960000000 1.0
C      1  0.5453050000000  0.4800300000000  0.5687510000000 1.0
C      1  0.5329980000000  0.4460710000000  0.4477900000000 1.0
END
