TITL C-38191-7580-423 -2.19998380196438e-06 125000 -355.454582243626 0 0 60 (Td) n - 1
REM
REM in /home/bkarasulu/CARBON/AIRSS/Generating-Clusters/EDIP-Nigel-Params/Higher-Symm/Box-15A/Only-C60/SD-CG/FIRE-HFTN
REM
REM
REM
REM
REM
REM ./C.cell (414f73aa93bd7a1190c7fd0f31ff2f98)
REM
REM compiler GCC version 9.2.1 20190827 (Red Hat 9.2.1-1)
REM options -cpp -mtune=generic -march=x86-64 -g -O0 -fpre-include=/usr/include/finclude/math-vector-fortran.h
REM seed -1118041966 -1677948665 1744252074 -2007547342 1340342151 -379981550 92556834 -1431280729 -515444476 -813464558 -796819500 -1950903720 -1447979273 -781315630 608963139 1866496186 -1393477291 -224156917 584324269 1971672693 -1956259829 -983634775 1899499049 941793605 -1323806871 -517604823 1326892345 1247846967 329298256 2026961804 1013462108 704687940 2120536102
REM
CELL 1.54180   50.00000   50.00000   50.00000   90.00000   90.00000   90.00000
LATT -1
SFAC C  
C      1  0.5029920000000  0.5247340000000  0.5463940000000 1.0
C      1  0.5463940000000  0.5029920000000  0.5247340000000 1.0
C      1  0.5247340000000  0.5463940000000  0.5029920000000 1.0
C      1  0.5029920000000  0.4752660000000  0.4536060000000 1.0
C      1  0.4970080000000  0.4752660000000  0.5463940000000 1.0
C      1  0.4970080000000  0.5247340000000  0.4536060000000 1.0
C      1  0.5463940000000  0.4970080000000  0.4752660000000 1.0
C      1  0.4536060000000  0.4970080000000  0.5247340000000 1.0
C      1  0.4536060000000  0.5029920000000  0.4752660000000 1.0
C      1  0.5247340000000  0.4536060000000  0.4970080000000 1.0
C      1  0.4752660000000  0.4536060000000  0.5029920000000 1.0
C      1  0.4752660000000  0.5463940000000  0.4970080000000 1.0
C      1  0.5029920000000  0.5463940000000  0.5247340000000 1.0
C      1  0.5463940000000  0.5247340000000  0.5029920000000 1.0
C      1  0.5247340000000  0.5029920000000  0.5463940000000 1.0
C      1  0.5029920000000  0.4536060000000  0.4752660000000 1.0
C      1  0.4970080000000  0.5463940000000  0.4752660000000 1.0
C      1  0.4970080000000  0.4536060000000  0.5247340000000 1.0
C      1  0.5463940000000  0.4752660000000  0.4970080000000 1.0
C      1  0.4536060000000  0.5247340000000  0.4970080000000 1.0
C      1  0.4536060000000  0.4752660000000  0.5029920000000 1.0
C      1  0.5247340000000  0.4970080000000  0.4536060000000 1.0
C      1  0.4752660000000  0.5029920000000  0.4536060000000 1.0
C      1  0.4752660000000  0.4970080000000  0.5463940000000 1.0
C      1  0.5344320000000  0.5735730000000  0.4990170000000 1.0
C      1  0.4990170000000  0.5344320000000  0.5735730000000 1.0
C      1  0.5735730000000  0.4990170000000  0.5344320000000 1.0
C      1  0.5344320000000  0.4264270000000  0.5009830000000 1.0
C      1  0.4655680000000  0.4264270000000  0.4990170000000 1.0
C      1  0.4655680000000  0.5735730000000  0.5009830000000 1.0
C      1  0.4990170000000  0.4655680000000  0.4264270000000 1.0
C      1  0.5009830000000  0.4655680000000  0.5735730000000 1.0
C      1  0.5009830000000  0.5344320000000  0.4264270000000 1.0
C      1  0.5735730000000  0.5009830000000  0.4655680000000 1.0
C      1  0.4264270000000  0.5009830000000  0.5344320000000 1.0
C      1  0.4264270000000  0.4990170000000  0.4655680000000 1.0
C      1  0.5344320000000  0.4990170000000  0.5735730000000 1.0
C      1  0.4990170000000  0.5735730000000  0.5344320000000 1.0
C      1  0.5735730000000  0.5344320000000  0.4990170000000 1.0
C      1  0.5344320000000  0.5009830000000  0.4264270000000 1.0
C      1  0.4655680000000  0.4990170000000  0.4264270000000 1.0
C      1  0.4655680000000  0.5009830000000  0.5735730000000 1.0
C      1  0.4990170000000  0.4264270000000  0.4655680000000 1.0
C      1  0.5009830000000  0.5735730000000  0.4655680000000 1.0
C      1  0.5009830000000  0.4264270000000  0.5344320000000 1.0
C      1  0.5735730000000  0.4655680000000  0.5009830000000 1.0
C      1  0.4264270000000  0.5344320000000  0.5009830000000 1.0
C      1  0.4264270000000  0.4655680000000  0.4990170000000 1.0
C      1  0.5860160000000  0.4894430000000  0.5105570000000 1.0
C      1  0.5105570000000  0.5860160000000  0.4894430000000 1.0
C      1  0.4894430000000  0.5105570000000  0.5860160000000 1.0
C      1  0.5860160000000  0.5105570000000  0.4894430000000 1.0
C      1  0.4139840000000  0.5105570000000  0.5105570000000 1.0
C      1  0.4139840000000  0.4894430000000  0.4894430000000 1.0
C      1  0.5105570000000  0.4139840000000  0.5105570000000 1.0
C      1  0.4894430000000  0.4139840000000  0.4894430000000 1.0
C      1  0.4894430000000  0.5860160000000  0.5105570000000 1.0
C      1  0.5105570000000  0.4894430000000  0.5860160000000 1.0
C      1  0.5105570000000  0.5105570000000  0.4139840000000 1.0
C      1  0.4894430000000  0.4894430000000  0.4139840000000 1.0
END
