TITL C-38184-643-402 1.1677440696233e-05 125000 -374.224012078409 0 0 60 (C2) n - 1
REM
REM in /home/bkarasulu/CARBON/AIRSS/Generating-Clusters/EDIP-Nigel-Params/Higher-Symm/Box-15A/Only-C60/SD-CG/FIRE-HFTN
REM
REM
REM
REM
REM
REM ./C.cell (414f73aa93bd7a1190c7fd0f31ff2f98)
REM
REM compiler GCC version 9.2.1 20190827 (Red Hat 9.2.1-1)
REM options -cpp -mtune=generic -march=x86-64 -g -O0 -fpre-include=/usr/include/finclude/math-vector-fortran.h
REM seed -606509451 -681817492 1578757470 1865188744 -174198943 1594626922 -1855956988 -380039170 -463973474 446347445 1202413331 1897456867 -494406985 -1290773556 -270367960 -2024122645 -148646196 -718692644 1202547021 2074873232 -1627263741 -67821747 1126044598 -169060474 -1853134176 -62510416 -194163585 -1774841815 1331305678 -757167155 -375764347 1830642739 -349492064
REM
CELL 1.54180   50.00000   50.00000   50.00000   90.00000   90.00000   90.00000
LATT -1
SFAC C  
C      1  0.5104580000000  0.4602840000000  0.5615420000000 1.0
C      1  0.4437540000000  0.4602170000000  0.4784250000000 1.0
C      1  0.5419650000000  0.4630390000000  0.4598680000000 1.0
C      1  0.4895420000000  0.5397160000000  0.5615420000000 1.0
C      1  0.5562460000000  0.5397830000000  0.4784250000000 1.0
C      1  0.4580350000000  0.5369610000000  0.4598680000000 1.0
C      1  0.4853670000000  0.4963430000000  0.5845050000000 1.0
C      1  0.4378050000000  0.4949580000000  0.4442960000000 1.0
C      1  0.5771600000000  0.4963730000000  0.4692630000000 1.0
C      1  0.5146330000000  0.5036570000000  0.5845050000000 1.0
C      1  0.5621950000000  0.5050420000000  0.4442960000000 1.0
C      1  0.4228400000000  0.5036270000000  0.4692630000000 1.0
C      1  0.4505840000000  0.4679210000000  0.4500920000000 1.0
C      1  0.5650970000000  0.4692760000000  0.4784400000000 1.0
C      1  0.4825370000000  0.4697620000000  0.5689770000000 1.0
C      1  0.5494160000000  0.5320790000000  0.4500920000000 1.0
C      1  0.4349030000000  0.5307240000000  0.4784400000000 1.0
C      1  0.5174630000000  0.5302380000000  0.5689770000000 1.0
C      1  0.4801520000000  0.4675510000000  0.4480260000000 1.0
C      1  0.5555550000000  0.4640290000000  0.5071760000000 1.0
C      1  0.4662700000000  0.4684540000000  0.5436160000000 1.0
C      1  0.5198480000000  0.5324490000000  0.4480260000000 1.0
C      1  0.4444450000000  0.5359710000000  0.5071760000000 1.0
C      1  0.5337300000000  0.5315460000000  0.5436160000000 1.0
C      1  0.5283000000000  0.5062050000000  0.5074630000000 1.0
C      1  0.4855510000000  0.5066310000000  0.5328700000000 1.0
C      1  0.4858820000000  0.5049350000000  0.4834860000000 1.0
C      1  0.4717000000000  0.4937950000000  0.5074630000000 1.0
C      1  0.5144490000000  0.4933690000000  0.5328700000000 1.0
C      1  0.5141180000000  0.4950650000000  0.4834860000000 1.0
C      1  0.4813080000000  0.4548160000000  0.5224180000000 1.0
C      1  0.4920890000000  0.4543190000000  0.4713000000000 1.0
C      1  0.5280150000000  0.4541510000000  0.5063600000000 1.0
C      1  0.5186920000000  0.5451840000000  0.5224180000000 1.0
C      1  0.5079110000000  0.5456810000000  0.4713000000000 1.0
C      1  0.4719850000000  0.5458490000000  0.5063600000000 1.0
C      1  0.5420280000000  0.4834260000000  0.4378480000000 1.0
C      1  0.5297340000000  0.4804390000000  0.5722400000000 1.0
C      1  0.4261150000000  0.4815920000000  0.4896210000000 1.0
C      1  0.4579720000000  0.5165740000000  0.4378480000000 1.0
C      1  0.4702660000000  0.5195610000000  0.5722400000000 1.0
C      1  0.5738850000000  0.5184080000000  0.4896210000000 1.0
C      1  0.5285190000000  0.5424750000000  0.4929630000000 1.0
C      1  0.4900100000000  0.5381690000000  0.5295650000000 1.0
C      1  0.4815290000000  0.5346790000000  0.4796500000000 1.0
C      1  0.4714810000000  0.4575250000000  0.4929630000000 1.0
C      1  0.5099900000000  0.4618310000000  0.5295650000000 1.0
C      1  0.5184710000000  0.4653210000000  0.4796500000000 1.0
C      1  0.4388850000000  0.4752720000000  0.5378480000000 1.0
C      1  0.4940060000000  0.4734960000000  0.4233550000000 1.0
C      1  0.5653970000000  0.4745320000000  0.5325440000000 1.0
C      1  0.5611150000000  0.5247280000000  0.5378480000000 1.0
C      1  0.5059940000000  0.5265040000000  0.4233550000000 1.0
C      1  0.4346030000000  0.5254680000000  0.5325440000000 1.0
C      1  0.4515690000000  0.5094190000000  0.5515900000000 1.0
C      1  0.4820010000000  0.5101740000000  0.4215040000000 1.0
C      1  0.5594980000000  0.5074190000000  0.5131470000000 1.0
C      1  0.5484310000000  0.4905810000000  0.5515900000000 1.0
C      1  0.5179990000000  0.4898260000000  0.4215040000000 1.0
C      1  0.4405020000000  0.4925810000000  0.5131470000000 1.0
END
