TITL C-38195-9455-455 0.000474584822111855 125000 -344.399976032283 0 0 60 (C1) n - 1
REM
REM in /home/bkarasulu/CARBON/AIRSS/Generating-Clusters/EDIP-Nigel-Params/Higher-Symm/Box-15A/Only-C60/SD-CG/FIRE-HFTN
REM
REM
REM
REM
REM
REM ./C.cell (414f73aa93bd7a1190c7fd0f31ff2f98)
REM
REM compiler GCC version 9.2.1 20190827 (Red Hat 9.2.1-1)
REM options -cpp -mtune=generic -march=x86-64 -g -O0 -fpre-include=/usr/include/finclude/math-vector-fortran.h
REM seed 1358983393 -1886152296 -1162849392 778144590 937988937 659471560 1241094561 2081905666 705893382 -131082699 -764840697 1388363194 1481800371 1788861942 -667120930 -371982574 -1530329361 -1143816569 -1850000688 1284221491 -569039068 -1870475422 -1558826834 -1437706892 -1486818547 232914957 -1555854083 959831645 -1316514666 -1180269972 1031566871 -527668133 -313476147
REM
CELL 1.54180   50.00000   50.00000   50.00000   90.00000   90.00000   90.00000
LATT -1
SFAC C  
C      1  0.4575840000000  0.5096160000000  0.5617330000000 1.0
C      1  0.5753680000000  0.5098550000000  0.5037230000000 1.0
C      1  0.4663020000000  0.5098340000000  0.4306040000000 1.0
C      1  0.4893730000000  0.5250520000000  0.4289330000000 1.0
C      1  0.4445450000000  0.5248770000000  0.5426570000000 1.0
C      1  0.5653500000000  0.5250680000000  0.5245720000000 1.0
C      1  0.5310800000000  0.4916720000000  0.4320780000000 1.0
C      1  0.4264320000000  0.4916730000000  0.5047910000000 1.0
C      1  0.5418170000000  0.4916520000000  0.5590860000000 1.0
C      1  0.4500350000000  0.4782390000000  0.4939010000000 1.0
C      1  0.5206180000000  0.4781900000000  0.5440790000000 1.0
C      1  0.5287360000000  0.4781840000000  0.4579570000000 1.0
C      1  0.5565950000000  0.5113960000000  0.5469920000000 1.0
C      1  0.5131770000000  0.5113880000000  0.4253350000000 1.0
C      1  0.4295240000000  0.5112610000000  0.5238030000000 1.0
C      1  0.4577870000000  0.5489080000000  0.5349730000000 1.0
C      1  0.5520180000000  0.5490790000000  0.5169880000000 1.0
C      1  0.4894310000000  0.5490390000000  0.4443110000000 1.0
C      1  0.5036460000000  0.4957660000000  0.5604260000000 1.0
C      1  0.5513060000000  0.4959290000000  0.4644330000000 1.0
C      1  0.4443920000000  0.4959450000000  0.4711160000000 1.0
C      1  0.5475180000000  0.4713650000000  0.5029030000000 1.0
C      1  0.4796810000000  0.4713100000000  0.4549310000000 1.0
C      1  0.4719830000000  0.4712470000000  0.5378180000000 1.0
C      1  0.5390000000000  0.4355840000000  0.5355240000000 1.0
C      1  0.5122370000000  0.4355410000000  0.4463140000000 1.0
C      1  0.4481930000000  0.4354900000000  0.5138990000000 1.0
C      1  0.5426790000000  0.4380380000000  0.4847480000000 1.0
C      1  0.4663180000000  0.4380880000000  0.4683630000000 1.0
C      1  0.4904560000000  0.4381200000000  0.5423360000000 1.0
C      1  0.5145230000000  0.5541670000000  0.5223460000000 1.0
C      1  0.5127050000000  0.5541010000000  0.4741960000000 1.0
C      1  0.4719140000000  0.5540970000000  0.4998470000000 1.0
C      1  0.4847760000000  0.4421440000000  0.4447780000000 1.0
C      1  0.4607280000000  0.4420060000000  0.5383860000000 1.0
C      1  0.5539310000000  0.4422640000000  0.5124660000000 1.0
C      1  0.5174590000000  0.4484460000000  0.5485240000000 1.0
C      1  0.5342850000000  0.4484630000000  0.4584020000000 1.0
C      1  0.4477080000000  0.4485040000000  0.4888260000000 1.0
C      1  0.5020980000000  0.4838200000000  0.4706720000000 1.0
C      1  0.4743420000000  0.4839830000000  0.5106140000000 1.0
C      1  0.5228130000000  0.4839990000000  0.5146750000000 1.0
C      1  0.5657860000000  0.4893050000000  0.4878660000000 1.0
C      1  0.4574450000000  0.4892780000000  0.4468700000000 1.0
C      1  0.4761230000000  0.4890830000000  0.5611950000000 1.0
C      1  0.5371910000000  0.5654500000000  0.5336850000000 1.0
C      1  0.5112990000000  0.5653950000000  0.4488930000000 1.0
C      1  0.4507450000000  0.5653330000000  0.5138240000000 1.0
C      1  0.4987670000000  0.3388800000000  0.5005640000000 1.0
C      1  0.4996400000000  0.6455380000000  0.4987750000000 1.0
C      1  0.4996770000000  0.5926710000000  0.4987450000000 1.0
C      1  0.4996230000000  0.6719230000000  0.4987900000000 1.0
C      1  0.4996470000000  0.4445960000000  0.4991270000000 1.0
C      1  0.4995770000000  0.3907900000000  0.4988350000000 1.0
C      1  0.4996080000000  0.6974940000000  0.4987990000000 1.0
C      1  0.4997430000000  0.4742920000000  0.4987120000000 1.0
C      1  0.4993480000000  0.3644090000000  0.4992210000000 1.0
C      1  0.5004010000000  0.4172770000000  0.4968410000000 1.0
C      1  0.4996570000000  0.6191530000000  0.4987670000000 1.0
C      1  0.4997040000000  0.5642400000000  0.4987830000000 1.0
END
