TITL C-38196-2854-164 3.41931404004391e-06 125000 -354.8626911414 0 0 60 (D5h) n - 1
REM
REM in /home/bkarasulu/CARBON/AIRSS/Generating-Clusters/EDIP-Nigel-Params/Higher-Symm/Box-15A/Only-C60/SD-CG/FIRE-HFTN
REM
REM
REM
REM
REM
REM ./C.cell (414f73aa93bd7a1190c7fd0f31ff2f98)
REM
REM compiler GCC version 9.2.1 20190827 (Red Hat 9.2.1-1)
REM options -cpp -mtune=generic -march=x86-64 -g -O0 -fpre-include=/usr/include/finclude/math-vector-fortran.h
REM seed -1962740590 -35975305 754426931 1390407060 396719736 37243680 1333576703 -187548658 -758701871 938735059 882109025 -1372476525 -2138719234 998165177 1222448975 -1006268921 1586191917 -982309506 -1069183210 -212127644 784550538 -1033990746 -117014595 -94552921 1042487740 404236328 -176154416 113593202 2132720336 1530628583 -1816655035 -757727653 670369012
REM
CELL 1.54180   50.00000   50.00000   50.00000   90.00000   90.00000   90.00000
LATT -1
SFAC C  
C      1  0.5075180000000  0.4451880000000  0.4768630000000 1.0
C      1  0.4803190000000  0.4451880000000  0.4857010000000 1.0
C      1  0.4803190000000  0.4451880000000  0.5142990000000 1.0
C      1  0.5075180000000  0.4451880000000  0.5231370000000 1.0
C      1  0.5243270000000  0.4451880000000  0.5000000000000 1.0
C      1  0.5075180000000  0.5548120000000  0.5231370000000 1.0
C      1  0.4803190000000  0.5548120000000  0.5142990000000 1.0
C      1  0.4803190000000  0.5548120000000  0.4857010000000 1.0
C      1  0.5075180000000  0.5548120000000  0.4768630000000 1.0
C      1  0.5243270000000  0.5548120000000  0.5000000000000 1.0
C      1  0.5959960000000  0.4761330000000  0.5000000000000 1.0
C      1  0.5296640000000  0.4761330000000  0.4087020000000 1.0
C      1  0.4223380000000  0.4761330000000  0.4435750000000 1.0
C      1  0.4223380000000  0.4761330000000  0.5564250000000 1.0
C      1  0.5296640000000  0.4761330000000  0.5912980000000 1.0
C      1  0.5959960000000  0.5238670000000  0.5000000000000 1.0
C      1  0.5296640000000  0.5238670000000  0.5912980000000 1.0
C      1  0.4223380000000  0.5238670000000  0.5564250000000 1.0
C      1  0.4223380000000  0.5238670000000  0.4435750000000 1.0
C      1  0.5296640000000  0.5238670000000  0.4087020000000 1.0
C      1  0.5534090000000  0.5000000000000  0.4447520000000 1.0
C      1  0.4639610000000  0.5000000000000  0.4321330000000 1.0
C      1  0.4243170000000  0.5000000000000  0.5133030000000 1.0
C      1  0.4892650000000  0.5000000000000  0.5760890000000 1.0
C      1  0.5690480000000  0.5000000000000  0.5337230000000 1.0
C      1  0.5534090000000  0.5000000000000  0.5552480000000 1.0
C      1  0.4639610000000  0.5000000000000  0.5678670000000 1.0
C      1  0.4243170000000  0.5000000000000  0.4866970000000 1.0
C      1  0.4892650000000  0.5000000000000  0.4239110000000 1.0
C      1  0.5690480000000  0.5000000000000  0.4662770000000 1.0
C      1  0.5756800000000  0.4573620000000  0.5000000000000 1.0
C      1  0.5233860000000  0.4573620000000  0.4280240000000 1.0
C      1  0.4387730000000  0.4573620000000  0.4555160000000 1.0
C      1  0.4387730000000  0.4573620000000  0.5444840000000 1.0
C      1  0.5233860000000  0.4573620000000  0.5719760000000 1.0
C      1  0.5756800000000  0.5426380000000  0.5000000000000 1.0
C      1  0.5233860000000  0.5426380000000  0.5719760000000 1.0
C      1  0.4387730000000  0.5426380000000  0.5444840000000 1.0
C      1  0.4387730000000  0.5426380000000  0.4555160000000 1.0
C      1  0.5233860000000  0.5426380000000  0.4280240000000 1.0
C      1  0.4358920000000  0.5000000000000  0.4285740000000 1.0
C      1  0.4122600000000  0.5000000000000  0.5388990000000 1.0
C      1  0.5098820000000  0.5000000000000  0.5954660000000 1.0
C      1  0.5938480000000  0.5000000000000  0.5201030000000 1.0
C      1  0.5481190000000  0.5000000000000  0.4169580000000 1.0
C      1  0.4358920000000  0.5000000000000  0.5714260000000 1.0
C      1  0.4122600000000  0.5000000000000  0.4611010000000 1.0
C      1  0.5098820000000  0.5000000000000  0.4045340000000 1.0
C      1  0.5938480000000  0.5000000000000  0.4798970000000 1.0
C      1  0.5481190000000  0.5000000000000  0.5830420000000 1.0
C      1  0.5159740000000  0.4460950000000  0.4508360000000 1.0
C      1  0.4581790000000  0.4460950000000  0.4696150000000 1.0
C      1  0.4581790000000  0.4460950000000  0.5303850000000 1.0
C      1  0.5159740000000  0.4460950000000  0.5491640000000 1.0
C      1  0.5516940000000  0.4460950000000  0.5000000000000 1.0
C      1  0.5159740000000  0.5539050000000  0.5491640000000 1.0
C      1  0.4581790000000  0.5539050000000  0.5303850000000 1.0
C      1  0.4581790000000  0.5539050000000  0.4696150000000 1.0
C      1  0.5159740000000  0.5539050000000  0.4508360000000 1.0
C      1  0.5516940000000  0.5539050000000  0.5000000000000 1.0
END
