TITL C-38195-9455-430 -3.34889360617219e-07 125000 -359.655439269984 0 0 60 (S10) n - 1
REM
REM in /home/bkarasulu/CARBON/AIRSS/Generating-Clusters/EDIP-Nigel-Params/Higher-Symm/Box-15A/Only-C60/SD-CG/FIRE-HFTN
REM
REM
REM
REM
REM
REM ./C.cell (414f73aa93bd7a1190c7fd0f31ff2f98)
REM
REM compiler GCC version 9.2.1 20190827 (Red Hat 9.2.1-1)
REM options -cpp -mtune=generic -march=x86-64 -g -O0 -fpre-include=/usr/include/finclude/math-vector-fortran.h
REM seed -1893350119 1651950868 -1889276201 -60299880 -1806908767 403533166 -1417165095 -448728842 938805145 851231205 1891055727 -1016084420 -2140766909 -1839380108 174065691 1238168486 768324333 729888677 -1437162993 -408345735 1151355759 579227806 329123896 1659972011 1399462566 666227344 567398201 -994825670 1740341553 -1160693777 191287696 1973125035 1050866643
REM
CELL 1.54180   50.00000   50.00000   50.00000   90.00000   90.00000   90.00000
LATT -1
SFAC C  
C      1  0.4459420000000  0.5159770000000  0.4518460000000 1.0
C      1  0.5540590000000  0.4846220000000  0.4516510000000 1.0
C      1  0.4459420000000  0.4591400000000  0.4699240000000 1.0
C      1  0.5540580000000  0.4492650000000  0.4996850000000 1.0
C      1  0.4459410000000  0.4587700000000  0.5295660000000 1.0
C      1  0.5540580000000  0.4840230000000  0.5481540000000 1.0
C      1  0.4459410000000  0.5153780000000  0.5483490000000 1.0
C      1  0.5540580000000  0.5408600000000  0.5300760000000 1.0
C      1  0.4459420000000  0.5507350000000  0.5003150000000 1.0
C      1  0.5540590000000  0.5412300000000  0.4704340000000 1.0
C      1  0.5203570000000  0.5079760000000  0.4753680000000 1.0
C      1  0.4796430000000  0.4919750000000  0.4753840000000 1.0
C      1  0.5203570000000  0.4790390000000  0.4848020000000 1.0
C      1  0.4796430000000  0.4741090000000  0.5000260000000 1.0
C      1  0.5203570000000  0.4790690000000  0.5152390000000 1.0
C      1  0.4796430000000  0.4920240000000  0.5246320000000 1.0
C      1  0.5203570000000  0.5080250000000  0.5246160000000 1.0
C      1  0.4796430000000  0.5209610000000  0.5151980000000 1.0
C      1  0.5203570000000  0.5258910000000  0.4999740000000 1.0
C      1  0.4796430000000  0.5209310000000  0.4847610000000 1.0
C      1  0.5361120000000  0.5588050000000  0.4572290000000 1.0
C      1  0.4638880000000  0.5224340000000  0.4308330000000 1.0
C      1  0.5361120000000  0.4774940000000  0.4308560000000 1.0
C      1  0.4638880000000  0.4411510000000  0.4572900000000 1.0
C      1  0.5361120000000  0.4272860000000  0.5000380000000 1.0
C      1  0.4638880000000  0.4411950000000  0.5427710000000 1.0
C      1  0.5361120000000  0.4775660000000  0.5691670000000 1.0
C      1  0.4638880000000  0.5225060000000  0.5691440000000 1.0
C      1  0.5361120000000  0.5588490000000  0.5427100000000 1.0
C      1  0.4638880000000  0.5727140000000  0.4999620000000 1.0
C      1  0.4549110000000  0.5353380000000  0.4744070000000 1.0
C      1  0.5450890000000  0.5135460000000  0.4585240000000 1.0
C      1  0.4549110000000  0.4865800000000  0.4584830000000 1.0
C      1  0.5450890000000  0.4647400000000  0.4743000000000 1.0
C      1  0.4549110000000  0.4563680000000  0.4999340000000 1.0
C      1  0.5450890000000  0.4646620000000  0.5255930000000 1.0
C      1  0.4549110000000  0.4864540000000  0.5414760000000 1.0
C      1  0.5450890000000  0.5134200000000  0.5415170000000 1.0
C      1  0.4549110000000  0.5352600000000  0.5257000000000 1.0
C      1  0.5450890000000  0.5436320000000  0.5000660000000 1.0
C      1  0.5134800000000  0.5647120000000  0.5029560000000 1.0
C      1  0.4865200000000  0.5540900000000  0.4643550000000 1.0
C      1  0.5134800000000  0.5228080000000  0.4393690000000 1.0
C      1  0.4865200000000  0.4828140000000  0.4375420000000 1.0
C      1  0.5134800000000  0.4493840000000  0.4595720000000 1.0
C      1  0.4865200000000  0.4352880000000  0.4970440000000 1.0
C      1  0.5134800000000  0.4459100000000  0.5356450000000 1.0
C      1  0.4865200000000  0.4771920000000  0.5606310000000 1.0
C      1  0.5134800000000  0.5171860000000  0.5624580000000 1.0
C      1  0.4865200000000  0.5506160000000  0.5404280000000 1.0
C      1  0.5108970000000  0.5653730000000  0.5318660000000 1.0
C      1  0.4891030000000  0.5716190000000  0.4873550000000 1.0
C      1  0.5108970000000  0.5505080000000  0.4476730000000 1.0
C      1  0.4891030000000  0.5101050000000  0.4279790000000 1.0
C      1  0.5108970000000  0.4658420000000  0.4357940000000 1.0
C      1  0.4891030000000  0.4346270000000  0.4681340000000 1.0
C      1  0.5108970000000  0.4283810000000  0.5126450000000 1.0
C      1  0.4891030000000  0.4494920000000  0.5523270000000 1.0
C      1  0.5108970000000  0.4898950000000  0.5720210000000 1.0
C      1  0.4891030000000  0.5341580000000  0.5642060000000 1.0
END
