TITL C-38186-4112-161 -3.90696271829581e-06 125000 -361.068068065416 0 0 60 (C1) n - 1
REM
REM in /home/bkarasulu/CARBON/AIRSS/Generating-Clusters/EDIP-Nigel-Params/Higher-Symm/Box-15A/Only-C60/SD-CG/FIRE-HFTN
REM
REM
REM
REM
REM
REM ./C.cell (414f73aa93bd7a1190c7fd0f31ff2f98)
REM
REM compiler GCC version 9.2.1 20190827 (Red Hat 9.2.1-1)
REM options -cpp -mtune=generic -march=x86-64 -g -O0 -fpre-include=/usr/include/finclude/math-vector-fortran.h
REM seed -1364851785 -2019837075 1902268558 1440655677 -1058797871 162673920 -372217880 -1965994751 551158169 1708728706 -846219252 1689111005 -1071055416 -1536617503 -1799704829 1985794670 502708726 1455260769 1160309019 2004260950 366573126 -139940078 -1880907560 -1112002479 208921882 1692634502 -977714926 1534283977 -1884886287 2125662916 -1495303180 1155678475 1779320326
REM
CELL 1.54180   50.00000   50.00000   50.00000   90.00000   90.00000   90.00000
LATT -1
SFAC C  
C      1  0.5401750000000  0.5228110000000  0.5514490000000 1.0
C      1  0.5339720000000  0.4780140000000  0.4507680000000 1.0
C      1  0.5340630000000  0.4180730000000  0.5148500000000 1.0
C      1  0.4659060000000  0.4410910000000  0.5045050000000 1.0
C      1  0.5368640000000  0.4355300000000  0.4706080000000 1.0
C      1  0.5311260000000  0.5439330000000  0.4678690000000 1.0
C      1  0.5757280000000  0.5009360000000  0.5235350000000 1.0
C      1  0.5269270000000  0.5306350000000  0.4420370000000 1.0
C      1  0.4285540000000  0.5038080000000  0.4891590000000 1.0
C      1  0.5607600000000  0.4792330000000  0.4570720000000 1.0
C      1  0.4532990000000  0.5541290000000  0.5138810000000 1.0
C      1  0.5540080000000  0.5449360000000  0.5126020000000 1.0
C      1  0.5552690000000  0.5395670000000  0.4836730000000 1.0
C      1  0.5366360000000  0.4456120000000  0.5586600000000 1.0
C      1  0.4380250000000  0.4779500000000  0.4911120000000 1.0
C      1  0.4806790000000  0.5164090000000  0.5495260000000 1.0
C      1  0.4927530000000  0.5449720000000  0.5456610000000 1.0
C      1  0.5233850000000  0.4991110000000  0.4323700000000 1.0
C      1  0.4548610000000  0.4450480000000  0.5306130000000 1.0
C      1  0.4506620000000  0.5675130000000  0.4884750000000 1.0
C      1  0.4951790000000  0.4500730000000  0.4537700000000 1.0
C      1  0.4819260000000  0.4691210000000  0.5700190000000 1.0
C      1  0.5736020000000  0.5201310000000  0.4758370000000 1.0
C      1  0.4577880000000  0.4599190000000  0.4840390000000 1.0
C      1  0.4223000000000  0.5195080000000  0.5359850000000 1.0
C      1  0.4805520000000  0.4738720000000  0.5376990000000 1.0
C      1  0.5161430000000  0.5676590000000  0.4736140000000 1.0
C      1  0.5264870000000  0.4956290000000  0.5593650000000 1.0
C      1  0.4993770000000  0.5033290000000  0.5021320000000 1.0
C      1  0.4460220000000  0.5038840000000  0.4458350000000 1.0
C      1  0.5234230000000  0.5468450000000  0.5447210000000 1.0
C      1  0.5746880000000  0.4924100000000  0.4769440000000 1.0
C      1  0.5318530000000  0.4691250000000  0.5428330000000 1.0
C      1  0.5711660000000  0.4818960000000  0.5038120000000 1.0
C      1  0.5071140000000  0.4661230000000  0.5256940000000 1.0
C      1  0.4923240000000  0.5760810000000  0.4601310000000 1.0
C      1  0.4956460000000  0.4974420000000  0.5688080000000 1.0
C      1  0.4706330000000  0.4911200000000  0.4472240000000 1.0
C      1  0.5470620000000  0.4369930000000  0.4966550000000 1.0
C      1  0.4943960000000  0.5751670000000  0.5042700000000 1.0
C      1  0.4756250000000  0.5813100000000  0.4826640000000 1.0
C      1  0.5375150000000  0.4246860000000  0.5417380000000 1.0
C      1  0.5042100000000  0.5102370000000  0.5300510000000 1.0
C      1  0.4994080000000  0.5293520000000  0.4311270000000 1.0
C      1  0.5085180000000  0.4107300000000  0.5061900000000 1.0
C      1  0.4843520000000  0.4207660000000  0.5003520000000 1.0
C      1  0.4134600000000  0.5158210000000  0.5100530000000 1.0
C      1  0.5474660000000  0.4646240000000  0.5082340000000 1.0
C      1  0.5614610000000  0.5235830000000  0.5313390000000 1.0
C      1  0.4646270000000  0.4472000000000  0.5576870000000 1.0
C      1  0.5226720000000  0.4518650000000  0.4531980000000 1.0
C      1  0.5347540000000  0.5626240000000  0.5238360000000 1.0
C      1  0.4724670000000  0.4648100000000  0.4593540000000 1.0
C      1  0.4913990000000  0.5007990000000  0.4291960000000 1.0
C      1  0.4298550000000  0.5647480000000  0.4702720000000 1.0
C      1  0.4208950000000  0.5416200000000  0.4602440000000 1.0
C      1  0.4793880000000  0.5607680000000  0.5243640000000 1.0
C      1  0.5124830000000  0.4789850000000  0.5006250000000 1.0
C      1  0.4274650000000  0.5149210000000  0.4629580000000 1.0
C      1  0.4306450000000  0.5449160000000  0.5287040000000 1.0
END
