TITL C-38192-7909-612 5.89132640381719e-05 125000 -356.172093806393 0 0 60 (C5) n - 1
REM
REM in /home/bkarasulu/CARBON/AIRSS/Generating-Clusters/EDIP-Nigel-Params/Higher-Symm/Box-15A/Only-C60/SD-CG/FIRE-HFTN
REM
REM
REM
REM
REM
REM ./C.cell (414f73aa93bd7a1190c7fd0f31ff2f98)
REM
REM compiler GCC version 9.2.1 20190827 (Red Hat 9.2.1-1)
REM options -cpp -mtune=generic -march=x86-64 -g -O0 -fpre-include=/usr/include/finclude/math-vector-fortran.h
REM seed 991971301 1161475638 197164888 -665097809 -146940016 1619261158 -2082341341 -1578674538 -730694366 -1799634960 -565088609 -1342201546 1990274739 -1415097724 -1112152232 2068679808 789547623 1767481061 1922674567 -1847392046 1166967068 -878182810 -1499842082 1832886062 -548384961 940269038 -1865183228 -898883658 -1232145034 971832744 1005077600 -433485020 -1394360517
REM
CELL 1.54180   50.00000   50.00000   50.00000   90.00000   90.00000   90.00000
LATT -1
SFAC C  
C      1  0.4756130000000  0.4998690000000  0.4921160000000 1.0
C      1  0.4999620000000  0.4998690000000  0.4743710000000 1.0
C      1  0.5243630000000  0.4998690000000  0.4920440000000 1.0
C      1  0.5150950000000  0.4998690000000  0.5207120000000 1.0
C      1  0.4849660000000  0.4998690000000  0.5207570000000 1.0
C      1  0.5474970000000  0.5576460000000  0.5555950000000 1.0
C      1  0.4618040000000  0.5576460000000  0.5623520000000 1.0
C      1  0.4288960000000  0.5576460000000  0.4829410000000 1.0
C      1  0.4942510000000  0.5576460000000  0.4271050000000 1.0
C      1  0.5675510000000  0.5576460000000  0.4720070000000 1.0
C      1  0.5011820000000  0.4766210000000  0.4549090000000 1.0
C      1  0.5432500000000  0.4766210000000  0.4871900000000 1.0
C      1  0.5255470000000  0.4766210000000  0.5371740000000 1.0
C      1  0.4725400000000  0.4766210000000  0.5357850000000 1.0
C      1  0.4574810000000  0.4766210000000  0.4849420000000 1.0
C      1  0.4524450000000  0.4728290000000  0.4554550000000 1.0
C      1  0.5276690000000  0.4728290000000  0.4410070000000 1.0
C      1  0.5646560000000  0.4728290000000  0.5080850000000 1.0
C      1  0.5122900000000  0.4728290000000  0.5639900000000 1.0
C      1  0.4429400000000  0.4728290000000  0.5314630000000 1.0
C      1  0.4789440000000  0.5609610000000  0.4874050000000 1.0
C      1  0.5054720000000  0.5609610000000  0.4760830000000 1.0
C      1  0.5244380000000  0.5609610000000  0.4978130000000 1.0
C      1  0.5096320000000  0.5609610000000  0.5225660000000 1.0
C      1  0.4815150000000  0.5609610000000  0.5161330000000 1.0
C      1  0.4903850000000  0.4241700000000  0.4770570000000 1.0
C      1  0.5188490000000  0.4241700000000  0.4837660000000 1.0
C      1  0.5212640000000  0.4241700000000  0.5129100000000 1.0
C      1  0.4942930000000  0.4241700000000  0.5242130000000 1.0
C      1  0.4752090000000  0.4241700000000  0.5020550000000 1.0
C      1  0.5096770000000  0.4969080000000  0.5782380000000 1.0
C      1  0.4285820000000  0.4969080000000  0.5333800000000 1.0
C      1  0.4461840000000  0.4969080000000  0.4423920000000 1.0
C      1  0.5381580000000  0.4969080000000  0.4310160000000 1.0
C      1  0.5773990000000  0.4969080000000  0.5149730000000 1.0
C      1  0.4880790000000  0.4331370000000  0.5502470000000 1.0
C      1  0.4485280000000  0.4331370000000  0.5041890000000 1.0
C      1  0.4801100000000  0.4331370000000  0.4523420000000 1.0
C      1  0.5391790000000  0.4331370000000  0.4663560000000 1.0
C      1  0.5441040000000  0.4331370000000  0.5268650000000 1.0
C      1  0.5205680000000  0.5534730000000  0.5484740000000 1.0
C      1  0.4602540000000  0.5534730000000  0.5345410000000 1.0
C      1  0.4548670000000  0.5534730000000  0.4728730000000 1.0
C      1  0.5118520000000  0.5534730000000  0.4486940000000 1.0
C      1  0.5524580000000  0.5534730000000  0.4954180000000 1.0
C      1  0.4290630000000  0.5425640000000  0.4584760000000 1.0
C      1  0.5175710000000  0.5425640000000  0.4197040000000 1.0
C      1  0.5817960000000  0.5425640000000  0.4918980000000 1.0
C      1  0.5329820000000  0.5425640000000  0.5752890000000 1.0
C      1  0.4385880000000  0.5425640000000  0.5546330000000 1.0
C      1  0.4354960000000  0.5213480000000  0.4415590000000 1.0
C      1  0.5356480000000  0.5213480000000  0.4205940000000 1.0
C      1  0.5865350000000  0.5213480000000  0.5093650000000 1.0
C      1  0.5178340000000  0.5213480000000  0.5851940000000 1.0
C      1  0.4244870000000  0.5213480000000  0.5432880000000 1.0
C      1  0.4406740000000  0.4604750000000  0.5042990000000 1.0
C      1  0.4775780000000  0.4604750000000  0.4449060000000 1.0
C      1  0.5454690000000  0.4604750000000  0.4616510000000 1.0
C      1  0.5505230000000  0.4604750000000  0.5313930000000 1.0
C      1  0.4857560000000  0.4604750000000  0.5577510000000 1.0
END
