TITL C-38187-2739-120 -0.000155334778472005 125000 -364.674107554836 0 0 60 (D2) n - 1
REM
REM in /home/bkarasulu/CARBON/AIRSS/Generating-Clusters/EDIP-Nigel-Params/Higher-Symm/Box-15A/Only-C60/SD-CG/FIRE-HFTN
REM
REM
REM
REM
REM
REM ./C.cell (414f73aa93bd7a1190c7fd0f31ff2f98)
REM
REM compiler GCC version 9.2.1 20190827 (Red Hat 9.2.1-1)
REM options -cpp -mtune=generic -march=x86-64 -g -O0 -fpre-include=/usr/include/finclude/math-vector-fortran.h
REM seed -1744082316 765101800 -1236989593 -1412522958 428631171 -778829298 -1708377141 975780487 646346942 1007166037 1451088458 511460341 739965944 1145150612 -1788937010 -1391828719 -923490599 2066852756 1537847757 -725432780 1229536089 1957163981 -1182590110 -572303305 1719848402 1095859067 281898786 968603541 -2030949414 -166851869 881383495 981185201 -1081377414
REM
CELL 1.54180   50.00000   50.00000   50.00000   90.00000   90.00000   90.00000
LATT -1
SFAC C  
C      1  0.5329690000000  0.5487290000000  0.4886580000000 1.0
C      1  0.5595660000000  0.4947080000000  0.4865900000000 1.0
C      1  0.5260190000000  0.4461200000000  0.4831940000000 1.0
C      1  0.4670310000000  0.4512710000000  0.4886580000000 1.0
C      1  0.4404340000000  0.5052920000000  0.4865900000000 1.0
C      1  0.4739810000000  0.5538800000000  0.4831940000000 1.0
C      1  0.5329690000000  0.4512710000000  0.5113420000000 1.0
C      1  0.5595660000000  0.5052920000000  0.5134100000000 1.0
C      1  0.5260190000000  0.5538800000000  0.5168060000000 1.0
C      1  0.4670310000000  0.5487290000000  0.5113420000000 1.0
C      1  0.4404340000000  0.4947080000000  0.5134100000000 1.0
C      1  0.4739810000000  0.4461200000000  0.5168060000000 1.0
C      1  0.5363850000000  0.5246530000000  0.4389710000000 1.0
C      1  0.5477800000000  0.4780310000000  0.4353780000000 1.0
C      1  0.5070800000000  0.4543080000000  0.4359620000000 1.0
C      1  0.4636150000000  0.4753470000000  0.4389710000000 1.0
C      1  0.4522200000000  0.5219690000000  0.4353780000000 1.0
C      1  0.4929200000000  0.5456920000000  0.4359620000000 1.0
C      1  0.5363850000000  0.4753470000000  0.5610290000000 1.0
C      1  0.5477800000000  0.5219690000000  0.5646220000000 1.0
C      1  0.5070800000000  0.5456920000000  0.5640380000000 1.0
C      1  0.4636150000000  0.5246530000000  0.5610290000000 1.0
C      1  0.4522200000000  0.4780310000000  0.5646220000000 1.0
C      1  0.4929200000000  0.4543080000000  0.5640380000000 1.0
C      1  0.5162140000000  0.5240440000000  0.4858560000000 1.0
C      1  0.5302300000000  0.4967710000000  0.4801150000000 1.0
C      1  0.5121770000000  0.4714100000000  0.4736710000000 1.0
C      1  0.4837860000000  0.4759560000000  0.4858560000000 1.0
C      1  0.4697700000000  0.5032290000000  0.4801150000000 1.0
C      1  0.4878230000000  0.5285900000000  0.4736710000000 1.0
C      1  0.5162140000000  0.4759560000000  0.5141440000000 1.0
C      1  0.5302300000000  0.5032290000000  0.5198850000000 1.0
C      1  0.5121770000000  0.5285900000000  0.5263290000000 1.0
C      1  0.4837860000000  0.5240440000000  0.5141440000000 1.0
C      1  0.4697700000000  0.4967710000000  0.5198850000000 1.0
C      1  0.4878230000000  0.4714100000000  0.5263290000000 1.0
C      1  0.5350080000000  0.5462430000000  0.5596460000000 1.0
C      1  0.5542300000000  0.4961620000000  0.5564350000000 1.0
C      1  0.5189850000000  0.4550910000000  0.5533190000000 1.0
C      1  0.4649920000000  0.4537570000000  0.5596460000000 1.0
C      1  0.4457700000000  0.5038380000000  0.5564350000000 1.0
C      1  0.4810150000000  0.5449090000000  0.5533190000000 1.0
C      1  0.5350080000000  0.4537570000000  0.4403540000000 1.0
C      1  0.5542300000000  0.5038380000000  0.4435650000000 1.0
C      1  0.5189850000000  0.5449090000000  0.4466810000000 1.0
C      1  0.4649920000000  0.5462430000000  0.4403540000000 1.0
C      1  0.4457700000000  0.4961620000000  0.4435650000000 1.0
C      1  0.4810150000000  0.4550910000000  0.4466810000000 1.0
C      1  0.5274950000000  0.4361710000000  0.5341480000000 1.0
C      1  0.4562270000000  0.4389150000000  0.5371520000000 1.0
C      1  0.4275130000000  0.5062370000000  0.5351300000000 1.0
C      1  0.4725050000000  0.5638290000000  0.5341480000000 1.0
C      1  0.5437730000000  0.5610850000000  0.5371520000000 1.0
C      1  0.5724870000000  0.4937630000000  0.5351300000000 1.0
C      1  0.5274950000000  0.5638290000000  0.4658520000000 1.0
C      1  0.4562270000000  0.5610850000000  0.4628480000000 1.0
C      1  0.4275130000000  0.4937630000000  0.4648700000000 1.0
C      1  0.4725050000000  0.4361710000000  0.4658520000000 1.0
C      1  0.5437730000000  0.4389150000000  0.4628480000000 1.0
C      1  0.5724870000000  0.5062370000000  0.4648700000000 1.0
END
