TITL C-38187-2739-258 2.4111005194476e-06 125000 -364.282152649122 0 0 60 (C5) n - 1
REM
REM in /home/bkarasulu/CARBON/AIRSS/Generating-Clusters/EDIP-Nigel-Params/Higher-Symm/Box-15A/Only-C60/SD-CG/FIRE-HFTN
REM
REM
REM
REM
REM
REM ./C.cell (414f73aa93bd7a1190c7fd0f31ff2f98)
REM
REM compiler GCC version 9.2.1 20190827 (Red Hat 9.2.1-1)
REM options -cpp -mtune=generic -march=x86-64 -g -O0 -fpre-include=/usr/include/finclude/math-vector-fortran.h
REM seed 1131798021 719360829 -552345051 1001267745 714787198 1480582555 -1545357601 -329613697 566912020 -1802928954 963863935 1382363182 -764316927 -1774287606 -2127367482 -454334528 543613812 1196664809 -1721853939 -1058374368 392888586 -669420582 1609025992 191468758 1621885962 903205998 -1089160777 523838049 570908275 73905893 1581402749 1186823769 1605184163
REM
CELL 1.54180   50.00000   50.00000   50.00000   90.00000   90.00000   90.00000
LATT -1
SFAC C  
C      1  0.5453710000000  0.4536540000000  0.5120460000000 1.0
C      1  0.5580980000000  0.5288280000000  0.5120470000000 1.0
C      1  0.4905360000000  0.5641630000000  0.5120470000000 1.0
C      1  0.4360530000000  0.5108270000000  0.5120460000000 1.0
C      1  0.4699420000000  0.4425280000000  0.5120460000000 1.0
C      1  0.5203080000000  0.4351180000000  0.4754040000000 1.0
C      1  0.5679820000000  0.4992650000000  0.4754040000000 1.0
C      1  0.5217070000000  0.5644270000000  0.4754040000000 1.0
C      1  0.4454340000000  0.5405540000000  0.4754040000000 1.0
C      1  0.4445690000000  0.4606360000000  0.4754040000000 1.0
C      1  0.5282530000000  0.5329780000000  0.5146040000000 1.0
C      1  0.4773660000000  0.5370610000000  0.5146040000000 1.0
C      1  0.4577580000000  0.4899270000000  0.5146040000000 1.0
C      1  0.4965270000000  0.4567130000000  0.5146040000000 1.0
C      1  0.5400950000000  0.4833200000000  0.5146040000000 1.0
C      1  0.4957280000000  0.4762810000000  0.4354600000000 1.0
C      1  0.5212380000000  0.4886070000000  0.4354600000000 1.0
C      1  0.5173980000000  0.5166780000000  0.4354600000000 1.0
C      1  0.4895150000000  0.5217000000000  0.4354600000000 1.0
C      1  0.4761220000000  0.4967340000000  0.4354600000000 1.0
C      1  0.4508880000000  0.4603710000000  0.5266610000000 1.0
C      1  0.5225130000000  0.4410450000000  0.5266610000000 1.0
C      1  0.5630260000000  0.5031930000000  0.5266610000000 1.0
C      1  0.5164390000000  0.5609280000000  0.5266610000000 1.0
C      1  0.4471340000000  0.5344630000000  0.5266610000000 1.0
C      1  0.5442760000000  0.4490080000000  0.4826970000000 1.0
C      1  0.5621790000000  0.5263520000000  0.4826970000000 1.0
C      1  0.4941520000000  0.5672780000000  0.4826970000000 1.0
C      1  0.4342070000000  0.5152280000000  0.4826970000000 1.0
C      1  0.4651860000000  0.4421330000000  0.4826970000000 1.0
C      1  0.4984640000000  0.4735250000000  0.4878070000000 1.0
C      1  0.5247040000000  0.4903580000000  0.4878070000000 1.0
C      1  0.5168040000000  0.5205160000000  0.4878070000000 1.0
C      1  0.4856810000000  0.5223210000000  0.4878070000000 1.0
C      1  0.4743460000000  0.4932800000000  0.4878070000000 1.0
C      1  0.5348620000000  0.5272100000000  0.5611960000000 1.0
C      1  0.4848940000000  0.5415640000000  0.5611960000000 1.0
C      1  0.4558030000000  0.4984780000000  0.5611960000000 1.0
C      1  0.4877900000000  0.4574950000000  0.5611960000000 1.0
C      1  0.5366510000000  0.4752530000000  0.5611960000000 1.0
C      1  0.5482830000000  0.4781010000000  0.4691560000000 1.0
C      1  0.5357480000000  0.5391520000000  0.4691560000000 1.0
C      1  0.4738110000000  0.5460970000000  0.4691560000000 1.0
C      1  0.4480660000000  0.4893370000000  0.4691560000000 1.0
C      1  0.4940930000000  0.4473130000000  0.4691560000000 1.0
C      1  0.5368240000000  0.5353980000000  0.4404150000000 1.0
C      1  0.4777130000000  0.5459600000000  0.4404150000000 1.0
C      1  0.4494020000000  0.4930070000000  0.4404150000000 1.0
C      1  0.4910150000000  0.4497180000000  0.4404150000000 1.0
C      1  0.5450450000000  0.4759170000000  0.4404150000000 1.0
C      1  0.5238650000000  0.4474410000000  0.5567090000000 1.0
C      1  0.5573620000000  0.5064550000000  0.5567090000000 1.0
C      1  0.5115860000000  0.5565490000000  0.5567090000000 1.0
C      1  0.4497990000000  0.5284940000000  0.5567090000000 1.0
C      1  0.4573880000000  0.4610610000000  0.5567090000000 1.0
C      1  0.4896190000000  0.5229550000000  0.5378450000000 1.0
C      1  0.4749600000000  0.4972210000000  0.5378450000000 1.0
C      1  0.4949050000000  0.4753270000000  0.5378450000000 1.0
C      1  0.5218910000000  0.4875300000000  0.5378450000000 1.0
C      1  0.5186240000000  0.5169660000000  0.5378450000000 1.0
END
