TITL C-38185-7677-571 2.29966244880589e-05 125000 -356.511466042993 0 0 60 (C1) n - 1
REM
REM in /home/bkarasulu/CARBON/AIRSS/Generating-Clusters/EDIP-Nigel-Params/Higher-Symm/Box-15A/Only-C60/SD-CG/FIRE-HFTN
REM
REM
REM
REM
REM
REM ./C.cell (414f73aa93bd7a1190c7fd0f31ff2f98)
REM
REM compiler GCC version 9.2.1 20190827 (Red Hat 9.2.1-1)
REM options -cpp -mtune=generic -march=x86-64 -g -O0 -fpre-include=/usr/include/finclude/math-vector-fortran.h
REM seed -507440157 849406525 -894664627 2054871424 -144796647 -115161270 278072986 313858608 1763272098 -345652566 1327432301 1880042540 -602778883 1976828782 1522125223 1366643489 1324580556 -2127350274 -2114349715 1484202148 372911832 816301280 -1625804404 -21861117 1599732419 -526885240 1976771684 -1965181838 -1587958918 -1555325388 -575368502 101986578 1241802713
REM
CELL 1.54180   50.00000   50.00000   50.00000   90.00000   90.00000   90.00000
LATT -1
SFAC C  
C      1  0.5803010000000  0.4897810000000  0.4877050000000 1.0
C      1  0.5294900000000  0.4358900000000  0.4862550000000 1.0
C      1  0.5718240000000  0.4985110000000  0.4616870000000 1.0
C      1  0.5100010000000  0.4382110000000  0.5116900000000 1.0
C      1  0.5683930000000  0.5089200000000  0.5345850000000 1.0
C      1  0.4658720000000  0.5626960000000  0.5084400000000 1.0
C      1  0.4484500000000  0.5479480000000  0.4610660000000 1.0
C      1  0.5144620000000  0.4938200000000  0.4754710000000 1.0
C      1  0.4464170000000  0.4877850000000  0.4512860000000 1.0
C      1  0.4594160000000  0.5693920000000  0.4788580000000 1.0
C      1  0.5205620000000  0.5590970000000  0.5196120000000 1.0
C      1  0.4791410000000  0.4424310000000  0.5072820000000 1.0
C      1  0.5549850000000  0.4533590000000  0.4889170000000 1.0
C      1  0.4409580000000  0.4855380000000  0.4973900000000 1.0
C      1  0.4965670000000  0.5704420000000  0.4748320000000 1.0
C      1  0.4754130000000  0.4637430000000  0.4177440000000 1.0
C      1  0.4747200000000  0.4533290000000  0.5556180000000 1.0
C      1  0.4959790000000  0.5110130000000  0.5164840000000 1.0
C      1  0.5172000000000  0.5524420000000  0.5481560000000 1.0
C      1  0.4396130000000  0.5134200000000  0.4871570000000 1.0
C      1  0.4355460000000  0.4929530000000  0.5460170000000 1.0
C      1  0.5598850000000  0.5331640000000  0.4927230000000 1.0
C      1  0.4961120000000  0.4820390000000  0.4153590000000 1.0
C      1  0.4381510000000  0.5218600000000  0.5504160000000 1.0
C      1  0.4590340000000  0.4846060000000  0.4256990000000 1.0
C      1  0.4720720000000  0.5177020000000  0.5313760000000 1.0
C      1  0.5093030000000  0.5501930000000  0.4573200000000 1.0
C      1  0.4943700000000  0.5291550000000  0.4936000000000 1.0
C      1  0.4702870000000  0.5316970000000  0.4463870000000 1.0
C      1  0.4952730000000  0.5579790000000  0.5021050000000 1.0
C      1  0.4547210000000  0.5383520000000  0.5203240000000 1.0
C      1  0.4496300000000  0.4800440000000  0.5245470000000 1.0
C      1  0.5773500000000  0.5129070000000  0.5055840000000 1.0
C      1  0.5253550000000  0.4975810000000  0.5714970000000 1.0
C      1  0.4319600000000  0.5126070000000  0.4582680000000 1.0
C      1  0.4848530000000  0.5160710000000  0.5739050000000 1.0
C      1  0.4558760000000  0.5131350000000  0.5721810000000 1.0
C      1  0.5370430000000  0.4751980000000  0.5572080000000 1.0
C      1  0.5195420000000  0.4803580000000  0.4297430000000 1.0
C      1  0.4885660000000  0.4407130000000  0.4607000000000 1.0
C      1  0.5576580000000  0.4701340000000  0.4624000000000 1.0
C      1  0.5571250000000  0.5237250000000  0.4650960000000 1.0
C      1  0.5194550000000  0.4661670000000  0.5171920000000 1.0
C      1  0.4640840000000  0.4552440000000  0.5297650000000 1.0
C      1  0.5266100000000  0.4733320000000  0.4565490000000 1.0
C      1  0.5592260000000  0.4800230000000  0.5368540000000 1.0
C      1  0.4707670000000  0.5191050000000  0.4755350000000 1.0
C      1  0.5207600000000  0.5251420000000  0.4744550000000 1.0
C      1  0.5388290000000  0.5371910000000  0.5126820000000 1.0
C      1  0.4989250000000  0.4921520000000  0.5828260000000 1.0
C      1  0.5473350000000  0.4715480000000  0.5108190000000 1.0
C      1  0.4866350000000  0.4678960000000  0.5751880000000 1.0
C      1  0.4548150000000  0.4733630000000  0.4752950000000 1.0
C      1  0.5468200000000  0.5288510000000  0.5390390000000 1.0
C      1  0.4702290000000  0.4489690000000  0.4798270000000 1.0
C      1  0.5064850000000  0.5268810000000  0.5562800000000 1.0
C      1  0.5160680000000  0.4455710000000  0.4619550000000 1.0
C      1  0.5033760000000  0.4864420000000  0.5024980000000 1.0
C      1  0.4930180000000  0.5440670000000  0.4357810000000 1.0
C      1  0.5170870000000  0.4581090000000  0.5447730000000 1.0
END
