TITL C-38194-9318-423 -1.29391128647956e-06 125000 -356.458505783881 0 0 60 (C2v) n - 1
REM
REM in /home/bkarasulu/CARBON/AIRSS/Generating-Clusters/EDIP-Nigel-Params/Higher-Symm/Box-15A/Only-C60/SD-CG/FIRE-HFTN
REM
REM
REM
REM
REM
REM ./C.cell (414f73aa93bd7a1190c7fd0f31ff2f98)
REM
REM compiler GCC version 9.2.1 20190827 (Red Hat 9.2.1-1)
REM options -cpp -mtune=generic -march=x86-64 -g -O0 -fpre-include=/usr/include/finclude/math-vector-fortran.h
REM seed 403191217 143833215 304375792 -1842792876 702161128 -787541505 -545820593 1709293894 -350032136 926575478 -1082960053 -475891048 -287846710 -963319777 -633044619 -1452436272 1724137890 1438211277 1885902905 569820994 -27271996 2100620822 -734089913 -464243662 1998561296 968855280 729709905 1638093579 -1981077737 195134686 852364921 1791244598 1336783858
REM
CELL 1.54180   50.00000   50.00000   50.00000   90.00000   90.00000   90.00000
LATT -1
SFAC C  
C      1  0.4908460000000  0.4402460000000  0.5157980000000 1.0
C      1  0.4908460000000  0.5597540000000  0.4842020000000 1.0
C      1  0.4908460000000  0.4402460000000  0.4842020000000 1.0
C      1  0.4908460000000  0.5597540000000  0.5157980000000 1.0
C      1  0.5463400000000  0.4725300000000  0.4750570000000 1.0
C      1  0.5463400000000  0.5274700000000  0.5249430000000 1.0
C      1  0.5463400000000  0.4725300000000  0.5249430000000 1.0
C      1  0.5463400000000  0.5274700000000  0.4750570000000 1.0
C      1  0.4940200000000  0.5158280000000  0.4262750000000 1.0
C      1  0.4940200000000  0.4841720000000  0.5737250000000 1.0
C      1  0.4940200000000  0.5158280000000  0.5737250000000 1.0
C      1  0.4940200000000  0.4841720000000  0.4262750000000 1.0
C      1  0.4649040000000  0.5535450000000  0.5556460000000 1.0
C      1  0.4649040000000  0.4464550000000  0.4443540000000 1.0
C      1  0.4649040000000  0.5535450000000  0.4443540000000 1.0
C      1  0.4649040000000  0.4464550000000  0.5556460000000 1.0
C      1  0.5404510000000  0.4841770000000  0.4464550000000 1.0
C      1  0.5404510000000  0.5158230000000  0.5535450000000 1.0
C      1  0.5404510000000  0.4841770000000  0.5535450000000 1.0
C      1  0.5404510000000  0.5158230000000  0.4464550000000 1.0
C      1  0.4821460000000  0.4849660000000  0.4688740000000 1.0
C      1  0.4821460000000  0.5150340000000  0.5311260000000 1.0
C      1  0.4821460000000  0.4849660000000  0.5311260000000 1.0
C      1  0.4821460000000  0.5150340000000  0.4688740000000 1.0
C      1  0.4704140000000  0.4743790000000  0.4414760000000 1.0
C      1  0.4704140000000  0.5256210000000  0.5585240000000 1.0
C      1  0.4704140000000  0.4743790000000  0.5585240000000 1.0
C      1  0.4704140000000  0.5256210000000  0.4414760000000 1.0
C      1  0.5177020000000  0.4842040000000  0.4846260000000 1.0
C      1  0.5177020000000  0.5157960000000  0.5153740000000 1.0
C      1  0.5177020000000  0.4842040000000  0.5153740000000 1.0
C      1  0.5177020000000  0.5157960000000  0.4846260000000 1.0
C      1  0.5458130000000  0.4451490000000  0.4861640000000 1.0
C      1  0.5458130000000  0.5548510000000  0.5138360000000 1.0
C      1  0.5458130000000  0.4451490000000  0.5138360000000 1.0
C      1  0.5458130000000  0.5548510000000  0.4861640000000 1.0
C      1  0.5146330000000  0.5298400000000  0.4428430000000 1.0
C      1  0.5146330000000  0.4701600000000  0.5571570000000 1.0
C      1  0.5146330000000  0.5298400000000  0.5571570000000 1.0
C      1  0.5146330000000  0.4701600000000  0.4428430000000 1.0
C      1  0.4590940000000  0.5284130000000  0.5153970000000 1.0
C      1  0.4590940000000  0.4715870000000  0.4846030000000 1.0
C      1  0.4590940000000  0.5284130000000  0.4846030000000 1.0
C      1  0.4590940000000  0.4715870000000  0.5153970000000 1.0
C      1  0.5721330000000  0.5154080000000  0.5155050000000 1.0
C      1  0.5721330000000  0.4845920000000  0.4844950000000 1.0
C      1  0.5721330000000  0.5154080000000  0.4844950000000 1.0
C      1  0.5721330000000  0.4845920000000  0.5155050000000 1.0
C      1  0.4305380000000  0.4850150000000  0.4836980000000 1.0
C      1  0.4305380000000  0.5149850000000  0.5163020000000 1.0
C      1  0.4305380000000  0.4850150000000  0.5163020000000 1.0
C      1  0.4305380000000  0.5149850000000  0.4836980000000 1.0
C      1  0.4633400000000  0.4437420000000  0.4728390000000 1.0
C      1  0.4633400000000  0.5562580000000  0.5271610000000 1.0
C      1  0.4633400000000  0.4437420000000  0.5271610000000 1.0
C      1  0.4633400000000  0.5562580000000  0.4728390000000 1.0
C      1  0.5076270000000  0.4486260000000  0.4616400000000 1.0
C      1  0.5076270000000  0.5513740000000  0.5383600000000 1.0
C      1  0.5076270000000  0.4486260000000  0.5383600000000 1.0
C      1  0.5076270000000  0.5513740000000  0.4616400000000 1.0
END
