TITL C-38198-1686-197 8.0405891751926e-05 125000 -363.63596391725 0 0 60 (C1) n - 1
REM
REM in /home/bkarasulu/CARBON/AIRSS/Generating-Clusters/EDIP-Nigel-Params/Higher-Symm/Box-15A/Only-C60/SD-CG/FIRE-HFTN
REM
REM
REM
REM
REM
REM ./C.cell (414f73aa93bd7a1190c7fd0f31ff2f98)
REM
REM compiler GCC version 9.2.1 20190827 (Red Hat 9.2.1-1)
REM options -cpp -mtune=generic -march=x86-64 -g -O0 -fpre-include=/usr/include/finclude/math-vector-fortran.h
REM seed 492358220 1852893993 596131725 1682662702 -285052661 1027953661 -1711078020 -1030611344 37600489 -297234941 1435686185 -905267120 -2028315641 533506641 157689601 1241888257 -1728193526 -1482398829 1665435853 273664977 -836948846 -1744859593 1641874701 1772697757 -658419967 1436356012 1223702425 1367209154 1690787485 -1523676814 -782374314 -625522149 -1650467538
REM
CELL 1.54180   50.00000   50.00000   50.00000   90.00000   90.00000   90.00000
LATT -1
SFAC C  
C      1  0.4583110000000  0.4788470000000  0.4949560000000 1.0
C      1  0.4625710000000  0.5441260000000  0.4919010000000 1.0
C      1  0.5259400000000  0.5454790000000  0.4932180000000 1.0
C      1  0.5614620000000  0.4843510000000  0.4996110000000 1.0
C      1  0.4967670000000  0.4392770000000  0.4998250000000 1.0
C      1  0.5261760000000  0.4455150000000  0.4621410000000 1.0
C      1  0.4546800000000  0.4571160000000  0.4545720000000 1.0
C      1  0.4398830000000  0.5339300000000  0.4519110000000 1.0
C      1  0.5108760000000  0.5655910000000  0.4505220000000 1.0
C      1  0.5674250000000  0.5097560000000  0.4500080000000 1.0
C      1  0.4749940000000  0.5137760000000  0.5587160000000 1.0
C      1  0.5054210000000  0.5245870000000  0.5600500000000 1.0
C      1  0.5272150000000  0.4980680000000  0.5609260000000 1.0
C      1  0.5163690000000  0.4692430000000  0.5689210000000 1.0
C      1  0.4692230000000  0.4839340000000  0.5645590000000 1.0
C      1  0.5543520000000  0.5211460000000  0.5228950000000 1.0
C      1  0.5452560000000  0.4512440000000  0.5312030000000 1.0
C      1  0.4677270000000  0.4420660000000  0.5321480000000 1.0
C      1  0.4366860000000  0.5106230000000  0.5238260000000 1.0
C      1  0.4904310000000  0.5618610000000  0.5248680000000 1.0
C      1  0.4589540000000  0.5248200000000  0.5360500000000 1.0
C      1  0.5107810000000  0.5444780000000  0.5379660000000 1.0
C      1  0.5523370000000  0.5000700000000  0.5437020000000 1.0
C      1  0.5186280000000  0.4536310000000  0.5436850000000 1.0
C      1  0.4638400000000  0.4710180000000  0.5386930000000 1.0
C      1  0.5029490000000  0.4375460000000  0.4474560000000 1.0
C      1  0.4411940000000  0.4801570000000  0.4442460000000 1.0
C      1  0.4603770000000  0.5517190000000  0.4424310000000 1.0
C      1  0.5347520000000  0.5516720000000  0.4430870000000 1.0
C      1  0.5490460000000  0.4872250000000  0.4425700000000 1.0
C      1  0.4647730000000  0.5488940000000  0.5211920000000 1.0
C      1  0.5343260000000  0.5426570000000  0.5212510000000 1.0
C      1  0.5615160000000  0.4759900000000  0.5289220000000 1.0
C      1  0.4978060000000  0.4354710000000  0.5317580000000 1.0
C      1  0.4443560000000  0.4825430000000  0.5209120000000 1.0
C      1  0.4467350000000  0.4534230000000  0.4837090000000 1.0
C      1  0.4340590000000  0.5417820000000  0.4808620000000 1.0
C      1  0.5125400000000  0.5778210000000  0.4774340000000 1.0
C      1  0.5813270000000  0.5067370000000  0.4761940000000 1.0
C      1  0.5243980000000  0.4330850000000  0.4886870000000 1.0
C      1  0.5452300000000  0.4373920000000  0.5068070000000 1.0
C      1  0.4596630000000  0.4338170000000  0.5027730000000 1.0
C      1  0.4254290000000  0.5224280000000  0.5001600000000 1.0
C      1  0.4969240000000  0.5763170000000  0.5009700000000 1.0
C      1  0.5754430000000  0.5202800000000  0.5015840000000 1.0
C      1  0.4903930000000  0.4702990000000  0.4941670000000 1.0
C      1  0.4605350000000  0.5066810000000  0.4802010000000 1.0
C      1  0.4911120000000  0.5373920000000  0.4778760000000 1.0
C      1  0.5315850000000  0.5204680000000  0.4790610000000 1.0
C      1  0.5331200000000  0.4917220000000  0.4895170000000 1.0
C      1  0.4852160000000  0.4593140000000  0.4521670000000 1.0
C      1  0.4498570000000  0.5055000000000  0.4529610000000 1.0
C      1  0.4875870000000  0.5471060000000  0.4498390000000 1.0
C      1  0.5388390000000  0.5236930000000  0.4513090000000 1.0
C      1  0.5284510000000  0.4766530000000  0.4620930000000 1.0
C      1  0.5014170000000  0.4935170000000  0.5375560000000 1.0
C      1  0.4898940000000  0.5062440000000  0.4756540000000 1.0
C      1  0.4999130000000  0.4850180000000  0.4557890000000 1.0
C      1  0.4899090000000  0.4711380000000  0.5786810000000 1.0
C      1  0.5098740000000  0.4870380000000  0.5089840000000 1.0
END
