TITL C-38187-2739-6 1.87183430077919e-05 125000 -358.261563241933 0 0 60 (C1) n - 1
REM
REM in /home/bkarasulu/CARBON/AIRSS/Generating-Clusters/EDIP-Nigel-Params/Higher-Symm/Box-15A/Only-C60/SD-CG/FIRE-HFTN
REM
REM
REM
REM
REM
REM ./C.cell (414f73aa93bd7a1190c7fd0f31ff2f98)
REM
REM compiler GCC version 9.2.1 20190827 (Red Hat 9.2.1-1)
REM options -cpp -mtune=generic -march=x86-64 -g -O0 -fpre-include=/usr/include/finclude/math-vector-fortran.h
REM seed -527069897 -683315674 281697651 -621294251 -1567194495 1770230951 -1682043145 -617359366 -738753749 -1853759646 -1028631363 -11087896 -342652806 1251934845 -1609997804 -631098255 320464209 2124698724 107853433 1499782510 -690497900 -394344251 650637812 -59820519 -1374842600 1687247250 -470062805 -2051286469 1522568625 1067555056 1300944720 306074844 -2018068520
REM
CELL 1.54180   50.00000   50.00000   50.00000   90.00000   90.00000   90.00000
LATT -1
SFAC C  
C      1  0.5318900000000  0.5514790000000  0.5398950000000 1.0
C      1  0.4397090000000  0.5017210000000  0.5400230000000 1.0
C      1  0.5292220000000  0.4475270000000  0.5395240000000 1.0
C      1  0.4581320000000  0.5401860000000  0.4480320000000 1.0
C      1  0.4833590000000  0.4391980000000  0.4510770000000 1.0
C      1  0.5641570000000  0.5210620000000  0.4507140000000 1.0
C      1  0.4137080000000  0.4791820000000  0.5043950000000 1.0
C      1  0.5586220000000  0.4413400000000  0.4991710000000 1.0
C      1  0.5249250000000  0.5837510000000  0.5030920000000 1.0
C      1  0.4865490000000  0.5283070000000  0.5267360000000 1.0
C      1  0.4810750000000  0.4742040000000  0.5282090000000 1.0
C      1  0.5297580000000  0.4971440000000  0.5271670000000 1.0
C      1  0.5714800000000  0.5005800000000  0.4936130000000 1.0
C      1  0.4629880000000  0.5593210000000  0.4918520000000 1.0
C      1  0.4647750000000  0.4354340000000  0.4957100000000 1.0
C      1  0.5031100000000  0.5526920000000  0.4675250000000 1.0
C      1  0.4494190000000  0.4709830000000  0.4672130000000 1.0
C      1  0.5483290000000  0.4742120000000  0.4599240000000 1.0
C      1  0.4752940000000  0.5408570000000  0.4720700000000 1.0
C      1  0.4731060000000  0.4540230000000  0.4742260000000 1.0
C      1  0.5531430000000  0.5018280000000  0.4703070000000 1.0
C      1  0.4710690000000  0.5040500000000  0.5174310000000 1.0
C      1  0.5093020000000  0.4730590000000  0.5182840000000 1.0
C      1  0.5174410000000  0.5231310000000  0.5178060000000 1.0
C      1  0.4861710000000  0.4703290000000  0.5570570000000 1.0
C      1  0.5326520000000  0.5029160000000  0.5561830000000 1.0
C      1  0.4811280000000  0.5274290000000  0.5559020000000 1.0
C      1  0.4695960000000  0.5103200000000  0.4874160000000 1.0
C      1  0.5025030000000  0.4674150000000  0.4893910000000 1.0
C      1  0.5262220000000  0.5219650000000  0.4893080000000 1.0
C      1  0.5185440000000  0.5167970000000  0.4375970000000 1.0
C      1  0.4791730000000  0.4915360000000  0.4358950000000 1.0
C      1  0.5067910000000  0.4916930000000  0.4382430000000 1.0
C      1  0.4649240000000  0.4500320000000  0.5204000000000 1.0
C      1  0.5579080000000  0.4932450000000  0.5178510000000 1.0
C      1  0.4740960000000  0.5539510000000  0.5176320000000 1.0
C      1  0.4390040000000  0.5192120000000  0.4912610000000 1.0
C      1  0.5115220000000  0.4375030000000  0.4927070000000 1.0
C      1  0.5487200000000  0.5418930000000  0.4922700000000 1.0
C      1  0.4412830000000  0.5182910000000  0.4549460000000 1.0
C      1  0.5110350000000  0.4423670000000  0.4547570000000 1.0
C      1  0.5510190000000  0.5446600000000  0.4605230000000 1.0
C      1  0.5597070000000  0.4539080000000  0.4753510000000 1.0
C      1  0.5105240000000  0.5754890000000  0.4818770000000 1.0
C      1  0.4259470000000  0.4703890000000  0.4821310000000 1.0
C      1  0.5386680000000  0.5616710000000  0.5132020000000 1.0
C      1  0.4273460000000  0.5017490000000  0.5133870000000 1.0
C      1  0.5343770000000  0.4373420000000  0.5122350000000 1.0
C      1  0.4393940000000  0.5469010000000  0.5015370000000 1.0
C      1  0.4887100000000  0.4232870000000  0.5051250000000 1.0
C      1  0.5715590000000  0.5270730000000  0.5042440000000 1.0
C      1  0.5234320000000  0.5417320000000  0.4496900000000 1.0
C      1  0.4545700000000  0.4927630000000  0.4492870000000 1.0
C      1  0.5217400000000  0.4691380000000  0.4497380000000 1.0
C      1  0.4608060000000  0.5065390000000  0.5606720000000 1.0
C      1  0.5146540000000  0.4626820000000  0.5610780000000 1.0
C      1  0.5251280000000  0.5312110000000  0.5607830000000 1.0
C      1  0.5009610000000  0.5339060000000  0.5749990000000 1.0
C      1  0.4708570000000  0.4849240000000  0.5758770000000 1.0
C      1  0.5287680000000  0.4824710000000  0.5754500000000 1.0
END
