TITL C-38184-643-281 5.84607806457841e-06 125000 -363.593222336582 0 0 60 (Ci) n - 1
REM
REM in /home/bkarasulu/CARBON/AIRSS/Generating-Clusters/EDIP-Nigel-Params/Higher-Symm/Box-15A/Only-C60/SD-CG/FIRE-HFTN
REM
REM
REM
REM
REM
REM ./C.cell (414f73aa93bd7a1190c7fd0f31ff2f98)
REM
REM compiler GCC version 9.2.1 20190827 (Red Hat 9.2.1-1)
REM options -cpp -mtune=generic -march=x86-64 -g -O0 -fpre-include=/usr/include/finclude/math-vector-fortran.h
REM seed -1194797587 1953859954 -2143930430 50268394 -628335754 1553937523 373661192 -25755877 -1709733417 -1029621422 -1056151454 508525635 -28629670 -920547651 1734210939 -854487233 768305164 -432704834 1738637406 -580926314 1203967559 -1719162230 -91265522 381176160 -1777627673 -1361413787 -2130792036 -753279071 -329426846 -232195720 787359153 1302284912 -751351816
REM
CELL 1.54180   50.00000   50.00000   50.00000   90.00000   90.00000   90.00000
LATT -1
SFAC C  
C      1  0.4972160000000  0.4528370000000  0.4447550000000 1.0
C      1  0.5027840000000  0.5471630000000  0.5552450000000 1.0
C      1  0.5399090000000  0.5568120000000  0.4713510000000 1.0
C      1  0.4600910000000  0.4431880000000  0.5286490000000 1.0
C      1  0.5159790000000  0.4896240000000  0.5232270000000 1.0
C      1  0.4840210000000  0.5103760000000  0.4767730000000 1.0
C      1  0.4672030000000  0.5331480000000  0.5554610000000 1.0
C      1  0.5327970000000  0.4668520000000  0.4445390000000 1.0
C      1  0.5354370000000  0.4196790000000  0.5127640000000 1.0
C      1  0.4645630000000  0.5803210000000  0.4872360000000 1.0
C      1  0.4914400000000  0.4806590000000  0.4350610000000 1.0
C      1  0.5085600000000  0.5193410000000  0.5649390000000 1.0
C      1  0.4940120000000  0.5494650000000  0.4594330000000 1.0
C      1  0.5059880000000  0.4505350000000  0.5405670000000 1.0
C      1  0.5369670000000  0.4322230000000  0.4875650000000 1.0
C      1  0.4630330000000  0.5677770000000  0.5124350000000 1.0
C      1  0.4823340000000  0.5076470000000  0.5531250000000 1.0
C      1  0.5176660000000  0.4923530000000  0.4468750000000 1.0
C      1  0.4676670000000  0.4913240000000  0.4475850000000 1.0
C      1  0.5323330000000  0.5086760000000  0.5524150000000 1.0
C      1  0.5603390000000  0.5133510000000  0.4498260000000 1.0
C      1  0.4396610000000  0.4866490000000  0.5501740000000 1.0
C      1  0.4265390000000  0.4911430000000  0.5257360000000 1.0
C      1  0.5734610000000  0.5088570000000  0.4742640000000 1.0
C      1  0.5691900000000  0.4848260000000  0.5179930000000 1.0
C      1  0.4308100000000  0.5151740000000  0.4820070000000 1.0
C      1  0.4501200000000  0.4741960000000  0.4619370000000 1.0
C      1  0.5498800000000  0.5258040000000  0.5380630000000 1.0
C      1  0.5520450000000  0.5491220000000  0.4953410000000 1.0
C      1  0.4479550000000  0.4508780000000  0.5046590000000 1.0
C      1  0.4263740000000  0.4683020000000  0.5092950000000 1.0
C      1  0.5736260000000  0.5316980000000  0.4907050000000 1.0
C      1  0.5604420000000  0.4460170000000  0.4792770000000 1.0
C      1  0.4395580000000  0.5539830000000  0.5207230000000 1.0
C      1  0.5108930000000  0.5544000000000  0.5278410000000 1.0
C      1  0.4891070000000  0.4456000000000  0.4721590000000 1.0
C      1  0.4776540000000  0.4572510000000  0.5454540000000 1.0
C      1  0.5223460000000  0.5427490000000  0.4545460000000 1.0
C      1  0.5579260000000  0.4628360000000  0.4569970000000 1.0
C      1  0.4420740000000  0.5371640000000  0.5430030000000 1.0
C      1  0.4663960000000  0.4821180000000  0.5581320000000 1.0
C      1  0.5336040000000  0.5178820000000  0.4418680000000 1.0
C      1  0.4479390000000  0.5313870000000  0.4663480000000 1.0
C      1  0.5520610000000  0.4686130000000  0.5336520000000 1.0
C      1  0.5715180000000  0.5110760000000  0.5278730000000 1.0
C      1  0.4284820000000  0.4889240000000  0.4721270000000 1.0
C      1  0.4875260000000  0.5505330000000  0.5086840000000 1.0
C      1  0.5124740000000  0.4494670000000  0.4913160000000 1.0
C      1  0.5359060000000  0.5414310000000  0.5184030000000 1.0
C      1  0.4640940000000  0.4585690000000  0.4815970000000 1.0
C      1  0.4887160000000  0.5017340000000  0.5249830000000 1.0
C      1  0.5112840000000  0.4982660000000  0.4750170000000 1.0
C      1  0.5104660000000  0.4283710000000  0.5228280000000 1.0
C      1  0.4895340000000  0.5716290000000  0.4771720000000 1.0
C      1  0.5694170000000  0.4826280000000  0.4880970000000 1.0
C      1  0.4305830000000  0.5173720000000  0.5119030000000 1.0
C      1  0.4708310000000  0.5350030000000  0.4504140000000 1.0
C      1  0.5291690000000  0.4649970000000  0.5495860000000 1.0
C      1  0.4800420000000  0.5210430000000  0.5044490000000 1.0
C      1  0.5199580000000  0.4789570000000  0.4955510000000 1.0
END
