TITL C-38191-7580-432 4.25897884432957e-06 125000 -375.388636984121 0 0 60 (C5v) n - 1
REM
REM in /home/bkarasulu/CARBON/AIRSS/Generating-Clusters/EDIP-Nigel-Params/Higher-Symm/Box-15A/Only-C60/SD-CG/FIRE-HFTN
REM
REM
REM
REM
REM
REM ./C.cell (414f73aa93bd7a1190c7fd0f31ff2f98)
REM
REM compiler GCC version 9.2.1 20190827 (Red Hat 9.2.1-1)
REM options -cpp -mtune=generic -march=x86-64 -g -O0 -fpre-include=/usr/include/finclude/math-vector-fortran.h
REM seed 1651272630 -1427510382 -1593240876 634979521 276683280 1652779953 -181191402 1267471000 -384039421 -1222327305 -1712844191 -1960173236 1459455922 -483872524 -1035553629 1841771480 172832342 -1737825389 -1052784463 422819410 308759750 -742746246 968672272 -391780932 836049326 860402380 -1249290850 768515168 220798129 773243988 -850001998 1146001257 1859805095
REM
CELL 1.54180   50.00000   50.00000   50.00000   90.00000   90.00000   90.00000
LATT -1
SFAC C  
C      1  0.4652720000000  0.5093010000000  0.5592280000000 1.0
C      1  0.4329390000000  0.5093010000000  0.4852740000000 1.0
C      1  0.4932820000000  0.5093010000000  0.4316710000000 1.0
C      1  0.5629090000000  0.5093010000000  0.4724960000000 1.0
C      1  0.5455980000000  0.5093010000000  0.5513310000000 1.0
C      1  0.4915080000000  0.5515610000000  0.5593400000000 1.0
C      1  0.4409400000000  0.5515610000000  0.5102600000000 1.0
C      1  0.4719910000000  0.5515610000000  0.4470010000000 1.0
C      1  0.5417490000000  0.5515610000000  0.4569850000000 1.0
C      1  0.5538110000000  0.5515610000000  0.5264140000000 1.0
C      1  0.4688300000000  0.5647680000000  0.5512080000000 1.0
C      1  0.4416660000000  0.5647680000000  0.4861800000000 1.0
C      1  0.4951170000000  0.5647680000000  0.4402500000000 1.0
C      1  0.5553160000000  0.5647680000000  0.4768930000000 1.0
C      1  0.5390700000000  0.5647680000000  0.5454680000000 1.0
C      1  0.4653020000000  0.4787470000000  0.5584390000000 1.0
C      1  0.4336990000000  0.4787470000000  0.4850590000000 1.0
C      1  0.4937220000000  0.4787470000000  0.4323270000000 1.0
C      1  0.5624210000000  0.4787470000000  0.4731170000000 1.0
C      1  0.5448560000000  0.4787470000000  0.5510590000000 1.0
C      1  0.5214450000000  0.5647680000000  0.4440180000000 1.0
C      1  0.5598690000000  0.5647680000000  0.5030960000000 1.0
C      1  0.5155560000000  0.5647680000000  0.5578950000000 1.0
C      1  0.4497450000000  0.5647680000000  0.5326850000000 1.0
C      1  0.4533850000000  0.5647680000000  0.4623050000000 1.0
C      1  0.4929460000000  0.4687770000000  0.5492880000000 1.0
C      1  0.4509450000000  0.4687770000000  0.5085220000000 1.0
C      1  0.4767360000000  0.4687770000000  0.4559790000000 1.0
C      1  0.5346770000000  0.4687770000000  0.4642710000000 1.0
C      1  0.5446960000000  0.4687770000000  0.5219390000000 1.0
C      1  0.4792020000000  0.4389250000000  0.4606450000000 1.0
C      1  0.5310020000000  0.4389250000000  0.4680580000000 1.0
C      1  0.5399580000000  0.4389250000000  0.5196140000000 1.0
C      1  0.4936940000000  0.4389250000000  0.5440640000000 1.0
C      1  0.4561440000000  0.4389250000000  0.5076190000000 1.0
C      1  0.4719730000000  0.4301830000000  0.5288770000000 1.0
C      1  0.4638760000000  0.4301830000000  0.4822680000000 1.0
C      1  0.5057010000000  0.4301830000000  0.4601640000000 1.0
C      1  0.5396480000000  0.4301830000000  0.4931120000000 1.0
C      1  0.5188030000000  0.4301830000000  0.5355790000000 1.0
C      1  0.5169140000000  0.4787470000000  0.5658250000000 1.0
C      1  0.4426230000000  0.4787470000000  0.5364280000000 1.0
C      1  0.4476250000000  0.4787470000000  0.4566880000000 1.0
C      1  0.5250070000000  0.4787470000000  0.4368040000000 1.0
C      1  0.5678300000000  0.4787470000000  0.5042540000000 1.0
C      1  0.5165430000000  0.4819570000000  0.4829550000000 1.0
C      1  0.5213230000000  0.4819570000000  0.5104660000000 1.0
C      1  0.4966350000000  0.4819570000000  0.5235130000000 1.0
C      1  0.4765980000000  0.4819570000000  0.5040660000000 1.0
C      1  0.4889020000000  0.4819570000000  0.4789990000000 1.0
C      1  0.4473310000000  0.5093010000000  0.4559550000000 1.0
C      1  0.5256130000000  0.5093010000000  0.4362980000000 1.0
C      1  0.5684990000000  0.5093010000000  0.5046750000000 1.0
C      1  0.5167220000000  0.5093010000000  0.5665910000000 1.0
C      1  0.4418350000000  0.5093010000000  0.5364810000000 1.0
C      1  0.4431610000000  0.5229650000000  0.5098750000000 1.0
C      1  0.4730450000000  0.5229650000000  0.4489940000000 1.0
C      1  0.5401800000000  0.5229650000000  0.4586020000000 1.0
C      1  0.5517880000000  0.5229650000000  0.5254200000000 1.0
C      1  0.4918270000000  0.5229650000000  0.5571090000000 1.0
END
