TITL C-38198-1686-243 1.64835957811512e-06 125000 -364.115837568039 0 0 60 (C1) n - 1
REM
REM in /home/bkarasulu/CARBON/AIRSS/Generating-Clusters/EDIP-Nigel-Params/Higher-Symm/Box-15A/Only-C60/SD-CG/FIRE-HFTN
REM
REM
REM
REM
REM
REM ./C.cell (414f73aa93bd7a1190c7fd0f31ff2f98)
REM
REM compiler GCC version 9.2.1 20190827 (Red Hat 9.2.1-1)
REM options -cpp -mtune=generic -march=x86-64 -g -O0 -fpre-include=/usr/include/finclude/math-vector-fortran.h
REM seed 1651977575 -118546301 1562906819 960143259 252382755 -139447939 -347871266 -1229813723 571274222 -1883237469 -359154331 1200950931 -818008094 -1155931187 -1377316850 -2088695658 1533293742 -1056859785 -1239753952 -2140342704 1165137345 -655104359 1791091696 1520707039 989529009 -306140295 -1746995656 -547459488 830647912 1253127 16783539 201193063 -162033509
REM
CELL 1.54180   50.00000   50.00000   50.00000   90.00000   90.00000   90.00000
LATT -1
SFAC C  
C      1  0.5592230000000  0.5352760000000  0.5573190000000 1.0
C      1  0.4425780000000  0.5385090000000  0.5590410000000 1.0
C      1  0.5140840000000  0.4903450000000  0.5697090000000 1.0
C      1  0.4845060000000  0.4902960000000  0.5699380000000 1.0
C      1  0.5581270000000  0.4519900000000  0.4626460000000 1.0
C      1  0.4437210000000  0.4469170000000  0.4590410000000 1.0
C      1  0.5170540000000  0.4239920000000  0.4704210000000 1.0
C      1  0.4854320000000  0.4227220000000  0.4692880000000 1.0
C      1  0.5689480000000  0.5114440000000  0.4873620000000 1.0
C      1  0.4294580000000  0.5129460000000  0.4914220000000 1.0
C      1  0.5294290000000  0.4491320000000  0.4613100000000 1.0
C      1  0.4716840000000  0.4462180000000  0.4582040000000 1.0
C      1  0.5489060000000  0.5441600000000  0.4651940000000 1.0
C      1  0.4498770000000  0.5430620000000  0.4661570000000 1.0
C      1  0.4343680000000  0.5208050000000  0.5391850000000 1.0
C      1  0.5654370000000  0.5172620000000  0.5369240000000 1.0
C      1  0.5130220000000  0.4931890000000  0.4751220000000 1.0
C      1  0.4851680000000  0.4923230000000  0.4742760000000 1.0
C      1  0.4696040000000  0.5315940000000  0.5638180000000 1.0
C      1  0.5318580000000  0.5304010000000  0.5628050000000 1.0
C      1  0.4282300000000  0.5243540000000  0.4659460000000 1.0
C      1  0.5709150000000  0.5260650000000  0.4638340000000 1.0
C      1  0.4422360000000  0.4868550000000  0.4933190000000 1.0
C      1  0.5618590000000  0.4837420000000  0.4848660000000 1.0
C      1  0.5545010000000  0.4916650000000  0.5426800000000 1.0
C      1  0.4439310000000  0.4944140000000  0.5441400000000 1.0
C      1  0.4853540000000  0.5265050000000  0.5388270000000 1.0
C      1  0.5147420000000  0.5279920000000  0.5384200000000 1.0
C      1  0.5139830000000  0.5173050000000  0.4378780000000 1.0
C      1  0.4848080000000  0.5167690000000  0.4373010000000 1.0
C      1  0.5157240000000  0.4651960000000  0.4409690000000 1.0
C      1  0.4857990000000  0.4644620000000  0.4400440000000 1.0
C      1  0.4848870000000  0.5438270000000  0.4935090000000 1.0
C      1  0.5145260000000  0.5438520000000  0.4933450000000 1.0
C      1  0.5567400000000  0.5274360000000  0.5097080000000 1.0
C      1  0.4425910000000  0.5302600000000  0.5116860000000 1.0
C      1  0.4676470000000  0.5667080000000  0.4909520000000 1.0
C      1  0.5326460000000  0.5663390000000  0.4921370000000 1.0
C      1  0.5769970000000  0.4611830000000  0.4806770000000 1.0
C      1  0.4361510000000  0.4683380000000  0.4733230000000 1.0
C      1  0.4682650000000  0.4798600000000  0.5473210000000 1.0
C      1  0.5292000000000  0.4792770000000  0.5469930000000 1.0
C      1  0.5292800000000  0.5396220000000  0.4448950000000 1.0
C      1  0.4687100000000  0.5382950000000  0.4451260000000 1.0
C      1  0.5225010000000  0.4946170000000  0.5018570000000 1.0
C      1  0.4711460000000  0.4930670000000  0.4999730000000 1.0
C      1  0.4425310000000  0.5584760000000  0.5013400000000 1.0
C      1  0.5576600000000  0.5563650000000  0.5015430000000 1.0
C      1  0.5263570000000  0.5118840000000  0.5838530000000 1.0
C      1  0.4732520000000  0.5121750000000  0.5844770000000 1.0
C      1  0.5267060000000  0.5230000000000  0.5109540000000 1.0
C      1  0.4721410000000  0.5231570000000  0.5112410000000 1.0
C      1  0.4749830000000  0.4453090000000  0.5130870000000 1.0
C      1  0.5234650000000  0.4471740000000  0.5126650000000 1.0
C      1  0.4821620000000  0.4720670000000  0.5213560000000 1.0
C      1  0.5142050000000  0.4728920000000  0.5215090000000 1.0
C      1  0.4726620000000  0.4905950000000  0.4378800000000 1.0
C      1  0.5272460000000  0.4918800000000  0.4390260000000 1.0
C      1  0.5157470000000  0.4226240000000  0.5013590000000 1.0
C      1  0.4850310000000  0.4218160000000  0.5008050000000 1.0
END
