TITL C-38193-7935-406 2.55847719860198e-06 125000 -360.902577553687 0 0 60 (C1) n - 1
REM
REM in /home/bkarasulu/CARBON/AIRSS/Generating-Clusters/EDIP-Nigel-Params/Higher-Symm/Box-15A/Only-C60/SD-CG/FIRE-HFTN
REM
REM
REM
REM
REM
REM ./C.cell (414f73aa93bd7a1190c7fd0f31ff2f98)
REM
REM compiler GCC version 9.2.1 20190827 (Red Hat 9.2.1-1)
REM options -cpp -mtune=generic -march=x86-64 -g -O0 -fpre-include=/usr/include/finclude/math-vector-fortran.h
REM seed -673036839 910033773 -68329570 50101163 2001094133 2078279557 1155988743 1476512437 736131602 -231771520 -562692952 -1897217492 -2063361095 -988323002 759874945 996510404 588820638 912300874 1760476733 -201709674 -2091682361 -1524951063 156071353 239957661 309008302 -1314233616 1133959463 -2093554580 694906375 -1313225766 546796741 -1466050374 -1523218434
REM
CELL 1.54180   50.00000   50.00000   50.00000   90.00000   90.00000   90.00000
LATT -1
SFAC C  
C      1  0.4802750000000  0.5493090000000  0.4536870000000 1.0
C      1  0.4460540000000  0.4919600000000  0.4496150000000 1.0
C      1  0.4870360000000  0.4478640000000  0.4533620000000 1.0
C      1  0.5481360000000  0.4747380000000  0.4494780000000 1.0
C      1  0.5399000000000  0.5340560000000  0.4542250000000 1.0
C      1  0.4744180000000  0.4962680000000  0.4418210000000 1.0
C      1  0.4949270000000  0.4743930000000  0.4408980000000 1.0
C      1  0.5219140000000  0.4871470000000  0.4437880000000 1.0
C      1  0.5183020000000  0.5164530000000  0.4423880000000 1.0
C      1  0.4891780000000  0.5222410000000  0.4435050000000 1.0
C      1  0.5474600000000  0.4960980000000  0.5572800000000 1.0
C      1  0.5180930000000  0.5433610000000  0.5573750000000 1.0
C      1  0.4640500000000  0.5304320000000  0.5589230000000 1.0
C      1  0.4609870000000  0.4749060000000  0.5566410000000 1.0
C      1  0.5116620000000  0.4535040000000  0.5601390000000 1.0
C      1  0.5003540000000  0.5746420000000  0.4963270000000 1.0
C      1  0.4319820000000  0.5240650000000  0.4974150000000 1.0
C      1  0.4570720000000  0.4394530000000  0.4958640000000 1.0
C      1  0.5412000000000  0.4408550000000  0.4976630000000 1.0
C      1  0.5706020000000  0.5231080000000  0.4965530000000 1.0
C      1  0.4760470000000  0.5094830000000  0.4839730000000 1.0
C      1  0.4831550000000  0.4798310000000  0.4884060000000 1.0
C      1  0.5136920000000  0.4786330000000  0.4864980000000 1.0
C      1  0.5254480000000  0.5068410000000  0.4897260000000 1.0
C      1  0.5010810000000  0.5267530000000  0.4893570000000 1.0
C      1  0.5238430000000  0.5603750000000  0.5357190000000 1.0
C      1  0.4506610000000  0.5425300000000  0.5373420000000 1.0
C      1  0.4457400000000  0.4642350000000  0.5353910000000 1.0
C      1  0.5153430000000  0.4370970000000  0.5376820000000 1.0
C      1  0.5643700000000  0.4944900000000  0.5347750000000 1.0
C      1  0.4531690000000  0.5478310000000  0.4655500000000 1.0
C      1  0.4419450000000  0.4675370000000  0.4647550000000 1.0
C      1  0.5101760000000  0.4344060000000  0.4661060000000 1.0
C      1  0.5655330000000  0.4921180000000  0.4648680000000 1.0
C      1  0.5288590000000  0.5590000000000  0.4657780000000 1.0
C      1  0.5314140000000  0.4735080000000  0.5629010000000 1.0
C      1  0.5349660000000  0.5210790000000  0.5605500000000 1.0
C      1  0.4907990000000  0.5385620000000  0.5619480000000 1.0
C      1  0.4594850000000  0.5026870000000  0.5614310000000 1.0
C      1  0.4851560000000  0.4622040000000  0.5633710000000 1.0
C      1  0.5115220000000  0.4790870000000  0.5243340000000 1.0
C      1  0.5245860000000  0.5057440000000  0.5208230000000 1.0
C      1  0.5002610000000  0.5266570000000  0.5206300000000 1.0
C      1  0.4753000000000  0.5099190000000  0.5216030000000 1.0
C      1  0.4823150000000  0.4809480000000  0.5182110000000 1.0
C      1  0.5236300000000  0.5762540000000  0.5125490000000 1.0
C      1  0.4370370000000  0.5469000000000  0.5132140000000 1.0
C      1  0.4367960000000  0.4509700000000  0.5121920000000 1.0
C      1  0.5238130000000  0.4254040000000  0.5136830000000 1.0
C      1  0.5798470000000  0.5011840000000  0.5122180000000 1.0
C      1  0.5402980000000  0.5695870000000  0.4903310000000 1.0
C      1  0.4491360000000  0.5605560000000  0.4913240000000 1.0
C      1  0.4266130000000  0.4653480000000  0.4895040000000 1.0
C      1  0.5060370000000  0.4213220000000  0.4917050000000 1.0
C      1  0.5798430000000  0.4844300000000  0.4889610000000 1.0
C      1  0.5012400000000  0.5540580000000  0.4755330000000 1.0
C      1  0.4487790000000  0.5197570000000  0.4741260000000 1.0
C      1  0.4677830000000  0.4570110000000  0.4749960000000 1.0
C      1  0.5294580000000  0.4549670000000  0.4751780000000 1.0
C      1  0.5512200000000  0.5158420000000  0.4758130000000 1.0
END
