TITL C-38197-8510-408 -1.66252544278548e-05 125000 -351.845011924354 0 0 60 (C4) n - 1
REM
REM in /home/bkarasulu/CARBON/AIRSS/Generating-Clusters/EDIP-Nigel-Params/Higher-Symm/Box-15A/Only-C60/SD-CG/FIRE-HFTN
REM
REM
REM
REM
REM
REM ./C.cell (414f73aa93bd7a1190c7fd0f31ff2f98)
REM
REM compiler GCC version 9.2.1 20190827 (Red Hat 9.2.1-1)
REM options -cpp -mtune=generic -march=x86-64 -g -O0 -fpre-include=/usr/include/finclude/math-vector-fortran.h
REM seed 1728662184 -275675339 -39998829 -2046496157 -1967101122 -1660596178 -1082103659 1194648099 1637699675 -1711569103 503523289 -247231398 -721033887 -480692948 -2016408470 221650363 -2084955678 -1411550304 -180958381 -1712866125 990473277 -907871224 464527696 -158756510 -442565424 -140215640 -493978091 -1176845680 -1738445338 1867779148 -1914269390 -1511061775 1027121103
REM
CELL 1.54180   50.00000   50.00000   50.00000   90.00000   90.00000   90.00000
LATT -1
SFAC C  
C      1  0.5174920000000  0.5340360000000  0.4613660000000 1.0
C      1  0.5386340000000  0.5340360000000  0.5174920000000 1.0
C      1  0.4825080000000  0.5340360000000  0.5386340000000 1.0
C      1  0.4613660000000  0.5340360000000  0.4825080000000 1.0
C      1  0.4809620000000  0.5573170000000  0.4888340000000 1.0
C      1  0.5111660000000  0.5573170000000  0.4809620000000 1.0
C      1  0.5190380000000  0.5573170000000  0.5111660000000 1.0
C      1  0.4888340000000  0.5573170000000  0.5190380000000 1.0
C      1  0.4486050000000  0.4576920000000  0.5393750000000 1.0
C      1  0.4606250000000  0.4576920000000  0.4486050000000 1.0
C      1  0.5513950000000  0.4576920000000  0.4606250000000 1.0
C      1  0.5393750000000  0.4576920000000  0.5513950000000 1.0
C      1  0.5558160000000  0.5030230000000  0.5325530000000 1.0
C      1  0.4674470000000  0.5030230000000  0.5558160000000 1.0
C      1  0.4441840000000  0.5030230000000  0.4674470000000 1.0
C      1  0.5325530000000  0.5030230000000  0.4441840000000 1.0
C      1  0.5706020000000  0.5681290000000  0.5036980000000 1.0
C      1  0.4963020000000  0.5681290000000  0.5706020000000 1.0
C      1  0.4293980000000  0.5681290000000  0.4963020000000 1.0
C      1  0.5036980000000  0.5681290000000  0.4293980000000 1.0
C      1  0.5078310000000  0.4878190000000  0.4393060000000 1.0
C      1  0.5606940000000  0.4878190000000  0.5078310000000 1.0
C      1  0.4921690000000  0.4878190000000  0.5606940000000 1.0
C      1  0.4393060000000  0.4878190000000  0.4921690000000 1.0
C      1  0.5395610000000  0.4492210000000  0.5230490000000 1.0
C      1  0.4769510000000  0.4492210000000  0.5395610000000 1.0
C      1  0.4604390000000  0.4492210000000  0.4769510000000 1.0
C      1  0.5230490000000  0.4492210000000  0.4604390000000 1.0
C      1  0.4368820000000  0.4586640000000  0.4914370000000 1.0
C      1  0.5085630000000  0.4586640000000  0.4368820000000 1.0
C      1  0.5631180000000  0.4586640000000  0.5085630000000 1.0
C      1  0.4914370000000  0.4586640000000  0.5631180000000 1.0
C      1  0.4584240000000  0.4877020000000  0.4465050000000 1.0
C      1  0.5534950000000  0.4877020000000  0.4584240000000 1.0
C      1  0.5415760000000  0.4877020000000  0.5534950000000 1.0
C      1  0.4465050000000  0.4877020000000  0.5415760000000 1.0
C      1  0.5631080000000  0.5427240000000  0.5025130000000 1.0
C      1  0.4974870000000  0.5427240000000  0.5631080000000 1.0
C      1  0.4368920000000  0.5427240000000  0.4974870000000 1.0
C      1  0.5025130000000  0.5427240000000  0.4368920000000 1.0
C      1  0.5672410000000  0.5000080000000  0.4816890000000 1.0
C      1  0.5183110000000  0.5000080000000  0.5672410000000 1.0
C      1  0.4327590000000  0.5000080000000  0.5183110000000 1.0
C      1  0.4816890000000  0.5000080000000  0.4327590000000 1.0
C      1  0.4796960000000  0.4697490000000  0.4895500000000 1.0
C      1  0.5104500000000  0.4697490000000  0.4796960000000 1.0
C      1  0.5203040000000  0.4697490000000  0.5104500000000 1.0
C      1  0.4895500000000  0.4697490000000  0.5203040000000 1.0
C      1  0.5070920000000  0.5086150000000  0.4783310000000 1.0
C      1  0.5216690000000  0.5086150000000  0.5070920000000 1.0
C      1  0.4929080000000  0.5086150000000  0.5216690000000 1.0
C      1  0.4783310000000  0.5086150000000  0.4929080000000 1.0
C      1  0.5190810000000  0.5274920000000  0.5703920000000 1.0
C      1  0.4296080000000  0.5274920000000  0.5190810000000 1.0
C      1  0.4809190000000  0.5274920000000  0.4296080000000 1.0
C      1  0.5703920000000  0.5274920000000  0.4809190000000 1.0
C      1  0.4341350000000  0.4478100000000  0.5172270000000 1.0
C      1  0.4827730000000  0.4478100000000  0.4341350000000 1.0
C      1  0.5658650000000  0.4478100000000  0.4827730000000 1.0
C      1  0.5172270000000  0.4478100000000  0.5658650000000 1.0
END
