TITL C-38196-2854-475 -3.30809364415675e-06 125000 -370.853297567641 0 0 60 (C1) n - 1
REM
REM in /home/bkarasulu/CARBON/AIRSS/Generating-Clusters/EDIP-Nigel-Params/Higher-Symm/Box-15A/Only-C60/SD-CG/FIRE-HFTN
REM
REM
REM
REM
REM
REM ./C.cell (414f73aa93bd7a1190c7fd0f31ff2f98)
REM
REM compiler GCC version 9.2.1 20190827 (Red Hat 9.2.1-1)
REM options -cpp -mtune=generic -march=x86-64 -g -O0 -fpre-include=/usr/include/finclude/math-vector-fortran.h
REM seed -1171858624 -778511983 -1818314552 -1563356963 1362941047 -1597465347 1506679389 44895758 -415139654 -976985411 -1408542236 1402023709 2034138038 -1737380973 1168056804 -2031528707 575044334 -340045841 1893276976 -1641494566 -239729559 -2129994765 -1052681860 -1712443099 1840373778 -1729672823 1565404409 487405722 1572601794 479585154 262312405 682951068 -371359873
REM
CELL 1.54180   50.00000   50.00000   50.00000   90.00000   90.00000   90.00000
LATT -1
SFAC C  
C      1  0.4561750000000  0.5144950000000  0.5416920000000 1.0
C      1  0.4809020000000  0.5315520000000  0.5434950000000 1.0
C      1  0.5275080000000  0.5228760000000  0.5442050000000 1.0
C      1  0.5450010000000  0.4993340000000  0.5407800000000 1.0
C      1  0.5334380000000  0.4717120000000  0.5463420000000 1.0
C      1  0.5001250000000  0.4684730000000  0.5412850000000 1.0
C      1  0.4603830000000  0.4861000000000  0.5481140000000 1.0
C      1  0.5422850000000  0.4551950000000  0.5201210000000 1.0
C      1  0.4931230000000  0.4433720000000  0.5261000000000 1.0
C      1  0.4468570000000  0.4685840000000  0.5261840000000 1.0
C      1  0.4417550000000  0.5201270000000  0.5170310000000 1.0
C      1  0.4792080000000  0.5548180000000  0.5226980000000 1.0
C      1  0.5353260000000  0.5459350000000  0.5247860000000 1.0
C      1  0.5585890000000  0.5030200000000  0.5150210000000 1.0
C      1  0.5250070000000  0.5017620000000  0.5860350000000 1.0
C      1  0.5234470000000  0.4746010000000  0.5775640000000 1.0
C      1  0.4958380000000  0.4645900000000  0.5790280000000 1.0
C      1  0.4746870000000  0.4837860000000  0.5740190000000 1.0
C      1  0.4796250000000  0.5093330000000  0.5854470000000 1.0
C      1  0.4907110000000  0.5322390000000  0.5729520000000 1.0
C      1  0.5200610000000  0.5267200000000  0.5732690000000 1.0
C      1  0.4713550000000  0.4907980000000  0.5057750000000 1.0
C      1  0.4792170000000  0.5025190000000  0.4793910000000 1.0
C      1  0.4914080000000  0.5276680000000  0.4905930000000 1.0
C      1  0.5216510000000  0.5278370000000  0.4935930000000 1.0
C      1  0.5368100000000  0.5030460000000  0.4921860000000 1.0
C      1  0.5169980000000  0.4820840000000  0.4956300000000 1.0
C      1  0.5001890000000  0.4815690000000  0.4696910000000 1.0
C      1  0.4888270000000  0.4393770000000  0.4675810000000 1.0
C      1  0.4482730000000  0.4661160000000  0.4655090000000 1.0
C      1  0.4550320000000  0.5119380000000  0.4633870000000 1.0
C      1  0.4853360000000  0.5539320000000  0.4632610000000 1.0
C      1  0.5356220000000  0.5541950000000  0.4693310000000 1.0
C      1  0.5558320000000  0.5072370000000  0.4663550000000 1.0
C      1  0.5352960000000  0.4553920000000  0.4605250000000 1.0
C      1  0.4572060000000  0.5428520000000  0.5030410000000 1.0
C      1  0.5058530000000  0.5638290000000  0.5116340000000 1.0
C      1  0.5618090000000  0.5351410000000  0.5102320000000 1.0
C      1  0.5619080000000  0.4673700000000  0.5011420000000 1.0
C      1  0.5185490000000  0.4401430000000  0.5089270000000 1.0
C      1  0.4662280000000  0.4482580000000  0.5118900000000 1.0
C      1  0.4331070000000  0.4925370000000  0.5059920000000 1.0
C      1  0.5619030000000  0.5379490000000  0.4800550000000 1.0
C      1  0.5583090000000  0.4698800000000  0.4721620000000 1.0
C      1  0.5160280000000  0.4412050000000  0.4789070000000 1.0
C      1  0.4687420000000  0.4535400000000  0.4830270000000 1.0
C      1  0.4354700000000  0.4914060000000  0.4755120000000 1.0
C      1  0.4565120000000  0.5427010000000  0.4714200000000 1.0
C      1  0.5078600000000  0.5675020000000  0.4817210000000 1.0
C      1  0.4632830000000  0.4720200000000  0.4397090000000 1.0
C      1  0.4646840000000  0.5023580000000  0.4364150000000 1.0
C      1  0.4986890000000  0.5408920000000  0.4389440000000 1.0
C      1  0.5282900000000  0.5413190000000  0.4433030000000 1.0
C      1  0.5391290000000  0.5137750000000  0.4423950000000 1.0
C      1  0.5184670000000  0.4659450000000  0.4370710000000 1.0
C      1  0.4894450000000  0.4548550000000  0.4418320000000 1.0
C      1  0.5027250000000  0.5161180000000  0.5315070000000 1.0
C      1  0.4918430000000  0.5130980000000  0.4295030000000 1.0
C      1  0.5159000000000  0.4966840000000  0.4371380000000 1.0
C      1  0.4984170000000  0.4895760000000  0.5194910000000 1.0
END
