TITL C-38185-7677-155 -1.01193955494306e-07 125000 -359.483627179606 0 0 60 (C1) n - 1
REM
REM in /home/bkarasulu/CARBON/AIRSS/Generating-Clusters/EDIP-Nigel-Params/Higher-Symm/Box-15A/Only-C60/SD-CG/FIRE-HFTN
REM
REM
REM
REM
REM
REM ./C.cell (414f73aa93bd7a1190c7fd0f31ff2f98)
REM
REM compiler GCC version 9.2.1 20190827 (Red Hat 9.2.1-1)
REM options -cpp -mtune=generic -march=x86-64 -g -O0 -fpre-include=/usr/include/finclude/math-vector-fortran.h
REM seed -104355110 1734767158 -2123208183 623039851 -1015573336 1802651217 -1318626719 1664944602 1817971358 1078951381 1908141324 529034055 1794872991 -248627200 -1604738058 1127789625 207270672 -1550800108 -1046398898 1784476297 -1791877528 -501136698 -1674184843 991447651 -959322171 -629707508 -275930313 612910611 317777819 94641457 1287264902 1102196407 -1677589014
REM
CELL 1.54180   50.00000   50.00000   50.00000   90.00000   90.00000   90.00000
LATT -1
SFAC C  
C      1  0.5012410000000  0.5364760000000  0.4394010000000 1.0
C      1  0.5453390000000  0.4391520000000  0.5041300000000 1.0
C      1  0.4418410000000  0.5040840000000  0.5428500000000 1.0
C      1  0.4947430000000  0.4579710000000  0.4415570000000 1.0
C      1  0.5061720000000  0.4568070000000  0.5605500000000 1.0
C      1  0.4976200000000  0.5403540000000  0.5590960000000 1.0
C      1  0.4663990000000  0.5569890000000  0.5010140000000 1.0
C      1  0.5339680000000  0.5552100000000  0.4988800000000 1.0
C      1  0.4549020000000  0.4367710000000  0.4959850000000 1.0
C      1  0.5646870000000  0.4951610000000  0.5430940000000 1.0
C      1  0.4408520000000  0.4973480000000  0.4645510000000 1.0
C      1  0.5600440000000  0.5048780000000  0.4538610000000 1.0
C      1  0.5351310000000  0.5022730000000  0.4390830000000 1.0
C      1  0.4419200000000  0.5417520000000  0.5049250000000 1.0
C      1  0.5019730000000  0.4434690000000  0.5350350000000 1.0
C      1  0.4564710000000  0.4952290000000  0.4402040000000 1.0
C      1  0.4656670000000  0.5028620000000  0.5592640000000 1.0
C      1  0.5387700000000  0.4983870000000  0.5561810000000 1.0
C      1  0.5577410000000  0.4653180000000  0.4999190000000 1.0
C      1  0.5546750000000  0.5351090000000  0.4985230000000 1.0
C      1  0.4409570000000  0.4622530000000  0.4985150000000 1.0
C      1  0.4949300000000  0.5657060000000  0.5448940000000 1.0
C      1  0.4988140000000  0.4437200000000  0.4665940000000 1.0
C      1  0.5040790000000  0.5614020000000  0.4541760000000 1.0
C      1  0.4529350000000  0.5226870000000  0.4304300000000 1.0
C      1  0.5239140000000  0.4302710000000  0.4598130000000 1.0
C      1  0.4296390000000  0.4583320000000  0.5251280000000 1.0
C      1  0.5396470000000  0.4758760000000  0.4274650000000 1.0
C      1  0.4610390000000  0.4768240000000  0.5718620000000 1.0
C      1  0.5436810000000  0.5239780000000  0.5691000000000 1.0
C      1  0.4760770000000  0.5703160000000  0.4524580000000 1.0
C      1  0.5234020000000  0.5737000000000  0.5459010000000 1.0
C      1  0.4763470000000  0.4306910000000  0.5411110000000 1.0
C      1  0.5679760000000  0.5416810000000  0.5236860000000 1.0
C      1  0.4304990000000  0.5453020000000  0.4780690000000 1.0
C      1  0.5700520000000  0.4599080000000  0.4739710000000 1.0
C      1  0.5215030000000  0.4540020000000  0.4301150000000 1.0
C      1  0.4286870000000  0.5234270000000  0.4598510000000 1.0
C      1  0.4534130000000  0.4286390000000  0.5242610000000 1.0
C      1  0.4746760000000  0.5409970000000  0.4282510000000 1.0
C      1  0.4788080000000  0.4544610000000  0.5709940000000 1.0
C      1  0.5240970000000  0.5443150000000  0.5702460000000 1.0
C      1  0.5693190000000  0.4771180000000  0.4512420000000 1.0
C      1  0.5733810000000  0.5234060000000  0.5450220000000 1.0
C      1  0.4323420000000  0.4766900000000  0.5467240000000 1.0
C      1  0.5409390000000  0.5686080000000  0.5238860000000 1.0
C      1  0.5472320000000  0.4295520000000  0.4763180000000 1.0
C      1  0.4594870000000  0.5698440000000  0.4756950000000 1.0
C      1  0.5219920000000  0.5232660000000  0.4267260000000 1.0
C      1  0.5221670000000  0.4343680000000  0.5186730000000 1.0
C      1  0.4804180000000  0.5689520000000  0.5214680000000 1.0
C      1  0.4805230000000  0.4815660000000  0.4381580000000 1.0
C      1  0.4784230000000  0.4330780000000  0.4817350000000 1.0
C      1  0.4290810000000  0.4760460000000  0.4777010000000 1.0
C      1  0.4775310000000  0.5251590000000  0.5705430000000 1.0
C      1  0.5230130000000  0.4781260000000  0.5660320000000 1.0
C      1  0.5178250000000  0.5637570000000  0.4781480000000 1.0
C      1  0.5623310000000  0.5180000000000  0.4781800000000 1.0
C      1  0.4397190000000  0.5178300000000  0.5188500000000 1.0
C      1  0.5689470000000  0.4805470000000  0.5199040000000 1.0
END
