TITL C-38197-8510-589 4.07328306643867e-05 125000 -355.119946328586 0 0 60 (C1) n - 1
REM
REM in /home/bkarasulu/CARBON/AIRSS/Generating-Clusters/EDIP-Nigel-Params/Higher-Symm/Box-15A/Only-C60/SD-CG/FIRE-HFTN
REM
REM
REM
REM
REM
REM ./C.cell (414f73aa93bd7a1190c7fd0f31ff2f98)
REM
REM compiler GCC version 9.2.1 20190827 (Red Hat 9.2.1-1)
REM options -cpp -mtune=generic -march=x86-64 -g -O0 -fpre-include=/usr/include/finclude/math-vector-fortran.h
REM seed 619303052 1482216455 1571371044 -1017116769 2035889094 440794369 -153670180 1042818579 667790791 1661221534 1367627741 -329139369 152392034 451513980 -1710364400 1909586372 -296682496 849435850 2024526115 723315428 544700423 -295636990 -1522806060 -1602162412 -2057998006 -543120024 1628900722 72707348 1331569278 1022644150 2038383915 1519691159 121811511
REM
CELL 1.54180   50.00000   50.00000   50.00000   90.00000   90.00000   90.00000
LATT -1
SFAC C  
C      1  0.5146150000000  0.4419710000000  0.5127200000000 1.0
C      1  0.5124050000000  0.4502220000000  0.4620070000000 1.0
C      1  0.5163460000000  0.4979610000000  0.4406180000000 1.0
C      1  0.5220410000000  0.5436510000000  0.4651310000000 1.0
C      1  0.5171230000000  0.5591790000000  0.5144270000000 1.0
C      1  0.5149090000000  0.5276160000000  0.5544920000000 1.0
C      1  0.5168540000000  0.4762240000000  0.5509970000000 1.0
C      1  0.5551400000000  0.5354000000000  0.5308170000000 1.0
C      1  0.5527020000000  0.5055310000000  0.5368280000000 1.0
C      1  0.5518530000000  0.4716880000000  0.5159290000000 1.0
C      1  0.5512860000000  0.4587220000000  0.4882160000000 1.0
C      1  0.5511380000000  0.4765400000000  0.4639410000000 1.0
C      1  0.5537730000000  0.5056450000000  0.4664420000000 1.0
C      1  0.5584560000000  0.5402430000000  0.5013700000000 1.0
C      1  0.4435950000000  0.4746360000000  0.4740110000000 1.0
C      1  0.4446210000000  0.5020760000000  0.4653680000000 1.0
C      1  0.4469600000000  0.5258360000000  0.4818350000000 1.0
C      1  0.4465790000000  0.5275580000000  0.5106860000000 1.0
C      1  0.4463120000000  0.5062510000000  0.5300540000000 1.0
C      1  0.4462170000000  0.4778610000000  0.5254940000000 1.0
C      1  0.4455410000000  0.4637000000000  0.5005260000000 1.0
C      1  0.4589050000000  0.4218620000000  0.5237930000000 1.0
C      1  0.4563030000000  0.4308850000000  0.4533720000000 1.0
C      1  0.4540600000000  0.5228380000000  0.4194150000000 1.0
C      1  0.4645050000000  0.5567960000000  0.4460600000000 1.0
C      1  0.4598790000000  0.5757340000000  0.5086970000000 1.0
C      1  0.4588180000000  0.5373490000000  0.5675620000000 1.0
C      1  0.4613780000000  0.4688280000000  0.5723160000000 1.0
C      1  0.4807780000000  0.5721710000000  0.4635350000000 1.0
C      1  0.4751660000000  0.5788640000000  0.5324760000000 1.0
C      1  0.4747760000000  0.5196210000000  0.5831570000000 1.0
C      1  0.4790420000000  0.4473080000000  0.5663390000000 1.0
C      1  0.4766560000000  0.4112830000000  0.5043090000000 1.0
C      1  0.4728940000000  0.4416940000000  0.4328900000000 1.0
C      1  0.4718640000000  0.5028300000000  0.4119580000000 1.0
C      1  0.4463010000000  0.5140230000000  0.5574490000000 1.0
C      1  0.4475150000000  0.4614570000000  0.5487170000000 1.0
C      1  0.4462720000000  0.4353220000000  0.5023290000000 1.0
C      1  0.4427020000000  0.4557150000000  0.4527790000000 1.0
C      1  0.4426750000000  0.5044050000000  0.4368920000000 1.0
C      1  0.4485550000000  0.5511260000000  0.4687230000000 1.0
C      1  0.4475860000000  0.5538080000000  0.5216820000000 1.0
C      1  0.5299940000000  0.5022180000000  0.5557570000000 1.0
C      1  0.5302270000000  0.4580130000000  0.5318330000000 1.0
C      1  0.5272730000000  0.4414300000000  0.4860880000000 1.0
C      1  0.5273420000000  0.4710850000000  0.4472830000000 1.0
C      1  0.5329640000000  0.5196670000000  0.4518690000000 1.0
C      1  0.5339900000000  0.5537550000000  0.4906910000000 1.0
C      1  0.5295950000000  0.5483740000000  0.5392020000000 1.0
C      1  0.4978170000000  0.5017300000000  0.4205000000000 1.0
C      1  0.5027800000000  0.5594550000000  0.4511440000000 1.0
C      1  0.4977520000000  0.5801410000000  0.5154980000000 1.0
C      1  0.4967420000000  0.5354430000000  0.5750350000000 1.0
C      1  0.4999460000000  0.4656380000000  0.5713660000000 1.0
C      1  0.4975190000000  0.4206930000000  0.5209230000000 1.0
C      1  0.4946400000000  0.4325080000000  0.4484680000000 1.0
C      1  0.5694030000000  0.5177490000000  0.4869010000000 1.0
C      1  0.5432050000000  0.4994470000000  0.5085000000000 1.0
C      1  0.5148070000000  0.5011910000000  0.5052890000000 1.0
C      1  0.4919740000000  0.4967510000000  0.4945630000000 1.0
END
