TITL C-38184-643-521 2.0778744752002e-05 125000 -363.91038508785 0 0 60 (C2) n - 1
REM
REM in /home/bkarasulu/CARBON/AIRSS/Generating-Clusters/EDIP-Nigel-Params/Higher-Symm/Box-15A/Only-C60/SD-CG/FIRE-HFTN
REM
REM
REM
REM
REM
REM ./C.cell (414f73aa93bd7a1190c7fd0f31ff2f98)
REM
REM compiler GCC version 9.2.1 20190827 (Red Hat 9.2.1-1)
REM options -cpp -mtune=generic -march=x86-64 -g -O0 -fpre-include=/usr/include/finclude/math-vector-fortran.h
REM seed 167427066 311566522 -409976303 -118549496 238874557 925361641 -1615522133 820815709 1571099779 296786508 1904334067 -1746381846 1038271353 -785207964 -341696083 -571389587 -439441028 -906063401 1952117544 1277556663 606557317 60524435 1080317695 -1052028967 1633677033 -408616595 146709101 468670931 -1091192568 686682327 -452180777 1780842947 -356333811
REM
CELL 1.54180   50.00000   50.00000   50.00000   90.00000   90.00000   90.00000
LATT -1
SFAC C  
C      1  0.5536060000000  0.5072390000000  0.4520810000000 1.0
C      1  0.5536060000000  0.4927610000000  0.5479190000000 1.0
C      1  0.4959990000000  0.5445090000000  0.5588830000000 1.0
C      1  0.4959990000000  0.4554910000000  0.4411170000000 1.0
C      1  0.5151410000000  0.4979870000000  0.5221670000000 1.0
C      1  0.5151410000000  0.5020130000000  0.4778330000000 1.0
C      1  0.4703790000000  0.5063770000000  0.5138520000000 1.0
C      1  0.4703790000000  0.4936230000000  0.4861480000000 1.0
C      1  0.4764560000000  0.4903230000000  0.5639000000000 1.0
C      1  0.4764560000000  0.5096770000000  0.4361000000000 1.0
C      1  0.5661440000000  0.5123080000000  0.5312090000000 1.0
C      1  0.5661440000000  0.4876920000000  0.4687910000000 1.0
C      1  0.4725640000000  0.5165140000000  0.4653130000000 1.0
C      1  0.4725640000000  0.4834860000000  0.5346870000000 1.0
C      1  0.5207910000000  0.4691490000000  0.4486560000000 1.0
C      1  0.5207910000000  0.5308510000000  0.5513440000000 1.0
C      1  0.5637780000000  0.5400680000000  0.4895990000000 1.0
C      1  0.5637780000000  0.4599320000000  0.5104010000000 1.0
C      1  0.4877250000000  0.5686090000000  0.4953700000000 1.0
C      1  0.4877250000000  0.4313910000000  0.5046300000000 1.0
C      1  0.4524040000000  0.4672530000000  0.4438430000000 1.0
C      1  0.4524040000000  0.5327470000000  0.5561570000000 1.0
C      1  0.5528410000000  0.5291720000000  0.5136690000000 1.0
C      1  0.5528410000000  0.4708280000000  0.4863310000000 1.0
C      1  0.5267000000000  0.4492910000000  0.5147350000000 1.0
C      1  0.5267000000000  0.5507090000000  0.4852650000000 1.0
C      1  0.4717460000000  0.4824490000000  0.4281610000000 1.0
C      1  0.4717460000000  0.5175510000000  0.5718390000000 1.0
C      1  0.5237720000000  0.5001320000000  0.4501320000000 1.0
C      1  0.5237720000000  0.4998680000000  0.5498680000000 1.0
C      1  0.4471170000000  0.5410350000000  0.4989360000000 1.0
C      1  0.4471170000000  0.4589650000000  0.5010640000000 1.0
C      1  0.4333920000000  0.5171270000000  0.5097120000000 1.0
C      1  0.4333920000000  0.4828730000000  0.4902880000000 1.0
C      1  0.5592790000000  0.5347870000000  0.4610880000000 1.0
C      1  0.5592790000000  0.4652130000000  0.5389120000000 1.0
C      1  0.4807860000000  0.5572240000000  0.4680020000000 1.0
C      1  0.4807860000000  0.4427760000000  0.5319980000000 1.0
C      1  0.4718200000000  0.5505410000000  0.5135560000000 1.0
C      1  0.4718200000000  0.4494590000000  0.4864440000000 1.0
C      1  0.4975070000000  0.5211500000000  0.5149830000000 1.0
C      1  0.4975070000000  0.4788500000000  0.4850170000000 1.0
C      1  0.5301100000000  0.5572080000000  0.4558850000000 1.0
C      1  0.5301100000000  0.4427920000000  0.5441150000000 1.0
C      1  0.5388950000000  0.4566000000000  0.4668720000000 1.0
C      1  0.5388950000000  0.5434000000000  0.5331280000000 1.0
C      1  0.5152730000000  0.4266870000000  0.5005170000000 1.0
C      1  0.5152730000000  0.5733130000000  0.4994830000000 1.0
C      1  0.5040360000000  0.5478270000000  0.4469540000000 1.0
C      1  0.5040360000000  0.4521730000000  0.5530460000000 1.0
C      1  0.5050950000000  0.4719250000000  0.5134070000000 1.0
C      1  0.5050950000000  0.5280750000000  0.4865930000000 1.0
C      1  0.4548470000000  0.5403560000000  0.4706170000000 1.0
C      1  0.4548470000000  0.4596440000000  0.5293830000000 1.0
C      1  0.4713350000000  0.4477150000000  0.4558180000000 1.0
C      1  0.4713350000000  0.5522850000000  0.5441820000000 1.0
C      1  0.4362350000000  0.5184330000000  0.5378660000000 1.0
C      1  0.4362350000000  0.4815670000000  0.4621340000000 1.0
C      1  0.5042260000000  0.4801250000000  0.5653900000000 1.0
C      1  0.5042260000000  0.5198750000000  0.4346100000000 1.0
END
