TITL C-38197-8510-200 3.86614862723272e-05 125000 -354.011090027477 0 0 60 (Ci) n - 1
REM
REM in /home/bkarasulu/CARBON/AIRSS/Generating-Clusters/EDIP-Nigel-Params/Higher-Symm/Box-15A/Only-C60/SD-CG/FIRE-HFTN
REM
REM
REM
REM
REM
REM ./C.cell (414f73aa93bd7a1190c7fd0f31ff2f98)
REM
REM compiler GCC version 9.2.1 20190827 (Red Hat 9.2.1-1)
REM options -cpp -mtune=generic -march=x86-64 -g -O0 -fpre-include=/usr/include/finclude/math-vector-fortran.h
REM seed -449154785 -1499068529 1057348274 -818629638 -1762344203 -1693974959 -2005840836 2131435092 -637251158 -1464485043 880993963 493884856 -1747422204 2115145613 1343687488 -310281559 188786741 -2005434421 532765391 -72179251 -1220009421 168526134 -1627295360 514462156 -1156426376 -317933091 632014909 429277204 65511086 964848471 -249906784 1552155568 1417768069
REM
CELL 1.54180   50.00000   50.00000   50.00000   90.00000   90.00000   90.00000
LATT -1
SFAC C  
C      1  0.5440060000000  0.4722570000000  0.5553760000000 1.0
C      1  0.4559940000000  0.5277430000000  0.4446240000000 1.0
C      1  0.5349350000000  0.5502490000000  0.5178930000000 1.0
C      1  0.4650650000000  0.4497510000000  0.4821070000000 1.0
C      1  0.5231660000000  0.4545270000000  0.5498560000000 1.0
C      1  0.4768340000000  0.5454730000000  0.4501440000000 1.0
C      1  0.4908280000000  0.5146990000000  0.4785560000000 1.0
C      1  0.5091720000000  0.4853010000000  0.5214440000000 1.0
C      1  0.5199280000000  0.4790680000000  0.4942370000000 1.0
C      1  0.4800720000000  0.5209320000000  0.5057630000000 1.0
C      1  0.5508920000000  0.5222150000000  0.4545910000000 1.0
C      1  0.4491080000000  0.4777850000000  0.5454090000000 1.0
C      1  0.4634770000000  0.5543450000000  0.5114760000000 1.0
C      1  0.5365230000000  0.4456550000000  0.4885240000000 1.0
C      1  0.4391110000000  0.4979470000000  0.5250920000000 1.0
C      1  0.5608890000000  0.5020530000000  0.4749080000000 1.0
C      1  0.5495910000000  0.5501300000000  0.4669460000000 1.0
C      1  0.4504090000000  0.4498700000000  0.5330540000000 1.0
C      1  0.5076480000000  0.5157840000000  0.5227530000000 1.0
C      1  0.4923520000000  0.4842160000000  0.4772470000000 1.0
C      1  0.4712920000000  0.5677750000000  0.4661610000000 1.0
C      1  0.5287080000000  0.4322250000000  0.5338390000000 1.0
C      1  0.4181630000000  0.5117910000000  0.4783610000000 1.0
C      1  0.5818370000000  0.4882090000000  0.5216390000000 1.0
C      1  0.4817730000000  0.4738380000000  0.5145200000000 1.0
C      1  0.5182270000000  0.5261620000000  0.4854800000000 1.0
C      1  0.5898830000000  0.5136290000000  0.5151450000000 1.0
C      1  0.4101170000000  0.4863710000000  0.4848550000000 1.0
C      1  0.4139290000000  0.4922860000000  0.5116340000000 1.0
C      1  0.5860710000000  0.5077140000000  0.4883660000000 1.0
C      1  0.4628550000000  0.4967310000000  0.5077650000000 1.0
C      1  0.5371450000000  0.5032690000000  0.4922350000000 1.0
C      1  0.4750520000000  0.5240440000000  0.5497690000000 1.0
C      1  0.5249480000000  0.4759560000000  0.4502310000000 1.0
C      1  0.5520580000000  0.5503560000000  0.4953270000000 1.0
C      1  0.4479420000000  0.4496440000000  0.5046730000000 1.0
C      1  0.4986220000000  0.4184440000000  0.4996960000000 1.0
C      1  0.5013780000000  0.5815560000000  0.5003040000000 1.0
C      1  0.5057580000000  0.5401380000000  0.4457170000000 1.0
C      1  0.4942420000000  0.4598620000000  0.5542830000000 1.0
C      1  0.4778860000000  0.4430890000000  0.5378840000000 1.0
C      1  0.5221140000000  0.5569110000000  0.4621160000000 1.0
C      1  0.4745190000000  0.5505100000000  0.5382570000000 1.0
C      1  0.5254810000000  0.4494900000000  0.4617430000000 1.0
C      1  0.4606920000000  0.4685070000000  0.4612410000000 1.0
C      1  0.5393080000000  0.5314930000000  0.5387590000000 1.0
C      1  0.4774770000000  0.4853420000000  0.5559290000000 1.0
C      1  0.5225230000000  0.5146580000000  0.4440710000000 1.0
C      1  0.4976040000000  0.5657900000000  0.5431090000000 1.0
C      1  0.5023960000000  0.4342100000000  0.4568910000000 1.0
C      1  0.5652860000000  0.4826220000000  0.5428310000000 1.0
C      1  0.4347140000000  0.5173780000000  0.4571690000000 1.0
C      1  0.5222830000000  0.5262960000000  0.5599700000000 1.0
C      1  0.4777170000000  0.4737040000000  0.4400300000000 1.0
C      1  0.4753990000000  0.5734380000000  0.4931890000000 1.0
C      1  0.5246010000000  0.4265620000000  0.5068110000000 1.0
C      1  0.5153150000000  0.5710530000000  0.5221480000000 1.0
C      1  0.4846850000000  0.4289470000000  0.4778520000000 1.0
C      1  0.4969760000000  0.5162070000000  0.5655190000000 1.0
C      1  0.5030240000000  0.4837930000000  0.4344810000000 1.0
END
