TITL C-38191-7580-110 0.394803080034208 125000 -357.725155013001 0 0 60 (Ci) n - 1
REM
REM in /home/bkarasulu/CARBON/AIRSS/Generating-Clusters/EDIP-Nigel-Params/Higher-Symm/Box-15A/Only-C60/SD-CG/FIRE-HFTN
REM
REM
REM
REM
REM
REM ./C.cell (414f73aa93bd7a1190c7fd0f31ff2f98)
REM
REM compiler GCC version 9.2.1 20190827 (Red Hat 9.2.1-1)
REM options -cpp -mtune=generic -march=x86-64 -g -O0 -fpre-include=/usr/include/finclude/math-vector-fortran.h
REM seed 836898955 1013055712 1186627845 287684366 -407628133 -1666851881 1468151074 767404110 -1059493367 -2145394063 1460762215 1813385643 -970925156 -540528198 1276361336 -1609854071 -1944569960 -834264936 1876608924 2145278690 1194299877 -844640680 463256843 -1460968669 -1611796913 1307690119 -224054437 200324144 498988734 -25349492 748034466 502577344 -385767812
REM
CELL 1.54180   50.00000   50.00000   50.00000   90.00000   90.00000   90.00000
LATT -1
SFAC C  
C      1  0.3922860000000  0.4120010000000  0.5405030000000 1.0
C      1  0.6077140000000  0.5879990000000  0.4594970000000 1.0
C      1  0.4314690000000  0.4301340000000  0.5220300000000 1.0
C      1  0.5685310000000  0.5698660000000  0.4779700000000 1.0
C      1  0.4487240000000  0.4994690000000  0.4281080000000 1.0
C      1  0.5512760000000  0.5005310000000  0.5718920000000 1.0
C      1  0.5801270000000  0.5244810000000  0.5402200000000 1.0
C      1  0.4198730000000  0.4755190000000  0.4597800000000 1.0
C      1  0.5069540000000  0.5065610000000  0.5357300000000 1.0
C      1  0.4930460000000  0.4934390000000  0.4642700000000 1.0
C      1  0.3769880000000  0.4754050000000  0.4709710000000 1.0
C      1  0.6230120000000  0.5245950000000  0.5290290000000 1.0
C      1  0.6239560000000  0.5766930000000  0.4773110000000 1.0
C      1  0.3760440000000  0.4233070000000  0.5226890000000 1.0
C      1  0.4614850000000  0.4563590000000  0.4438650000000 1.0
C      1  0.5385150000000  0.5436410000000  0.5561350000000 1.0
C      1  0.4786720000000  0.4289210000000  0.5366650000000 1.0
C      1  0.5213280000000  0.5710790000000  0.4633350000000 1.0
C      1  0.4933100000000  0.5036370000000  0.5117380000000 1.0
C      1  0.5066900000000  0.4963630000000  0.4882620000000 1.0
C      1  0.6050930000000  0.5130690000000  0.5474040000000 1.0
C      1  0.3949070000000  0.4869310000000  0.4525960000000 1.0
C      1  0.4417960000000  0.4757150000000  0.4410150000000 1.0
C      1  0.5582040000000  0.5242850000000  0.5589850000000 1.0
C      1  0.5131450000000  0.5505010000000  0.5502940000000 1.0
C      1  0.4868550000000  0.4494990000000  0.4497060000000 1.0
C      1  0.4196420000000  0.4141410000000  0.5443800000000 1.0
C      1  0.5803580000000  0.5858590000000  0.4556200000000 1.0
C      1  0.5303820000000  0.4821490000000  0.5721220000000 1.0
C      1  0.4696180000000  0.5178510000000  0.4278780000000 1.0
C      1  0.4798130000000  0.5664720000000  0.4317850000000 1.0
C      1  0.5201870000000  0.4335280000000  0.5682150000000 1.0
C      1  0.4965420000000  0.5323860000000  0.5379680000000 1.0
C      1  0.5034580000000  0.4676140000000  0.4620320000000 1.0
C      1  0.4378070000000  0.4463670000000  0.4990760000000 1.0
C      1  0.5621930000000  0.5536330000000  0.5009240000000 1.0
C      1  0.5084440000000  0.4889000000000  0.5568250000000 1.0
C      1  0.4915560000000  0.5111000000000  0.4431750000000 1.0
C      1  0.3322670000000  0.4754710000000  0.4935750000000 1.0
C      1  0.6677330000000  0.5245290000000  0.5064250000000 1.0
C      1  0.4992560000000  0.4245160000000  0.5544220000000 1.0
C      1  0.5007440000000  0.5754840000000  0.4455780000000 1.0
C      1  0.3485520000000  0.4768330000000  0.4714330000000 1.0
C      1  0.6514480000000  0.5231670000000  0.5285670000000 1.0
C      1  0.6108390000000  0.5429920000000  0.5114600000000 1.0
C      1  0.3891610000000  0.4570080000000  0.4885400000000 1.0
C      1  0.6300280000000  0.5566430000000  0.4951620000000 1.0
C      1  0.3699720000000  0.4433570000000  0.5048380000000 1.0
C      1  0.4658540000000  0.5449530000000  0.4243340000000 1.0
C      1  0.5341460000000  0.4550470000000  0.5756660000000 1.0
C      1  0.4648610000000  0.4506760000000  0.4949220000000 1.0
C      1  0.5351390000000  0.5493240000000  0.5050780000000 1.0
C      1  0.4171900000000  0.4563880000000  0.4816800000000 1.0
C      1  0.5828100000000  0.5436120000000  0.5183200000000 1.0
C      1  0.4831330000000  0.4426670000000  0.5131060000000 1.0
C      1  0.5168670000000  0.5573330000000  0.4868940000000 1.0
C      1  0.3429810000000  0.4507090000000  0.4992010000000 1.0
C      1  0.6570190000000  0.5492910000000  0.5007990000000 1.0
C      1  0.4513680000000  0.4209680000000  0.5418950000000 1.0
C      1  0.5486320000000  0.5790320000000  0.4581050000000 1.0
END
