TITL C-38191-7580-455 -4.76372642157352e-06 125000 -348.40818557626 0 0 60 (Td) n - 1
REM
REM in /home/bkarasulu/CARBON/AIRSS/Generating-Clusters/EDIP-Nigel-Params/Higher-Symm/Box-15A/Only-C60/SD-CG/FIRE-HFTN
REM
REM
REM
REM
REM
REM ./C.cell (414f73aa93bd7a1190c7fd0f31ff2f98)
REM
REM compiler GCC version 9.2.1 20190827 (Red Hat 9.2.1-1)
REM options -cpp -mtune=generic -march=x86-64 -g -O0 -fpre-include=/usr/include/finclude/math-vector-fortran.h
REM seed 1691144346 1349042709 -257494172 -491853728 -818032149 -2209038 -1020907387 1882703365 -492676149 -205468067 -1520880522 -1745121589 373597662 -1042349292 1712753542 -663363305 2062463729 -260358974 1232801726 -1193166820 -1519845144 -329935184 -1706096650 -508886355 166938624 223453826 1128005390 -670124088 -302986911 2018461429 -25581422 -1287678255 1086461561
REM
CELL 1.54180   50.00000   50.00000   50.00000   90.00000   90.00000   90.00000
LATT -1
SFAC C  
C      1  0.5712080000000  0.5243520000000  0.4491990000000 1.0
C      1  0.4491990000000  0.5712080000000  0.5243520000000 1.0
C      1  0.5243520000000  0.4491990000000  0.5712080000000 1.0
C      1  0.4287920000000  0.5243520000000  0.5508010000000 1.0
C      1  0.5712080000000  0.4756480000000  0.5508010000000 1.0
C      1  0.4287920000000  0.4756480000000  0.4491990000000 1.0
C      1  0.5508010000000  0.5712080000000  0.4756480000000 1.0
C      1  0.4491990000000  0.4287920000000  0.4756480000000 1.0
C      1  0.5508010000000  0.4287920000000  0.5243520000000 1.0
C      1  0.4756480000000  0.4491990000000  0.4287920000000 1.0
C      1  0.5243520000000  0.5508010000000  0.4287920000000 1.0
C      1  0.4756480000000  0.5508010000000  0.5712080000000 1.0
C      1  0.4491990000000  0.5243520000000  0.5712080000000 1.0
C      1  0.5243520000000  0.5712080000000  0.4491990000000 1.0
C      1  0.5712080000000  0.4491990000000  0.5243520000000 1.0
C      1  0.5508010000000  0.5243520000000  0.4287920000000 1.0
C      1  0.5508010000000  0.4756480000000  0.5712080000000 1.0
C      1  0.4491990000000  0.4756480000000  0.4287920000000 1.0
C      1  0.4756480000000  0.5712080000000  0.5508010000000 1.0
C      1  0.4756480000000  0.4287920000000  0.4491990000000 1.0
C      1  0.5243520000000  0.4287920000000  0.5508010000000 1.0
C      1  0.4287920000000  0.4491990000000  0.4756480000000 1.0
C      1  0.4287920000000  0.5508010000000  0.5243520000000 1.0
C      1  0.5712080000000  0.5508010000000  0.4756480000000 1.0
C      1  0.4351650000000  0.5071700000000  0.5276110000000 1.0
C      1  0.5276110000000  0.4351650000000  0.5071700000000 1.0
C      1  0.5071700000000  0.5276110000000  0.4351650000000 1.0
C      1  0.5648350000000  0.5071700000000  0.4723890000000 1.0
C      1  0.4351650000000  0.4928300000000  0.4723890000000 1.0
C      1  0.5648350000000  0.4928300000000  0.5276110000000 1.0
C      1  0.4723890000000  0.4351650000000  0.4928300000000 1.0
C      1  0.5276110000000  0.5648350000000  0.4928300000000 1.0
C      1  0.4723890000000  0.5648350000000  0.5071700000000 1.0
C      1  0.4928300000000  0.5276110000000  0.5648350000000 1.0
C      1  0.5071700000000  0.4723890000000  0.5648350000000 1.0
C      1  0.4928300000000  0.4723890000000  0.4351650000000 1.0
C      1  0.5276110000000  0.5071700000000  0.4351650000000 1.0
C      1  0.5071700000000  0.4351650000000  0.5276110000000 1.0
C      1  0.4351650000000  0.5276110000000  0.5071700000000 1.0
C      1  0.4723890000000  0.5071700000000  0.5648350000000 1.0
C      1  0.4723890000000  0.4928300000000  0.4351650000000 1.0
C      1  0.5276110000000  0.4928300000000  0.5648350000000 1.0
C      1  0.4928300000000  0.4351650000000  0.4723890000000 1.0
C      1  0.4928300000000  0.5648350000000  0.5276110000000 1.0
C      1  0.5071700000000  0.5648350000000  0.4723890000000 1.0
C      1  0.5648350000000  0.5276110000000  0.4928300000000 1.0
C      1  0.5648350000000  0.4723890000000  0.5071700000000 1.0
C      1  0.4351650000000  0.4723890000000  0.4928300000000 1.0
C      1  0.5137040000000  0.5137040000000  0.5795220000000 1.0
C      1  0.5795220000000  0.5137040000000  0.5137040000000 1.0
C      1  0.5137040000000  0.5795220000000  0.5137040000000 1.0
C      1  0.4862960000000  0.5137040000000  0.4204780000000 1.0
C      1  0.5137040000000  0.4862960000000  0.4204780000000 1.0
C      1  0.4862960000000  0.4862960000000  0.5795220000000 1.0
C      1  0.4204780000000  0.5137040000000  0.4862960000000 1.0
C      1  0.5795220000000  0.4862960000000  0.4862960000000 1.0
C      1  0.4204780000000  0.4862960000000  0.5137040000000 1.0
C      1  0.4862960000000  0.5795220000000  0.4862960000000 1.0
C      1  0.5137040000000  0.4204780000000  0.4862960000000 1.0
C      1  0.4862960000000  0.4204780000000  0.5137040000000 1.0
END
