TITL C-38184-643-543 -0.0043023414039671 125000 -353.938951702525 0 0 60 (C1) n - 1
REM
REM in /home/bkarasulu/CARBON/AIRSS/Generating-Clusters/EDIP-Nigel-Params/Higher-Symm/Box-15A/Only-C60/SD-CG/FIRE-HFTN
REM
REM
REM
REM
REM
REM ./C.cell (414f73aa93bd7a1190c7fd0f31ff2f98)
REM
REM compiler GCC version 9.2.1 20190827 (Red Hat 9.2.1-1)
REM options -cpp -mtune=generic -march=x86-64 -g -O0 -fpre-include=/usr/include/finclude/math-vector-fortran.h
REM seed -2127522165 304925065 1647255841 -710102282 1480535293 720388089 -136873763 -381852458 1064293452 1899661626 1212930649 -448619870 -2113129820 -1471336319 -1142968169 -12876564 -111806032 208600048 -1662082077 748789056 -1232711417 -1587248535 -94631996 336963095 1340833703 882869060 -1644241698 1198211440 1492592912 1823016209 -1858984666 -1133097662 268067758
REM
CELL 1.54180   50.00000   50.00000   50.00000   90.00000   90.00000   90.00000
LATT -1
SFAC C  
C      1  0.5777960000000  0.4678450000000  0.5374310000000 1.0
C      1  0.4526800000000  0.5109650000000  0.4047810000000 1.0
C      1  0.4815890000000  0.4214630000000  0.5197610000000 1.0
C      1  0.5395710000000  0.4735920000000  0.5067340000000 1.0
C      1  0.5845110000000  0.4634040000000  0.4875410000000 1.0
C      1  0.5492090000000  0.5194730000000  0.5775150000000 1.0
C      1  0.4366170000000  0.5243100000000  0.5332510000000 1.0
C      1  0.4335620000000  0.5597490000000  0.4743770000000 1.0
C      1  0.5777270000000  0.4805020000000  0.5607890000000 1.0
C      1  0.4806430000000  0.5547790000000  0.4919380000000 1.0
C      1  0.5912490000000  0.5015910000000  0.4878600000000 1.0
C      1  0.4700240000000  0.4612860000000  0.5467780000000 1.0
C      1  0.4151050000000  0.5059380000000  0.4661300000000 1.0
C      1  0.5310400000000  0.4256090000000  0.5320360000000 1.0
C      1  0.4216300000000  0.5072660000000  0.5173470000000 1.0
C      1  0.5140590000000  0.4377330000000  0.5506610000000 1.0
C      1  0.5375660000000  0.5485700000000  0.5066780000000 1.0
C      1  0.5678090000000  0.5006720000000  0.5748700000000 1.0
C      1  0.5165580000000  0.5539340000000  0.5275150000000 1.0
C      1  0.4464760000000  0.5490990000000  0.5216910000000 1.0
C      1  0.4997200000000  0.5341700000000  0.4811120000000 1.0
C      1  0.4156400000000  0.4985180000000  0.4928540000000 1.0
C      1  0.5436700000000  0.5345550000000  0.4596430000000 1.0
C      1  0.4410120000000  0.4683420000000  0.4434430000000 1.0
C      1  0.4857570000000  0.4358640000000  0.5436330000000 1.0
C      1  0.4258540000000  0.5509680000000  0.4491900000000 1.0
C      1  0.4728270000000  0.5071570000000  0.5690850000000 1.0
C      1  0.5264750000000  0.5476440000000  0.4778740000000 1.0
C      1  0.4856090000000  0.5344380000000  0.3708710000000 1.0
C      1  0.4520300000000  0.5475850000000  0.4926910000000 1.0
C      1  0.5689300000000  0.4710370000000  0.5110930000000 1.0
C      1  0.4355780000000  0.4958430000000  0.4483580000000 1.0
C      1  0.4834080000000  0.4919880000000  0.5046050000000 1.0
C      1  0.4989810000000  0.4492700000000  0.4826610000000 1.0
C      1  0.5014310000000  0.5457760000000  0.3542880000000 1.0
C      1  0.5288470000000  0.4519740000000  0.4895950000000 1.0
C      1  0.4707460000000  0.4775810000000  0.5234890000000 1.0
C      1  0.5319950000000  0.5012280000000  0.5003520000000 1.0
C      1  0.4972950000000  0.4221650000000  0.4964970000000 1.0
C      1  0.5279220000000  0.4238780000000  0.5039160000000 1.0
C      1  0.5616800000000  0.5157990000000  0.4529220000000 1.0
C      1  0.4339870000000  0.4984480000000  0.4200660000000 1.0
C      1  0.5817160000000  0.4980570000000  0.4607030000000 1.0
C      1  0.5216050000000  0.4590730000000  0.5665870000000 1.0
C      1  0.4687980000000  0.5226110000000  0.3874150000000 1.0
C      1  0.4672900000000  0.5616510000000  0.5367360000000 1.0
C      1  0.4084160000000  0.5334410000000  0.4617630000000 1.0
C      1  0.5506820000000  0.5219470000000  0.5104800000000 1.0
C      1  0.5039610000000  0.5100120000000  0.4990200000000 1.0
C      1  0.5241870000000  0.5291300000000  0.5711210000000 1.0
C      1  0.4659630000000  0.4574100000000  0.4445450000000 1.0
C      1  0.5068650000000  0.4801930000000  0.5771420000000 1.0
C      1  0.4885770000000  0.4519230000000  0.4572740000000 1.0
C      1  0.5230750000000  0.5514500000000  0.5546110000000 1.0
C      1  0.5775990000000  0.4698650000000  0.4605920000000 1.0
C      1  0.4892940000000  0.5603850000000  0.5194160000000 1.0
C      1  0.4756870000000  0.4761630000000  0.5730000000000 1.0
C      1  0.5776850000000  0.5202630000000  0.5031260000000 1.0
C      1  0.4495680000000  0.5155870000000  0.5560950000000 1.0
C      1  0.5042200000000  0.5088330000000  0.5664500000000 1.0
END
