TITL C-38185-7677-427 -7.56050137876755e-06 125000 -365.963760186546 0 0 60 (S4) n - 1
REM
REM in /home/bkarasulu/CARBON/AIRSS/Generating-Clusters/EDIP-Nigel-Params/Higher-Symm/Box-15A/Only-C60/SD-CG/FIRE-HFTN
REM
REM
REM
REM
REM
REM ./C.cell (414f73aa93bd7a1190c7fd0f31ff2f98)
REM
REM compiler GCC version 9.2.1 20190827 (Red Hat 9.2.1-1)
REM options -cpp -mtune=generic -march=x86-64 -g -O0 -fpre-include=/usr/include/finclude/math-vector-fortran.h
REM seed -1231630177 131625206 -156178885 -707574954 -216902625 2088077009 -767231418 138146873 -521929369 -452236731 135641683 1549859937 -1354839158 -1211469022 -1518304977 -1108889969 808881367 -716799603 -1863010055 -1189914925 -1751187043 1183273746 1356978443 -1413535182 -1069491241 1460378119 -239360465 -283892913 -327293473 -124145780 214398229 -405621459 1902370569
REM
CELL 1.54180   50.00000   50.00000   50.00000   90.00000   90.00000   90.00000
LATT -1
SFAC C  
C      1  0.5220960000000  0.4480360000000  0.4589840000000 1.0
C      1  0.5374420000000  0.4487180000000  0.5177500000000 1.0
C      1  0.4779040000000  0.4480360000000  0.5410160000000 1.0
C      1  0.4625580000000  0.4487180000000  0.4822500000000 1.0
C      1  0.5177500000000  0.5506900000000  0.4625580000000 1.0
C      1  0.5410160000000  0.5513720000000  0.5220960000000 1.0
C      1  0.4822500000000  0.5506900000000  0.5374420000000 1.0
C      1  0.4589840000000  0.5513720000000  0.4779040000000 1.0
C      1  0.5406510000000  0.5342270000000  0.4752270000000 1.0
C      1  0.5297790000000  0.5270880000000  0.5367440000000 1.0
C      1  0.4593490000000  0.5342270000000  0.5247730000000 1.0
C      1  0.4702210000000  0.5270880000000  0.4632560000000 1.0
C      1  0.5367440000000  0.4723200000000  0.4702210000000 1.0
C      1  0.5247730000000  0.4651810000000  0.5406510000000 1.0
C      1  0.4632560000000  0.4723200000000  0.5297790000000 1.0
C      1  0.4752270000000  0.4651810000000  0.4593490000000 1.0
C      1  0.4433730000000  0.5201440000000  0.5459860000000 1.0
C      1  0.4517300000000  0.5169350000000  0.4423600000000 1.0
C      1  0.5566270000000  0.5201440000000  0.4540140000000 1.0
C      1  0.5482700000000  0.5169350000000  0.5576400000000 1.0
C      1  0.4423600000000  0.4824730000000  0.5482700000000 1.0
C      1  0.4540140000000  0.4792640000000  0.4433730000000 1.0
C      1  0.5576400000000  0.4824730000000  0.4517300000000 1.0
C      1  0.5459860000000  0.4792640000000  0.5566270000000 1.0
C      1  0.4996420000000  0.4581210000000  0.4419590000000 1.0
C      1  0.5493300000000  0.4685220000000  0.4985340000000 1.0
C      1  0.5003580000000  0.4581210000000  0.5580410000000 1.0
C      1  0.4506700000000  0.4685220000000  0.5014660000000 1.0
C      1  0.4985340000000  0.5308860000000  0.4506700000000 1.0
C      1  0.5580410000000  0.5412860000000  0.4996420000000 1.0
C      1  0.5014660000000  0.5308860000000  0.5493300000000 1.0
C      1  0.4419590000000  0.5412860000000  0.5003580000000 1.0
C      1  0.5712760000000  0.5169670000000  0.5064770000000 1.0
C      1  0.4884390000000  0.5095310000000  0.5653440000000 1.0
C      1  0.4287240000000  0.5169670000000  0.4935230000000 1.0
C      1  0.5115610000000  0.5095310000000  0.4346560000000 1.0
C      1  0.5653440000000  0.4898770000000  0.5115610000000 1.0
C      1  0.4935230000000  0.4824410000000  0.5712760000000 1.0
C      1  0.4346560000000  0.4898770000000  0.4884390000000 1.0
C      1  0.5064770000000  0.4824410000000  0.4287240000000 1.0
C      1  0.5148470000000  0.4941730000000  0.4696070000000 1.0
C      1  0.5118360000000  0.4845500000000  0.5228730000000 1.0
C      1  0.4851530000000  0.4941730000000  0.5303930000000 1.0
C      1  0.4881640000000  0.4845500000000  0.4771270000000 1.0
C      1  0.5228730000000  0.5148570000000  0.4881640000000 1.0
C      1  0.5303930000000  0.5052350000000  0.5148470000000 1.0
C      1  0.4771270000000  0.5148570000000  0.5118360000000 1.0
C      1  0.4696070000000  0.5052350000000  0.4851530000000 1.0
C      1  0.5139750000000  0.4275150000000  0.4779080000000 1.0
C      1  0.5205710000000  0.4280800000000  0.5061150000000 1.0
C      1  0.4860250000000  0.4275150000000  0.5220920000000 1.0
C      1  0.4794290000000  0.4280800000000  0.4938850000000 1.0
C      1  0.5061150000000  0.5713280000000  0.4794290000000 1.0
C      1  0.5220920000000  0.5718930000000  0.5139750000000 1.0
C      1  0.4938850000000  0.5713280000000  0.5205710000000 1.0
C      1  0.4779080000000  0.5718930000000  0.4860250000000 1.0
C      1  0.5766380000000  0.5014430000000  0.4590610000000 1.0
C      1  0.4233620000000  0.5014430000000  0.5409390000000 1.0
C      1  0.4590610000000  0.4979640000000  0.4233620000000 1.0
C      1  0.5409390000000  0.4979640000000  0.5766380000000 1.0
END
