TITL C-38192-7909-363 1.60262852659021 125000 -350.406614247566 0 0 60 (C1) n - 1
REM
REM in /home/bkarasulu/CARBON/AIRSS/Generating-Clusters/EDIP-Nigel-Params/Higher-Symm/Box-15A/Only-C60/SD-CG/FIRE-HFTN
REM
REM
REM
REM
REM
REM ./C.cell (414f73aa93bd7a1190c7fd0f31ff2f98)
REM
REM compiler GCC version 9.2.1 20190827 (Red Hat 9.2.1-1)
REM options -cpp -mtune=generic -march=x86-64 -g -O0 -fpre-include=/usr/include/finclude/math-vector-fortran.h
REM seed 1963707968 1098759770 1848375079 1772841816 1476851666 -867591302 88181235 1924941297 -1681100971 -1044211598 1249242882 -114800297 -1824030888 1484144579 1335271254 1596473639 671942751 -389567560 -2064138282 1838942319 -67698438 -1799715415 -602147438 1585173854 1466908785 -1525991510 713855712 1558592644 -58098162 -836216057 1139416185 -1698276212 -1111134727
REM
CELL 1.54180   50.00000   50.00000   50.00000   90.00000   90.00000   90.00000
LATT -1
SFAC C  
C      1  0.4950630000000  0.5456720000000  0.4468370000000 1.0
C      1  0.4539760000000  0.4651790000000  0.5159020000000 1.0
C      1  0.4806940000000  0.4539080000000  0.5156660000000 1.0
C      1  0.4969420000000  0.4766000000000  0.5721470000000 1.0
C      1  0.4214860000000  0.4967390000000  0.5327600000000 1.0
C      1  0.5417640000000  0.4405580000000  0.4591130000000 1.0
C      1  0.5656760000000  0.4363630000000  0.5052510000000 1.0
C      1  0.4726560000000  0.5052840000000  0.4105810000000 1.0
C      1  0.4871720000000  0.4960430000000  0.4347140000000 1.0
C      1  0.4450610000000  0.5737700000000  0.4846530000000 1.0
C      1  0.5134560000000  0.4222140000000  0.4923720000000 1.0
C      1  0.5178930000000  0.4248740000000  0.4637920000000 1.0
C      1  0.4630820000000  0.5780380000000  0.4642100000000 1.0
C      1  0.5416060000000  0.4575280000000  0.4360330000000 1.0
C      1  0.5561800000000  0.4504370000000  0.4820530000000 1.0
C      1  0.4352570000000  0.4548870000000  0.4680230000000 1.0
C      1  0.5353840000000  0.4324360000000  0.5098260000000 1.0
C      1  0.4589190000000  0.5673380000000  0.5290010000000 1.0
C      1  0.4390160000000  0.4643730000000  0.4927440000000 1.0
C      1  0.5116880000000  0.5420000000000  0.6367040000000 1.0
C      1  0.5510280000000  0.5066610000000  0.4250790000000 1.0
C      1  0.5541930000000  0.4741350000000  0.5658990000000 1.0
C      1  0.4908300000000  0.5142050000000  0.5083110000000 1.0
C      1  0.4211890000000  0.5441860000000  0.5132730000000 1.0
C      1  0.5359000000000  0.4853710000000  0.4369480000000 1.0
C      1  0.4519710000000  0.4772760000000  0.5623980000000 1.0
C      1  0.5147950000000  0.4816100000000  0.5932230000000 1.0
C      1  0.4143310000000  0.5203600000000  0.5228380000000 1.0
C      1  0.5280150000000  0.4481320000000  0.5332250000000 1.0
C      1  0.4977840000000  0.5593570000000  0.5933620000000 1.0
C      1  0.5419830000000  0.4867970000000  0.5869010000000 1.0
C      1  0.4393240000000  0.5646130000000  0.5099830000000 1.0
C      1  0.4581360000000  0.5684750000000  0.4384500000000 1.0
C      1  0.5996430000000  0.5167960000000  0.4162850000000 1.0
C      1  0.5031560000000  0.4878420000000  0.5465590000000 1.0
C      1  0.4599580000000  0.4873400000000  0.4264910000000 1.0
C      1  0.5100510000000  0.4787730000000  0.4277440000000 1.0
C      1  0.4984330000000  0.5565890000000  0.4091970000000 1.0
C      1  0.5092670000000  0.5626100000000  0.6183240000000 1.0
C      1  0.4919610000000  0.5119770000000  0.5357190000000 1.0
C      1  0.5016950000000  0.5358000000000  0.5793450000000 1.0
C      1  0.5749550000000  0.4505790000000  0.5279250000000 1.0
C      1  0.4874680000000  0.5121110000000  0.4821070000000 1.0
C      1  0.5223370000000  0.5191450000000  0.5929080000000 1.0
C      1  0.5785200000000  0.5083950000000  0.4332710000000 1.0
C      1  0.5375840000000  0.5307710000000  0.4234330000000 1.0
C      1  0.4900470000000  0.5176330000000  0.4553470000000 1.0
C      1  0.4732940000000  0.5656520000000  0.4158990000000 1.0
C      1  0.4810750000000  0.4358410000000  0.4656820000000 1.0
C      1  0.5296760000000  0.5308050000000  0.6187770000000 1.0
C      1  0.5526910000000  0.4595700000000  0.5425700000000 1.0
C      1  0.4558410000000  0.4418820000000  0.4569420000000 1.0
C      1  0.5190560000000  0.5506880000000  0.4282610000000 1.0
C      1  0.4427210000000  0.4799040000000  0.5377550000000 1.0
C      1  0.5004790000000  0.4582080000000  0.5383220000000 1.0
C      1  0.4792750000000  0.5574610000000  0.5429380000000 1.0
C      1  0.4882880000000  0.5663530000000  0.4660910000000 1.0
C      1  0.4938250000000  0.5358000000000  0.5516120000000 1.0
C      1  0.4873350000000  0.4350820000000  0.4942060000000 1.0
C      1  0.5989190000000  0.4909740000000  0.4240150000000 1.0
END
