TITL C-38191-7580-592 -5.15432291496686e-07 125000 -369.281525665343 0 0 60 (C5) n - 1
REM
REM in /home/bkarasulu/CARBON/AIRSS/Generating-Clusters/EDIP-Nigel-Params/Higher-Symm/Box-15A/Only-C60/SD-CG/FIRE-HFTN
REM
REM
REM
REM
REM
REM ./C.cell (414f73aa93bd7a1190c7fd0f31ff2f98)
REM
REM compiler GCC version 9.2.1 20190827 (Red Hat 9.2.1-1)
REM options -cpp -mtune=generic -march=x86-64 -g -O0 -fpre-include=/usr/include/finclude/math-vector-fortran.h
REM seed -1186288123 -1235129939 878946532 93059067 439782097 -1271131958 -1720236657 -1817349434 -1496127242 384373458 1192840620 -1092896560 -481624204 1154486203 1752534200 -1384335126 -2077714294 -555313394 -1115255329 -1659545725 -161494275 -1470242938 -2143282910 -529739195 -1080986206 1470340050 -510922678 1572290001 -1852740366 -950539336 1734697751 1781450261 2081527345
REM
CELL 1.54180   50.00000   50.00000   50.00000   90.00000   90.00000   90.00000
LATT -1
SFAC C  
C      1  0.5278400000000  0.4421150000000  0.4701390000000 1.0
C      1  0.5278400000000  0.4537130000000  0.5458240000000 1.0
C      1  0.5278400000000  0.5292780000000  0.5581820000000 1.0
C      1  0.5278400000000  0.5643820000000  0.4901340000000 1.0
C      1  0.5278400000000  0.5105120000000  0.4357200000000 1.0
C      1  0.4509200000000  0.5522710000000  0.4996130000000 1.0
C      1  0.4509200000000  0.5157850000000  0.4501680000000 1.0
C      1  0.4509200000000  0.4574850000000  0.4695890000000 1.0
C      1  0.4509200000000  0.4579390000000  0.5310370000000 1.0
C      1  0.4509200000000  0.5165200000000  0.5495930000000 1.0
C      1  0.5629010000000  0.4761710000000  0.5096100000000 1.0
C      1  0.5629010000000  0.5017760000000  0.5256330000000 1.0
C      1  0.5629010000000  0.5249270000000  0.5062320000000 1.0
C      1  0.5629010000000  0.5136300000000  0.4782190000000 1.0
C      1  0.5629010000000  0.4834970000000  0.4803060000000 1.0
C      1  0.4737630000000  0.5657300000000  0.4876210000000 1.0
C      1  0.4737630000000  0.5085390000000  0.4336620000000 1.0
C      1  0.4737630000000  0.4395470000000  0.4713800000000 1.0
C      1  0.4737630000000  0.4540990000000  0.5486500000000 1.0
C      1  0.4737630000000  0.5320850000000  0.5586880000000 1.0
C      1  0.5286360000000  0.5534070000000  0.4620560000000 1.0
C      1  0.5286360000000  0.4804170000000  0.4374820000000 1.0
C      1  0.5286360000000  0.4344900000000  0.4993050000000 1.0
C      1  0.5286360000000  0.4790960000000  0.5620890000000 1.0
C      1  0.5286360000000  0.5525900000000  0.5390680000000 1.0
C      1  0.5170680000000  0.5136530000000  0.4787980000000 1.0
C      1  0.5170680000000  0.4840550000000  0.4804640000000 1.0
C      1  0.5170680000000  0.4764930000000  0.5091280000000 1.0
C      1  0.5170680000000  0.5014170000000  0.5251780000000 1.0
C      1  0.5170680000000  0.5243830000000  0.5064330000000 1.0
C      1  0.4805220000000  0.4896000000000  0.4733310000000 1.0
C      1  0.4805220000000  0.4714220000000  0.5016500000000 1.0
C      1  0.4805220000000  0.4927380000000  0.5276890000000 1.0
C      1  0.4805220000000  0.5240900000000  0.5154630000000 1.0
C      1  0.4805220000000  0.5221500000000  0.4818670000000 1.0
C      1  0.4399000000000  0.5254850000000  0.4993210000000 1.0
C      1  0.4399000000000  0.5072300000000  0.4755530000000 1.0
C      1  0.4399000000000  0.4789830000000  0.4855690000000 1.0
C      1  0.4399000000000  0.4797810000000  0.5155290000000 1.0
C      1  0.4399000000000  0.5085210000000  0.5240280000000 1.0
C      1  0.5389450000000  0.5446420000000  0.5112010000000 1.0
C      1  0.5389450000000  0.5244480000000  0.4610040000000 1.0
C      1  0.5389450000000  0.4704680000000  0.4646980000000 1.0
C      1  0.5389450000000  0.4573000000000  0.5171780000000 1.0
C      1  0.5389450000000  0.5031420000000  0.5459190000000 1.0
C      1  0.5016980000000  0.5666000000000  0.5328580000000 1.0
C      1  0.5016980000000  0.5518310000000  0.4468140000000 1.0
C      1  0.5016980000000  0.4654330000000  0.4342710000000 1.0
C      1  0.5016980000000  0.4268060000000  0.5125630000000 1.0
C      1  0.5016980000000  0.4893300000000  0.5734940000000 1.0
C      1  0.4771370000000  0.4394270000000  0.5009020000000 1.0
C      1  0.4771370000000  0.4821400000000  0.5578870000000 1.0
C      1  0.4771370000000  0.5495350000000  0.5348740000000 1.0
C      1  0.4771370000000  0.5484740000000  0.4636660000000 1.0
C      1  0.4771370000000  0.4804240000000  0.4426710000000 1.0
C      1  0.5006690000000  0.4437790000000  0.4561870000000 1.0
C      1  0.5006700000000  0.4409580000000  0.5399310000000 1.0
C      1  0.5006700000000  0.5197310000000  0.5684920000000 1.0
C      1  0.5006700000000  0.5712370000000  0.5023990000000 1.0
C      1  0.5006690000000  0.5242950000000  0.4329910000000 1.0
END
