TITL C-38191-7580-568 -2.34224969502034e-05 125000 -360.359868130911 0 0 60 (C1) n - 1
REM
REM in /home/bkarasulu/CARBON/AIRSS/Generating-Clusters/EDIP-Nigel-Params/Higher-Symm/Box-15A/Only-C60/SD-CG/FIRE-HFTN
REM
REM
REM
REM
REM
REM ./C.cell (414f73aa93bd7a1190c7fd0f31ff2f98)
REM
REM compiler GCC version 9.2.1 20190827 (Red Hat 9.2.1-1)
REM options -cpp -mtune=generic -march=x86-64 -g -O0 -fpre-include=/usr/include/finclude/math-vector-fortran.h
REM seed 59968388 -722218122 1673940958 1270572862 1089332822 -1934265010 1158452147 -576973032 -702553690 1565624188 -558848810 -144352482 -242675167 -485530045 -643274203 1299041765 2077321014 184431404 545371369 1413380624 -948078782 -390994838 163122456 595939512 2066948740 -1941147290 -2068811485 -548416556 1795512105 -1041963196 -306436092 -307950696 1108859896
REM
CELL 1.54180   50.00000   50.00000   50.00000   90.00000   90.00000   90.00000
LATT -1
SFAC C  
C      1  0.4531450000000  0.5469250000000  0.4473890000000 1.0
C      1  0.5149830000000  0.5411210000000  0.4371420000000 1.0
C      1  0.5529500000000  0.5517710000000  0.4662770000000 1.0
C      1  0.5579590000000  0.5416050000000  0.5151710000000 1.0
C      1  0.5234680000000  0.5385050000000  0.5536200000000 1.0
C      1  0.4668600000000  0.5402690000000  0.5455900000000 1.0
C      1  0.4373220000000  0.5430120000000  0.4973730000000 1.0
C      1  0.4809500000000  0.5217690000000  0.4376750000000 1.0
C      1  0.5317530000000  0.5169110000000  0.4712130000000 1.0
C      1  0.5355410000000  0.5126670000000  0.5020960000000 1.0
C      1  0.5127640000000  0.5182950000000  0.5218800000000 1.0
C      1  0.5021040000000  0.5214720000000  0.5644850000000 1.0
C      1  0.4584460000000  0.5150870000000  0.5318710000000 1.0
C      1  0.4445290000000  0.5178670000000  0.4813600000000 1.0
C      1  0.5280280000000  0.5600230000000  0.4789930000000 1.0
C      1  0.5322490000000  0.5549870000000  0.5086450000000 1.0
C      1  0.5143090000000  0.5592130000000  0.5330900000000 1.0
C      1  0.4830190000000  0.5573910000000  0.5262260000000 1.0
C      1  0.4618970000000  0.5599760000000  0.4942040000000 1.0
C      1  0.4744110000000  0.5550110000000  0.4664420000000 1.0
C      1  0.5045180000000  0.5502990000000  0.4625970000000 1.0
C      1  0.5136530000000  0.4945310000000  0.5588030000000 1.0
C      1  0.4580860000000  0.4921730000000  0.5492490000000 1.0
C      1  0.4330760000000  0.4941500000000  0.4973120000000 1.0
C      1  0.4603450000000  0.5002100000000  0.4439090000000 1.0
C      1  0.5184220000000  0.4961910000000  0.4536040000000 1.0
C      1  0.5694490000000  0.5005570000000  0.4753430000000 1.0
C      1  0.5592710000000  0.4927920000000  0.5329350000000 1.0
C      1  0.5407700000000  0.5033100000000  0.5525060000000 1.0
C      1  0.4774650000000  0.5339010000000  0.5707160000000 1.0
C      1  0.4315960000000  0.5185800000000  0.5189380000000 1.0
C      1  0.4397780000000  0.5207000000000  0.4525090000000 1.0
C      1  0.5087010000000  0.5127780000000  0.4315820000000 1.0
C      1  0.5602430000000  0.5238630000000  0.4601780000000 1.0
C      1  0.5702570000000  0.5152630000000  0.5171570000000 1.0
C      1  0.5541060000000  0.4303090000000  0.4951120000000 1.0
C      1  0.5328260000000  0.4341030000000  0.5394020000000 1.0
C      1  0.4848090000000  0.4284960000000  0.5447870000000 1.0
C      1  0.4550260000000  0.4296250000000  0.5194510000000 1.0
C      1  0.4511830000000  0.4328920000000  0.4710920000000 1.0
C      1  0.4856980000000  0.4340380000000  0.4534520000000 1.0
C      1  0.5342110000000  0.4383700000000  0.4626890000000 1.0
C      1  0.4991600000000  0.4774620000000  0.4678490000000 1.0
C      1  0.5555360000000  0.4770740000000  0.4853490000000 1.0
C      1  0.5467970000000  0.4716790000000  0.5140820000000 1.0
C      1  0.5023940000000  0.4720650000000  0.5404460000000 1.0
C      1  0.4712020000000  0.4725930000000  0.5327930000000 1.0
C      1  0.4555680000000  0.4739180000000  0.4969850000000 1.0
C      1  0.4681700000000  0.4777430000000  0.4637920000000 1.0
C      1  0.4472550000000  0.4450000000000  0.4966420000000 1.0
C      1  0.4622470000000  0.4508260000000  0.4515190000000 1.0
C      1  0.5074810000000  0.4487560000000  0.4642950000000 1.0
C      1  0.5584790000000  0.4501450000000  0.4738020000000 1.0
C      1  0.5516610000000  0.4430030000000  0.5208320000000 1.0
C      1  0.5085560000000  0.4439210000000  0.5491580000000 1.0
C      1  0.4624650000000  0.4454830000000  0.5413150000000 1.0
C      1  0.4788930000000  0.5095040000000  0.5074650000000 1.0
C      1  0.4921400000000  0.5373670000000  0.5025700000000 1.0
C      1  0.5163890000000  0.4749860000000  0.5149350000000 1.0
C      1  0.4976650000000  0.4860120000000  0.4962040000000 1.0
END
