TITL C-38191-7580-258 3.13618356987691e-06 125000 -371.144845407234 0 0 60 (C1) n - 1
REM
REM in /home/bkarasulu/CARBON/AIRSS/Generating-Clusters/EDIP-Nigel-Params/Higher-Symm/Box-15A/Only-C60/SD-CG/FIRE-HFTN
REM
REM
REM
REM
REM
REM ./C.cell (414f73aa93bd7a1190c7fd0f31ff2f98)
REM
REM compiler GCC version 9.2.1 20190827 (Red Hat 9.2.1-1)
REM options -cpp -mtune=generic -march=x86-64 -g -O0 -fpre-include=/usr/include/finclude/math-vector-fortran.h
REM seed 1430592401 -303579622 2018229804 939344649 699247664 -435955207 -919081665 1829408626 308129799 714903211 -1858196691 1257489154 778315002 2144914243 1519749232 -1560675183 144398401 225782281 -217868833 325050203 -1281125443 1306948341 -1791629947 1311581928 -991390095 -2104794174 1889344926 1085091367 1129030503 -1223582090 -1194298262 -1247456803 1279326393
REM
CELL 1.54180   50.00000   50.00000   50.00000   90.00000   90.00000   90.00000
LATT -1
SFAC C  
C      1  0.4485050000000  0.5442280000000  0.5323330000000 1.0
C      1  0.4232620000000  0.5330960000000  0.4941310000000 1.0
C      1  0.4416230000000  0.5348130000000  0.4717510000000 1.0
C      1  0.4845860000000  0.5120500000000  0.4355410000000 1.0
C      1  0.5077110000000  0.5273690000000  0.4376280000000 1.0
C      1  0.5568810000000  0.5443450000000  0.4636980000000 1.0
C      1  0.5776310000000  0.5481650000000  0.4824560000000 1.0
C      1  0.5658870000000  0.5411590000000  0.5072660000000 1.0
C      1  0.5364620000000  0.5122870000000  0.5536900000000 1.0
C      1  0.5139960000000  0.5261660000000  0.5627610000000 1.0
C      1  0.4639540000000  0.5608800000000  0.5488130000000 1.0
C      1  0.5062930000000  0.5503550000000  0.4551660000000 1.0
C      1  0.5307430000000  0.5565040000000  0.4703340000000 1.0
C      1  0.5301440000000  0.5730790000000  0.4945860000000 1.0
C      1  0.5476930000000  0.5634840000000  0.5168330000000 1.0
C      1  0.5361690000000  0.5632890000000  0.5427480000000 1.0
C      1  0.5144460000000  0.5543120000000  0.5579040000000 1.0
C      1  0.4891610000000  0.5661570000000  0.5569040000000 1.0
C      1  0.4329150000000  0.5555370000000  0.5100920000000 1.0
C      1  0.4453150000000  0.5759340000000  0.4941020000000 1.0
C      1  0.4548360000000  0.5609320000000  0.4718230000000 1.0
C      1  0.4811360000000  0.5615230000000  0.4611780000000 1.0
C      1  0.5535410000000  0.5160480000000  0.4557880000000 1.0
C      1  0.5524030000000  0.4996120000000  0.4804070000000 1.0
C      1  0.5551220000000  0.5130520000000  0.5066970000000 1.0
C      1  0.5465360000000  0.4991000000000  0.5311450000000 1.0
C      1  0.4885480000000  0.5146170000000  0.5647660000000 1.0
C      1  0.4681360000000  0.5016260000000  0.5504870000000 1.0
C      1  0.4541040000000  0.5156310000000  0.5287550000000 1.0
C      1  0.4441640000000  0.5018840000000  0.5022940000000 1.0
C      1  0.4581940000000  0.5120560000000  0.4765620000000 1.0
C      1  0.4702250000000  0.4978170000000  0.4546730000000 1.0
C      1  0.5323330000000  0.5141200000000  0.4373360000000 1.0
C      1  0.4753220000000  0.4737120000000  0.5434180000000 1.0
C      1  0.4523150000000  0.4585600000000  0.5300520000000 1.0
C      1  0.4478540000000  0.4706230000000  0.5025880000000 1.0
C      1  0.4640910000000  0.4572280000000  0.4814850000000 1.0
C      1  0.4773920000000  0.4709330000000  0.4598550000000 1.0
C      1  0.4983220000000  0.4587310000000  0.4443920000000 1.0
C      1  0.5356220000000  0.4589670000000  0.4544330000000 1.0
C      1  0.5455710000000  0.4715660000000  0.4785070000000 1.0
C      1  0.5416040000000  0.4573280000000  0.5032090000000 1.0
C      1  0.5388880000000  0.4707790000000  0.5290990000000 1.0
C      1  0.5126140000000  0.4626310000000  0.5433950000000 1.0
C      1  0.5257380000000  0.4187100000000  0.5264770000000 1.0
C      1  0.5091680000000  0.4327000000000  0.5439710000000 1.0
C      1  0.4825230000000  0.4246080000000  0.5450500000000 1.0
C      1  0.4592370000000  0.4294520000000  0.5302780000000 1.0
C      1  0.4573000000000  0.4165220000000  0.5054550000000 1.0
C      1  0.4675300000000  0.4290150000000  0.4829570000000 1.0
C      1  0.4852970000000  0.4174410000000  0.4650800000000 1.0
C      1  0.5024930000000  0.4301500000000  0.4467080000000 1.0
C      1  0.5308200000000  0.4300520000000  0.4541310000000 1.0
C      1  0.5355290000000  0.4166600000000  0.4784860000000 1.0
C      1  0.5358790000000  0.4293770000000  0.5030640000000 1.0
C      1  0.4922890000000  0.5548930000000  0.5083090000000 1.0
C      1  0.4955480000000  0.4762160000000  0.5211760000000 1.0
C      1  0.4980400000000  0.5283490000000  0.5067030000000 1.0
C      1  0.5000580000000  0.5017540000000  0.5104030000000 1.0
C      1  0.5039700000000  0.5794020000000  0.5034000000000 1.0
END
