TITL C-38189-4514-78 -3.58332906074274e-06 125000 -366.007046447359 0 0 60 (C1) n - 1
REM
REM in /home/bkarasulu/CARBON/AIRSS/Generating-Clusters/EDIP-Nigel-Params/Higher-Symm/Box-15A/Only-C60/SD-CG/FIRE-HFTN
REM
REM
REM
REM
REM
REM ./C.cell (414f73aa93bd7a1190c7fd0f31ff2f98)
REM
REM compiler GCC version 9.2.1 20190827 (Red Hat 9.2.1-1)
REM options -cpp -mtune=generic -march=x86-64 -g -O0 -fpre-include=/usr/include/finclude/math-vector-fortran.h
REM seed 478637851 1490214959 1700529233 854354113 1897958118 1607843414 -56909121 527759496 -965606391 -298646362 -496326315 -2063036417 1075886142 -1443571797 1116903953 -652324935 -831032580 -1355505345 271766339 875129830 72215252 -1549125971 -324320372 -855268919 34142354 673919645 1965705578 1571219465 1098844967 -1110562987 -938111929 926242389 -1369310705
REM
CELL 1.54180   50.00000   50.00000   50.00000   90.00000   90.00000   90.00000
LATT -1
SFAC C  
C      1  0.5527390000000  0.5770020000000  0.5126160000000 1.0
C      1  0.5099130000000  0.5713130000000  0.5312970000000 1.0
C      1  0.4641470000000  0.5685330000000  0.5129280000000 1.0
C      1  0.4862330000000  0.5587780000000  0.4690900000000 1.0
C      1  0.5362490000000  0.5637930000000  0.4693830000000 1.0
C      1  0.5528230000000  0.5786660000000  0.4859100000000 1.0
C      1  0.5101250000000  0.5724800000000  0.4670840000000 1.0
C      1  0.4642910000000  0.5679360000000  0.4847880000000 1.0
C      1  0.4850930000000  0.5591120000000  0.5298450000000 1.0
C      1  0.5357230000000  0.5618660000000  0.5283610000000 1.0
C      1  0.5708080000000  0.4928450000000  0.4464160000000 1.0
C      1  0.5692250000000  0.4950560000000  0.5214600000000 1.0
C      1  0.4884580000000  0.5027600000000  0.5782350000000 1.0
C      1  0.4319330000000  0.4949800000000  0.5147840000000 1.0
C      1  0.4597240000000  0.5012880000000  0.4259450000000 1.0
C      1  0.5642620000000  0.4869670000000  0.5479180000000 1.0
C      1  0.5805210000000  0.5030450000000  0.4710420000000 1.0
C      1  0.4898450000000  0.4994360000000  0.4233650000000 1.0
C      1  0.4314530000000  0.4945420000000  0.4853800000000 1.0
C      1  0.4583930000000  0.5066070000000  0.5772820000000 1.0
C      1  0.4840280000000  0.4114520000000  0.5277310000000 1.0
C      1  0.4634720000000  0.4244670000000  0.4847600000000 1.0
C      1  0.5039530000000  0.4383450000000  0.4720160000000 1.0
C      1  0.5490260000000  0.4537030000000  0.4835550000000 1.0
C      1  0.5276770000000  0.4309610000000  0.5220360000000 1.0
C      1  0.4880660000000  0.4154910000000  0.4745510000000 1.0
C      1  0.4603970000000  0.4211040000000  0.5157320000000 1.0
C      1  0.5020080000000  0.4323270000000  0.5328510000000 1.0
C      1  0.5450860000000  0.4510060000000  0.5127840000000 1.0
C      1  0.5314930000000  0.4368810000000  0.4698530000000 1.0
C      1  0.5355860000000  0.4883660000000  0.5482520000000 1.0
C      1  0.4557520000000  0.4839550000000  0.5557070000000 1.0
C      1  0.4430140000000  0.4710930000000  0.4717370000000 1.0
C      1  0.4900890000000  0.4830060000000  0.4583390000000 1.0
C      1  0.5480890000000  0.4833010000000  0.4765700000000 1.0
C      1  0.5415310000000  0.4917190000000  0.4459990000000 1.0
C      1  0.4614420000000  0.4875910000000  0.4537720000000 1.0
C      1  0.4413740000000  0.4727020000000  0.5313000000000 1.0
C      1  0.4836410000000  0.4731410000000  0.5556700000000 1.0
C      1  0.5337930000000  0.4788090000000  0.5168120000000 1.0
C      1  0.5298820000000  0.5188250000000  0.4469730000000 1.0
C      1  0.5619310000000  0.5213610000000  0.5130800000000 1.0
C      1  0.5010130000000  0.5227610000000  0.5610700000000 1.0
C      1  0.4374200000000  0.5220930000000  0.5241450000000 1.0
C      1  0.4543360000000  0.5254850000000  0.4479020000000 1.0
C      1  0.5274230000000  0.5168570000000  0.5490700000000 1.0
C      1  0.5646660000000  0.5241120000000  0.4836680000000 1.0
C      1  0.5016890000000  0.5209800000000  0.4385040000000 1.0
C      1  0.4416390000000  0.5205400000000  0.4757100000000 1.0
C      1  0.4544610000000  0.5225660000000  0.5496740000000 1.0
C      1  0.4610050000000  0.4532200000000  0.5185300000000 1.0
C      1  0.4923450000000  0.4642840000000  0.4813900000000 1.0
C      1  0.5035910000000  0.4756160000000  0.5089190000000 1.0
C      1  0.4888600000000  0.4591280000000  0.5298090000000 1.0
C      1  0.4635750000000  0.4553540000000  0.4876640000000 1.0
C      1  0.4806910000000  0.5352140000000  0.5448150000000 1.0
C      1  0.4811360000000  0.5381660000000  0.4501330000000 1.0
C      1  0.5408660000000  0.5350750000000  0.4690150000000 1.0
C      1  0.4430400000000  0.5391250000000  0.4994700000000 1.0
C      1  0.5389550000000  0.5331580000000  0.5273020000000 1.0
END
