TITL C-38194-9318-50 1.53842532383502e-05 125000 -360.824099413539 0 0 60 (C3) n - 1
REM
REM in /home/bkarasulu/CARBON/AIRSS/Generating-Clusters/EDIP-Nigel-Params/Higher-Symm/Box-15A/Only-C60/SD-CG/FIRE-HFTN
REM
REM
REM
REM
REM
REM ./C.cell (414f73aa93bd7a1190c7fd0f31ff2f98)
REM
REM compiler GCC version 9.2.1 20190827 (Red Hat 9.2.1-1)
REM options -cpp -mtune=generic -march=x86-64 -g -O0 -fpre-include=/usr/include/finclude/math-vector-fortran.h
REM seed 1034184586 1709247959 929403509 -556495569 -1007547403 1499634808 688193193 -373765275 -1421447100 1362454928 -53663089 -510411923 -233850796 -1542007840 809416913 338558173 -1953727731 205091081 1996987779 -488612528 -479839883 184765863 -1808971244 1104468089 1536538526 539629672 1173255255 462746140 2070177394 -1315484015 1601297192 591126115 1565950420
REM
CELL 1.54180   50.00000   50.00000   50.00000   90.00000   90.00000   90.00000
LATT -1
SFAC C  
C      1  0.4829390000000  0.5470190000000  0.5283040000000 1.0
C      1  0.5330420000000  0.5470190000000  0.5006240000000 1.0
C      1  0.4840190000000  0.5470190000000  0.4710730000000 1.0
C      1  0.5432410000000  0.4684980000000  0.5389300000000 1.0
C      1  0.5120940000000  0.4684980000000  0.4430870000000 1.0
C      1  0.4446650000000  0.4684980000000  0.5179830000000 1.0
C      1  0.5173110000000  0.5004320000000  0.4836940000000 1.0
C      1  0.4772230000000  0.5004320000000  0.4931610000000 1.0
C      1  0.5054650000000  0.5004320000000  0.5231450000000 1.0
C      1  0.4841640000000  0.4917580000000  0.5746030000000 1.0
C      1  0.5725260000000  0.4917580000000  0.4764130000000 1.0
C      1  0.4433100000000  0.4917590000000  0.4489840000000 1.0
C      1  0.5242440000000  0.4680190000000  0.5633480000000 1.0
C      1  0.5427390000000  0.4680200000000  0.4473300000000 1.0
C      1  0.4330170000000  0.4680200000000  0.4893220000000 1.0
C      1  0.5734250000000  0.4961450000000  0.5224550000000 1.0
C      1  0.4827340000000  0.4961450000000  0.4251840000000 1.0
C      1  0.4438410000000  0.4961450000000  0.5523610000000 1.0
C      1  0.5403910000000  0.5265930000000  0.5482920000000 1.0
C      1  0.5216260000000  0.5265930000000  0.4408750000000 1.0
C      1  0.4379830000000  0.5265930000000  0.5108340000000 1.0
C      1  0.4731520000000  0.4644960000000  0.5714950000000 1.0
C      1  0.5753410000000  0.4644960000000  0.4875040000000 1.0
C      1  0.4515080000000  0.4644960000000  0.4410010000000 1.0
C      1  0.5263080000000  0.4580330000000  0.4888950000000 1.0
C      1  0.4772290000000  0.4580330000000  0.4827690000000 1.0
C      1  0.4964630000000  0.4580330000000  0.5283360000000 1.0
C      1  0.5745730000000  0.4674680000000  0.5166980000000 1.0
C      1  0.4771740000000  0.4674680000000  0.4270690000000 1.0
C      1  0.4482530000000  0.4674680000000  0.5562330000000 1.0
C      1  0.5554310000000  0.5354320000000  0.4827420000000 1.0
C      1  0.4573390000000  0.5354320000000  0.4606250000000 1.0
C      1  0.4872300000000  0.5354320000000  0.5566330000000 1.0
C      1  0.5457630000000  0.4954840000000  0.4630620000000 1.0
C      1  0.4451290000000  0.4954840000000  0.4788380000000 1.0
C      1  0.5091080000000  0.4954840000000  0.5581010000000 1.0
C      1  0.4732050000000  0.4602890000000  0.5111010000000 1.0
C      1  0.5230110000000  0.4602890000000  0.5176540000000 1.0
C      1  0.5037830000000  0.4602890000000  0.4712450000000 1.0
C      1  0.4516640000000  0.4528050000000  0.4689890000000 1.0
C      1  0.4973110000000  0.4528050000000  0.5573660000000 1.0
C      1  0.5510240000000  0.4528050000000  0.4736450000000 1.0
C      1  0.5517560000000  0.5001530000000  0.5410190000000 1.0
C      1  0.5096460000000  0.5001530000000  0.4346680000000 1.0
C      1  0.4385980000000  0.5001530000000  0.5243130000000 1.0
C      1  0.4607940000000  0.5121810000000  0.4382110000000 1.0
C      1  0.4660920000000  0.5121810000000  0.5648480000000 1.0
C      1  0.5731140000000  0.5121810000000  0.4969420000000 1.0
C      1  0.5423530000000  0.5621340000000  0.5220300000000 1.0
C      1  0.4979020000000  0.5621340000000  0.4523060000000 1.0
C      1  0.4597450000000  0.5621340000000  0.5256640000000 1.0
C      1  0.5128130000000  0.5518730000000  0.4321850000000 1.0
C      1  0.4348640000000  0.5518730000000  0.5228110000000 1.0
C      1  0.5523230000000  0.5518730000000  0.5450040000000 1.0
C      1  0.4368020000000  0.5244550000000  0.4821490000000 1.0
C      1  0.5161390000000  0.5244550000000  0.5636560000000 1.0
C      1  0.5470590000000  0.5244550000000  0.4541950000000 1.0
C      1  0.4790450000000  0.5167310000000  0.5231820000000 1.0
C      1  0.5305540000000  0.5167310000000  0.5065570000000 1.0
C      1  0.4904020000000  0.5167310000000  0.4702610000000 1.0
END
