TITL C-38196-2854-623 -7.50622364500528e-05 125000 -359.718939187235 0 0 60 (Ci) n - 1
REM
REM in /home/bkarasulu/CARBON/AIRSS/Generating-Clusters/EDIP-Nigel-Params/Higher-Symm/Box-15A/Only-C60/SD-CG/FIRE-HFTN
REM
REM
REM
REM
REM
REM ./C.cell (414f73aa93bd7a1190c7fd0f31ff2f98)
REM
REM compiler GCC version 9.2.1 20190827 (Red Hat 9.2.1-1)
REM options -cpp -mtune=generic -march=x86-64 -g -O0 -fpre-include=/usr/include/finclude/math-vector-fortran.h
REM seed -1975957518 226605692 691794532 -895757214 383880717 -1702124207 -913776449 1387445364 -749153186 -425530641 1478495539 -494999440 -894610609 732580231 198894159 1483457862 -706604108 -1231342848 595609003 -596123692 -484327698 1104036058 713726800 1868206900 59906247 -336986853 403869051 -1769807734 -2101142924 -1931562031 -1706514679 590262281 -520312771
REM
CELL 1.54180   50.00000   50.00000   50.00000   90.00000   90.00000   90.00000
LATT -1
SFAC C  
C      1  0.4238850000000  0.4597310000000  0.4966630000000 1.0
C      1  0.5761150000000  0.5402690000000  0.5033370000000 1.0
C      1  0.4681650000000  0.5013780000000  0.4344250000000 1.0
C      1  0.5318350000000  0.4986220000000  0.5655750000000 1.0
C      1  0.4927960000000  0.4682640000000  0.4490930000000 1.0
C      1  0.5072040000000  0.5317360000000  0.5509070000000 1.0
C      1  0.5475570000000  0.5490820000000  0.5444090000000 1.0
C      1  0.4524430000000  0.4509180000000  0.4555910000000 1.0
C      1  0.4399980000000  0.4424600000000  0.4808260000000 1.0
C      1  0.5600020000000  0.5575400000000  0.5191740000000 1.0
C      1  0.4905900000000  0.4453730000000  0.5649310000000 1.0
C      1  0.5094100000000  0.5546270000000  0.4350690000000 1.0
C      1  0.4397070000000  0.5264250000000  0.5260200000000 1.0
C      1  0.5602930000000  0.4735750000000  0.4739800000000 1.0
C      1  0.4596390000000  0.5434370000000  0.5366050000000 1.0
C      1  0.5403610000000  0.4565630000000  0.4633950000000 1.0
C      1  0.5463650000000  0.4749970000000  0.5261500000000 1.0
C      1  0.4536350000000  0.5250030000000  0.4738500000000 1.0
C      1  0.5312890000000  0.4722210000000  0.5518660000000 1.0
C      1  0.4687110000000  0.5277790000000  0.4481340000000 1.0
C      1  0.5224420000000  0.4686730000000  0.4439080000000 1.0
C      1  0.4775580000000  0.5313270000000  0.5560920000000 1.0
C      1  0.4685160000000  0.4645460000000  0.4933670000000 1.0
C      1  0.5314840000000  0.5354540000000  0.5066330000000 1.0
C      1  0.5058780000000  0.4593690000000  0.5458690000000 1.0
C      1  0.4941220000000  0.5406310000000  0.4541310000000 1.0
C      1  0.4790800000000  0.5060990000000  0.5716180000000 1.0
C      1  0.5209200000000  0.4939010000000  0.4283820000000 1.0
C      1  0.5564590000000  0.5012430000000  0.4753590000000 1.0
C      1  0.4435410000000  0.4987570000000  0.5246410000000 1.0
C      1  0.4627020000000  0.4724920000000  0.5602030000000 1.0
C      1  0.5372980000000  0.5275080000000  0.4397970000000 1.0
C      1  0.4700810000000  0.4926620000000  0.5360740000000 1.0
C      1  0.5299190000000  0.5073380000000  0.4639260000000 1.0
C      1  0.5363990000000  0.5562530000000  0.4391840000000 1.0
C      1  0.4636010000000  0.4437470000000  0.5608160000000 1.0
C      1  0.4847900000000  0.4403180000000  0.5031850000000 1.0
C      1  0.5152100000000  0.5596820000000  0.4968150000000 1.0
C      1  0.5028520000000  0.5709620000000  0.5224770000000 1.0
C      1  0.4971480000000  0.4290380000000  0.4775230000000 1.0
C      1  0.4899580000000  0.5079390000000  0.5105350000000 1.0
C      1  0.5100420000000  0.4920610000000  0.4894650000000 1.0
C      1  0.4920160000000  0.5503460000000  0.4811560000000 1.0
C      1  0.5079840000000  0.4496540000000  0.5188440000000 1.0
C      1  0.4818590000000  0.4401820000000  0.4515450000000 1.0
C      1  0.5181410000000  0.5598180000000  0.5484550000000 1.0
C      1  0.4393880000000  0.4988530000000  0.4735500000000 1.0
C      1  0.5606120000000  0.5011470000000  0.5264500000000 1.0
C      1  0.5495710000000  0.5174680000000  0.5491740000000 1.0
C      1  0.4504290000000  0.4825320000000  0.4508260000000 1.0
C      1  0.5585350000000  0.5170220000000  0.5012580000000 1.0
C      1  0.4414650000000  0.4829780000000  0.4987420000000 1.0
C      1  0.4735620000000  0.5322440000000  0.4969470000000 1.0
C      1  0.5264380000000  0.4677560000000  0.5030530000000 1.0
C      1  0.5076910000000  0.5065940000000  0.5801230000000 1.0
C      1  0.4923090000000  0.4934060000000  0.4198770000000 1.0
C      1  0.4737430000000  0.5626270000000  0.5196990000000 1.0
C      1  0.5262570000000  0.4373730000000  0.4803010000000 1.0
C      1  0.4870940000000  0.4805650000000  0.4757020000000 1.0
C      1  0.5129060000000  0.5194350000000  0.5242980000000 1.0
END
