TITL C-38190-6388-33 9.57273502299307 125000 -343.094317284142 0 0 60 (C1) n - 1
REM
REM in /home/bkarasulu/CARBON/AIRSS/Generating-Clusters/EDIP-Nigel-Params/Higher-Symm/Box-15A/Only-C60/SD-CG/FIRE-HFTN
REM
REM
REM
REM
REM
REM ./C.cell (414f73aa93bd7a1190c7fd0f31ff2f98)
REM
REM compiler GCC version 9.2.1 20190827 (Red Hat 9.2.1-1)
REM options -cpp -mtune=generic -march=x86-64 -g -O0 -fpre-include=/usr/include/finclude/math-vector-fortran.h
REM seed 1023554668 -253699195 -1480621078 402047316 1750480827 -343500768 -732929607 -102838874 -2139840550 -709066189 558255456 -1291449332 -2046086457 1264484250 1070677246 -1084966188 -1788838169 -23855531 164037902 2065256517 -126732193 1745350799 -2050300721 -2081792266 448457019 -1273481817 192264830 -1408343820 -2006979060 -1650688354 255115160 537987015 -1024558626
REM
CELL 1.54180   50.00000   50.00000   50.00000   90.00000   90.00000   90.00000
LATT -1
SFAC C  
C      1  0.5264680000000  0.4727470000000  0.5531680000000 1.0
C      1  0.5715380000000  0.4348310000000  0.5164580000000 1.0
C      1  0.4163120000000  0.5430160000000  0.5146830000000 1.0
C      1  0.5680530000000  0.5298400000000  0.4249430000000 1.0
C      1  0.5602090000000  0.4608870000000  0.4476240000000 1.0
C      1  0.4213880000000  0.5201710000000  0.4589830000000 1.0
C      1  0.4232380000000  0.5591160000000  0.4936370000000 1.0
C      1  0.5690980000000  0.5136010000000  0.4511440000000 1.0
C      1  0.4316990000000  0.5668020000000  0.4450610000000 1.0
C      1  0.5742330000000  0.4977670000000  0.4747910000000 1.0
C      1  0.4384850000000  0.4853750000000  0.5942680000000 1.0
C      1  0.5665650000000  0.4696500000000  0.4732730000000 1.0
C      1  0.4429980000000  0.4949520000000  0.4411130000000 1.0
C      1  0.5069730000000  0.4994050000000  0.3965590000000 1.0
C      1  0.5542690000000  0.5186230000000  0.4036250000000 1.0
C      1  0.5189600000000  0.4289410000000  0.4744070000000 1.0
C      1  0.5752310000000  0.4461790000000  0.4896970000000 1.0
C      1  0.5765100000000  0.5407880000000  0.4501320000000 1.0
C      1  0.5365340000000  0.5340500000000  0.5786820000000 1.0
C      1  0.5080400000000  0.4464130000000  0.5189760000000 1.0
C      1  0.5009660000000  0.4604900000000  0.5636450000000 1.0
C      1  0.4423760000000  0.6310480000000  0.4949750000000 1.0
C      1  0.4554300000000  0.5573630000000  0.4543490000000 1.0
C      1  0.4898380000000  0.4454400000000  0.5415330000000 1.0
C      1  0.4984350000000  0.5549590000000  0.5565410000000 1.0
C      1  0.5217960000000  0.5573890000000  0.5705440000000 1.0
C      1  0.4342360000000  0.4970670000000  0.4673830000000 1.0
C      1  0.5495720000000  0.4554250000000  0.5583070000000 1.0
C      1  0.4243780000000  0.5129490000000  0.5563790000000 1.0
C      1  0.5650770000000  0.4560850000000  0.5344370000000 1.0
C      1  0.4162270000000  0.5295440000000  0.5374430000000 1.0
C      1  0.4174940000000  0.6328060000000  0.4847500000000 1.0
C      1  0.4678630000000  0.4126310000000  0.5208960000000 1.0
C      1  0.5453700000000  0.5158370000000  0.5394300000000 1.0
C      1  0.4941400000000  0.5028520000000  0.5116290000000 1.0
C      1  0.4385140000000  0.4913260000000  0.5661300000000 1.0
C      1  0.4307530000000  0.5472090000000  0.4672560000000 1.0
C      1  0.4760440000000  0.5231170000000  0.5201900000000 1.0
C      1  0.5653020000000  0.4208310000000  0.4806010000000 1.0
C      1  0.5002960000000  0.4340350000000  0.4940440000000 1.0
C      1  0.4794470000000  0.4159090000000  0.4968230000000 1.0
C      1  0.5512620000000  0.5400400000000  0.5536580000000 1.0
C      1  0.4707620000000  0.4969980000000  0.4340130000000 1.0
C      1  0.5624650000000  0.5014710000000  0.5208720000000 1.0
C      1  0.4638460000000  0.4928020000000  0.5828950000000 1.0
C      1  0.5231350000000  0.4716150000000  0.5232320000000 1.0
C      1  0.4720700000000  0.4242140000000  0.5448470000000 1.0
C      1  0.4839260000000  0.5422340000000  0.5383040000000 1.0
C      1  0.4858280000000  0.4727690000000  0.4308930000000 1.0
C      1  0.5318840000000  0.5081200000000  0.3941420000000 1.0
C      1  0.4237710000000  0.5863350000000  0.4970210000000 1.0
C      1  0.4227070000000  0.6128200000000  0.5041660000000 1.0
C      1  0.5763610000000  0.5115050000000  0.4989750000000 1.0
C      1  0.5430910000000  0.4224280000000  0.4620030000000 1.0
C      1  0.4837070000000  0.4891180000000  0.4074130000000 1.0
C      1  0.5315570000000  0.5012280000000  0.5602910000000 1.0
C      1  0.5493870000000  0.4376620000000  0.4390250000000 1.0
C      1  0.4872490000000  0.5222910000000  0.4941770000000 1.0
C      1  0.5521570000000  0.4744790000000  0.5147280000000 1.0
C      1  0.4844810000000  0.4744050000000  0.5808370000000 1.0
END
