TITL C-38196-2854-417 1.3081751800623e-05 125000 -352.811603129385 0 0 60 (C1) n - 1
REM
REM in /home/bkarasulu/CARBON/AIRSS/Generating-Clusters/EDIP-Nigel-Params/Higher-Symm/Box-15A/Only-C60/SD-CG/FIRE-HFTN
REM
REM
REM
REM
REM
REM ./C.cell (414f73aa93bd7a1190c7fd0f31ff2f98)
REM
REM compiler GCC version 9.2.1 20190827 (Red Hat 9.2.1-1)
REM options -cpp -mtune=generic -march=x86-64 -g -O0 -fpre-include=/usr/include/finclude/math-vector-fortran.h
REM seed -583674338 -2124698541 -133513769 1750940448 -371400290 889181282 1951983862 2058422129 1400768442 392309304 -1201859195 182407182 -244370139 118236259 875606436 1251175851 100964476 2030183678 -1466006513 501213726 -279989411 -2122383509 -1902522291 -1336831582 -1807759921 1780204391 873802044 -2000006556 1259087268 -1999786626 1466404871 1707848220 -2136102025
REM
CELL 1.54180   50.00000   50.00000   50.00000   90.00000   90.00000   90.00000
LATT -1
SFAC C  
C      1  0.4659380000000  0.5600580000000  0.4616080000000 1.0
C      1  0.4668230000000  0.5602850000000  0.5365460000000 1.0
C      1  0.4268370000000  0.5278510000000  0.4855770000000 1.0
C      1  0.4272390000000  0.5280050000000  0.5128900000000 1.0
C      1  0.4559740000000  0.5391650000000  0.4437660000000 1.0
C      1  0.4564310000000  0.5398270000000  0.5546340000000 1.0
C      1  0.5551450000000  0.5129620000000  0.5254410000000 1.0
C      1  0.5539890000000  0.5151480000000  0.4705110000000 1.0
C      1  0.5540060000000  0.4848020000000  0.4647160000000 1.0
C      1  0.5562360000000  0.4861280000000  0.5405440000000 1.0
C      1  0.5062710000000  0.4301470000000  0.4541590000000 1.0
C      1  0.5087510000000  0.4310180000000  0.5416730000000 1.0
C      1  0.5298290000000  0.5668880000000  0.5282450000000 1.0
C      1  0.5295660000000  0.5659420000000  0.4741300000000 1.0
C      1  0.5144790000000  0.5857600000000  0.5143830000000 1.0
C      1  0.5144620000000  0.5855110000000  0.4872750000000 1.0
C      1  0.5258440000000  0.4498760000000  0.4527690000000 1.0
C      1  0.5273600000000  0.4510130000000  0.5466580000000 1.0
C      1  0.4507890000000  0.4552350000000  0.4851040000000 1.0
C      1  0.4516690000000  0.4551270000000  0.5152760000000 1.0
C      1  0.4836480000000  0.4921750000000  0.4841980000000 1.0
C      1  0.4848370000000  0.4917250000000  0.5141960000000 1.0
C      1  0.4705120000000  0.4723080000000  0.5301990000000 1.0
C      1  0.4693700000000  0.4717920000000  0.4694170000000 1.0
C      1  0.5563210000000  0.5608780000000  0.4865850000000 1.0
C      1  0.5565310000000  0.5617610000000  0.5160310000000 1.0
C      1  0.4377140000000  0.5229650000000  0.5385120000000 1.0
C      1  0.4358770000000  0.5233090000000  0.4592300000000 1.0
C      1  0.4717790000000  0.5161140000000  0.5218110000000 1.0
C      1  0.4685990000000  0.5162700000000  0.4783250000000 1.0
C      1  0.5114280000000  0.4929460000000  0.4741420000000 1.0
C      1  0.5127950000000  0.4918010000000  0.5225580000000 1.0
C      1  0.4673830000000  0.4142270000000  0.4844310000000 1.0
C      1  0.4686470000000  0.4142870000000  0.5139000000000 1.0
C      1  0.4958590000000  0.4855430000000  0.4303710000000 1.0
C      1  0.4988250000000  0.4877230000000  0.5675280000000 1.0
C      1  0.4701440000000  0.4825860000000  0.4419490000000 1.0
C      1  0.4725120000000  0.4836420000000  0.5575620000000 1.0
C      1  0.5642590000000  0.4659780000000  0.5170810000000 1.0
C      1  0.5513220000000  0.4676670000000  0.4904050000000 1.0
C      1  0.5475380000000  0.4467440000000  0.4713160000000 1.0
C      1  0.5535760000000  0.4472770000000  0.5360160000000 1.0
C      1  0.4798060000000  0.5199210000000  0.4362430000000 1.0
C      1  0.4801010000000  0.5212500000000  0.5643520000000 1.0
C      1  0.5039190000000  0.5358580000000  0.4383690000000 1.0
C      1  0.5041980000000  0.5370070000000  0.5632680000000 1.0
C      1  0.5197430000000  0.4798430000000  0.4483410000000 1.0
C      1  0.5216100000000  0.4807180000000  0.5485040000000 1.0
C      1  0.4472870000000  0.4290570000000  0.5258100000000 1.0
C      1  0.4453220000000  0.4293840000000  0.4745130000000 1.0
C      1  0.4747990000000  0.5438370000000  0.5144250000000 1.0
C      1  0.4722920000000  0.5441840000000  0.4847620000000 1.0
C      1  0.4932620000000  0.4149120000000  0.5269640000000 1.0
C      1  0.4907490000000  0.4143030000000  0.4691890000000 1.0
C      1  0.5705830000000  0.5356540000000  0.4827090000000 1.0
C      1  0.5709690000000  0.5369290000000  0.5216750000000 1.0
C      1  0.5211490000000  0.5547690000000  0.5519730000000 1.0
C      1  0.5206140000000  0.5536690000000  0.4503670000000 1.0
C      1  0.5276150000000  0.5147880000000  0.4837410000000 1.0
C      1  0.5288680000000  0.5134520000000  0.5131240000000 1.0
END
