TITL C-38187-2739-305 0.000115320687296358 125000 -354.417607985706 0 0 60 (C2) n - 1
REM
REM in /home/bkarasulu/CARBON/AIRSS/Generating-Clusters/EDIP-Nigel-Params/Higher-Symm/Box-15A/Only-C60/SD-CG/FIRE-HFTN
REM
REM
REM
REM
REM
REM ./C.cell (414f73aa93bd7a1190c7fd0f31ff2f98)
REM
REM compiler GCC version 9.2.1 20190827 (Red Hat 9.2.1-1)
REM options -cpp -mtune=generic -march=x86-64 -g -O0 -fpre-include=/usr/include/finclude/math-vector-fortran.h
REM seed -582294339 2139457769 -93496667 -260595487 2112894534 985674438 1145127449 -2121489407 -1046430885 1955899107 603123025 980219736 1327689651 -1013979432 -250231453 -966585573 417348160 -799400281 1742969893 -621502180 -1084167479 630950305 -2072992836 -1013053315 531798834 -300489407 -1434030120 370378066 1198325878 -996868003 -2080057829 412274254 667875857
REM
CELL 1.54180   50.00000   50.00000   50.00000   90.00000   90.00000   90.00000
LATT -1
SFAC C  
C      1  0.4571450000000  0.5062430000000  0.5441480000000 1.0
C      1  0.5326870000000  0.5031000000000  0.5244120000000 1.0
C      1  0.5428550000000  0.5062430000000  0.4558520000000 1.0
C      1  0.4673130000000  0.5031000000000  0.4755880000000 1.0
C      1  0.5263450000000  0.4246580000000  0.5193070000000 1.0
C      1  0.5199920000000  0.4257810000000  0.4728870000000 1.0
C      1  0.4736550000000  0.4246580000000  0.4806930000000 1.0
C      1  0.4800080000000  0.4257810000000  0.5271130000000 1.0
C      1  0.4437920000000  0.5124930000000  0.4620420000000 1.0
C      1  0.4561010000000  0.5236050000000  0.5669810000000 1.0
C      1  0.5562080000000  0.5124930000000  0.5379580000000 1.0
C      1  0.5438990000000  0.5236050000000  0.4330190000000 1.0
C      1  0.4436150000000  0.5192480000000  0.5188580000000 1.0
C      1  0.5093010000000  0.5049220000000  0.5431900000000 1.0
C      1  0.5563850000000  0.5192480000000  0.4811420000000 1.0
C      1  0.4906990000000  0.5049220000000  0.4568100000000 1.0
C      1  0.4415880000000  0.5141690000000  0.4343620000000 1.0
C      1  0.4325830000000  0.5371110000000  0.5727740000000 1.0
C      1  0.5584120000000  0.5141690000000  0.5656380000000 1.0
C      1  0.5674170000000  0.5371110000000  0.4272260000000 1.0
C      1  0.4829920000000  0.5013810000000  0.5282750000000 1.0
C      1  0.5297680000000  0.5132690000000  0.4974050000000 1.0
C      1  0.5170080000000  0.5013810000000  0.4717250000000 1.0
C      1  0.4702320000000  0.5132690000000  0.5025950000000 1.0
C      1  0.5168560000000  0.4498840000000  0.5801610000000 1.0
C      1  0.5772030000000  0.4665610000000  0.4973330000000 1.0
C      1  0.4831440000000  0.4498840000000  0.4198390000000 1.0
C      1  0.4227970000000  0.4665610000000  0.5026670000000 1.0
C      1  0.5895800000000  0.4813910000000  0.4774530000000 1.0
C      1  0.4664710000000  0.4706830000000  0.4275710000000 1.0
C      1  0.4104200000000  0.4813910000000  0.5225470000000 1.0
C      1  0.5335290000000  0.4706830000000  0.5724290000000 1.0
C      1  0.4994120000000  0.5679310000000  0.4780360000000 1.0
C      1  0.4780010000000  0.5666020000000  0.5011720000000 1.0
C      1  0.5005880000000  0.5679310000000  0.5219640000000 1.0
C      1  0.5219990000000  0.5666020000000  0.4988280000000 1.0
C      1  0.5101800000000  0.4294230000000  0.5632330000000 1.0
C      1  0.5562230000000  0.4496880000000  0.4922670000000 1.0
C      1  0.4898200000000  0.4294230000000  0.4367670000000 1.0
C      1  0.4437770000000  0.4496880000000  0.5077330000000 1.0
C      1  0.5799160000000  0.5037860000000  0.4907210000000 1.0
C      1  0.4894680000000  0.4836280000000  0.4360790000000 1.0
C      1  0.4200840000000  0.5037860000000  0.5092790000000 1.0
C      1  0.5105320000000  0.4836280000000  0.5639210000000 1.0
C      1  0.4392900000000  0.5547280000000  0.5524170000000 1.0
C      1  0.5402080000000  0.5351160000000  0.5645670000000 1.0
C      1  0.5607100000000  0.5547280000000  0.4475830000000 1.0
C      1  0.4597920000000  0.5351160000000  0.4354330000000 1.0
C      1  0.4507820000000  0.5670280000000  0.5074480000000 1.0
C      1  0.5008820000000  0.5538830000000  0.5458010000000 1.0
C      1  0.5492180000000  0.5670280000000  0.4925520000000 1.0
C      1  0.4991180000000  0.5538830000000  0.4541990000000 1.0
C      1  0.5054500000000  0.4225160000000  0.5370740000000 1.0
C      1  0.5362210000000  0.4310040000000  0.4944550000000 1.0
C      1  0.4945500000000  0.4225160000000  0.4629260000000 1.0
C      1  0.4637790000000  0.4310040000000  0.5055450000000 1.0
C      1  0.4872300000000  0.5316050000000  0.4429520000000 1.0
C      1  0.4387140000000  0.5485630000000  0.5244390000000 1.0
C      1  0.5127700000000  0.5316050000000  0.5570480000000 1.0
C      1  0.5612860000000  0.5485630000000  0.4755610000000 1.0
END
