TITL C-38196-2854-420 1.28796344732953e-05 125000 -372.396451467957 0 0 60 (C6) n - 1
REM
REM in /home/bkarasulu/CARBON/AIRSS/Generating-Clusters/EDIP-Nigel-Params/Higher-Symm/Box-15A/Only-C60/SD-CG/FIRE-HFTN
REM
REM
REM
REM
REM
REM ./C.cell (414f73aa93bd7a1190c7fd0f31ff2f98)
REM
REM compiler GCC version 9.2.1 20190827 (Red Hat 9.2.1-1)
REM options -cpp -mtune=generic -march=x86-64 -g -O0 -fpre-include=/usr/include/finclude/math-vector-fortran.h
REM seed -815360764 -52679637 -408386847 -380674349 2112879913 1689441804 306010642 -1737081743 -874969077 1533953577 -693937706 1047409802 689451541 261297377 1917009765 1991953243 2025180207 761251582 -613312248 326440561 -234450404 2069936673 -1483339218 -1283863232 1592774773 -1820324020 1510141255 1224242096 338064862 398863905 -754584804 -450346500 603638355
REM
CELL 1.54180   50.00000   50.00000   50.00000   90.00000   90.00000   90.00000
LATT -1
SFAC C  
C      1  0.4999680000000  0.5598260000000  0.5527680000000 1.0
C      1  0.4999670000000  0.5756110000000  0.4745730000000 1.0
C      1  0.4999670000000  0.5157850000000  0.4218050000000 1.0
C      1  0.4999670000000  0.4401740000000  0.4472320000000 1.0
C      1  0.4999680000000  0.4243890000000  0.5254270000000 1.0
C      1  0.4999680000000  0.4842150000000  0.5781950000000 1.0
C      1  0.4992530000000  0.4418180000000  0.5481160000000 1.0
C      1  0.4992530000000  0.4292390000000  0.4736710000000 1.0
C      1  0.4992530000000  0.4874210000000  0.4255550000000 1.0
C      1  0.4992530000000  0.5581820000000  0.4518840000000 1.0
C      1  0.4992530000000  0.5707610000000  0.5263290000000 1.0
C      1  0.4992530000000  0.5125790000000  0.5744450000000 1.0
C      1  0.4466690000000  0.5086730000000  0.4520390000000 1.0
C      1  0.4466690000000  0.4628010000000  0.4685090000000 1.0
C      1  0.4466690000000  0.4541280000000  0.5164700000000 1.0
C      1  0.4466700000000  0.4913270000000  0.5479610000000 1.0
C      1  0.4466690000000  0.5371990000000  0.5314910000000 1.0
C      1  0.4466690000000  0.5458720000000  0.4835300000000 1.0
C      1  0.4544430000000  0.4819260000000  0.4497950000000 1.0
C      1  0.4544430000000  0.5344420000000  0.4592450000000 1.0
C      1  0.4544430000000  0.5525160000000  0.5094500000000 1.0
C      1  0.4544430000000  0.5180740000000  0.5502050000000 1.0
C      1  0.4544430000000  0.4655580000000  0.5407550000000 1.0
C      1  0.4544430000000  0.4474840000000  0.4905500000000 1.0
C      1  0.4774720000000  0.4445000000000  0.4311300000000 1.0
C      1  0.4774720000000  0.4126070000000  0.5136290000000 1.0
C      1  0.4774720000000  0.4681070000000  0.5824990000000 1.0
C      1  0.4774720000000  0.5555000000000  0.5688700000000 1.0
C      1  0.4774720000000  0.5873930000000  0.4863710000000 1.0
C      1  0.4774720000000  0.5318930000000  0.4175010000000 1.0
C      1  0.4744260000000  0.5463480000000  0.4413960000000 1.0
C      1  0.4744260000000  0.5739260000000  0.5108370000000 1.0
C      1  0.4744260000000  0.5275780000000  0.5694410000000 1.0
C      1  0.4744260000000  0.4536520000000  0.5586040000000 1.0
C      1  0.4744260000000  0.4260740000000  0.4891630000000 1.0
C      1  0.4744260000000  0.4724220000000  0.4305590000000 1.0
C      1  0.5252670000000  0.5794090000000  0.5155070000000 1.0
C      1  0.5252670000000  0.5531340000000  0.4389830000000 1.0
C      1  0.5252670000000  0.4737250000000  0.4234760000000 1.0
C      1  0.5252670000000  0.4205910000000  0.4844930000000 1.0
C      1  0.5252670000000  0.4468660000000  0.5610170000000 1.0
C      1  0.5252670000000  0.5262750000000  0.5765240000000 1.0
C      1  0.5260900000000  0.4198760000000  0.5135320000000 1.0
C      1  0.5260900000000  0.4482190000000  0.4373770000000 1.0
C      1  0.5260900000000  0.5283430000000  0.4238450000000 1.0
C      1  0.5260900000000  0.5801240000000  0.4864680000000 1.0
C      1  0.5260900000000  0.5517810000000  0.5626230000000 1.0
C      1  0.5260900000000  0.4716570000000  0.5761550000000 1.0
C      1  0.5485420000000  0.5136530000000  0.5636420000000 1.0
C      1  0.5485420000000  0.5619420000000  0.5199970000000 1.0
C      1  0.5485420000000  0.5482890000000  0.4563550000000 1.0
C      1  0.5485410000000  0.4863470000000  0.4363580000000 1.0
C      1  0.5485420000000  0.4380580000000  0.4800030000000 1.0
C      1  0.5485420000000  0.4517110000000  0.5436450000000 1.0
C      1  0.5478710000000  0.4849580000000  0.5617780000000 1.0
C      1  0.5478710000000  0.4389780000000  0.5178620000000 1.0
C      1  0.5478710000000  0.4540200000000  0.4560840000000 1.0
C      1  0.5478710000000  0.5150420000000  0.4382220000000 1.0
C      1  0.5478710000000  0.5610220000000  0.4821380000000 1.0
C      1  0.5478710000000  0.5459800000000  0.5439160000000 1.0
END
