TITL C-38185-7677-450 1.76501350338908e-05 125000 -356.387293421732 0 0 60 (C1) n - 1
REM
REM in /home/bkarasulu/CARBON/AIRSS/Generating-Clusters/EDIP-Nigel-Params/Higher-Symm/Box-15A/Only-C60/SD-CG/FIRE-HFTN
REM
REM
REM
REM
REM
REM ./C.cell (414f73aa93bd7a1190c7fd0f31ff2f98)
REM
REM compiler GCC version 9.2.1 20190827 (Red Hat 9.2.1-1)
REM options -cpp -mtune=generic -march=x86-64 -g -O0 -fpre-include=/usr/include/finclude/math-vector-fortran.h
REM seed -767939749 -1218184409 -122888236 -1027019160 1422123267 -698634514 -559030465 706093460 1262630872 635269107 -601905266 1338009621 1873402162 1935432752 980829636 1020039969 -1039831470 491965490 523071356 2117585124 -1976099746 -1291973415 -1671180670 1183579653 -705990569 961577567 -1891857517 1703359406 -323346084 979314063 -1219569006 -1259221320 -1036537036
REM
CELL 1.54180   50.00000   50.00000   50.00000   90.00000   90.00000   90.00000
LATT -1
SFAC C  
C      1  0.5444180000000  0.4866140000000  0.4994130000000 1.0
C      1  0.4904070000000  0.5435620000000  0.4986860000000 1.0
C      1  0.4633270000000  0.4695050000000  0.5002790000000 1.0
C      1  0.4571830000000  0.5200230000000  0.4696490000000 1.0
C      1  0.5033790000000  0.4556360000000  0.4723360000000 1.0
C      1  0.5389060000000  0.5267220000000  0.4710730000000 1.0
C      1  0.4852850000000  0.5698880000000  0.4827290000000 1.0
C      1  0.4466920000000  0.4522490000000  0.4809750000000 1.0
C      1  0.5691450000000  0.4780900000000  0.4826480000000 1.0
C      1  0.4289590000000  0.4932510000000  0.4889950000000 1.0
C      1  0.5403470000000  0.4441110000000  0.4917760000000 1.0
C      1  0.5285450000000  0.5632820000000  0.4914880000000 1.0
C      1  0.4499060000000  0.5202180000000  0.5320950000000 1.0
C      1  0.5042610000000  0.4485490000000  0.5324980000000 1.0
C      1  0.5447110000000  0.5325040000000  0.5328970000000 1.0
C      1  0.5502530000000  0.5181780000000  0.4435680000000 1.0
C      1  0.4590430000000  0.5347190000000  0.4425380000000 1.0
C      1  0.4904970000000  0.4493670000000  0.4446790000000 1.0
C      1  0.4721890000000  0.4315220000000  0.5012310000000 1.0
C      1  0.5742840000000  0.5115130000000  0.5012100000000 1.0
C      1  0.4540460000000  0.5571440000000  0.5012880000000 1.0
C      1  0.5334590000000  0.4727790000000  0.5675710000000 1.0
C      1  0.5081190000000  0.5418350000000  0.5672220000000 1.0
C      1  0.4620260000000  0.4846380000000  0.5684190000000 1.0
C      1  0.5319210000000  0.5384590000000  0.4344040000000 1.0
C      1  0.4498340000000  0.5090480000000  0.4328890000000 1.0
C      1  0.5174700000000  0.4533710000000  0.4358960000000 1.0
C      1  0.5307860000000  0.5261800000000  0.5594060000000 1.0
C      1  0.4645790000000  0.5109780000000  0.5573100000000 1.0
C      1  0.5081990000000  0.4601760000000  0.5600970000000 1.0
C      1  0.4348470000000  0.4753350000000  0.4678800000000 1.0
C      1  0.5541480000000  0.4562090000000  0.4701110000000 1.0
C      1  0.5111860000000  0.5681690000000  0.4696080000000 1.0
C      1  0.5647600000000  0.5119160000000  0.5294500000000 1.0
C      1  0.4584850000000  0.5476300000000  0.5290220000000 1.0
C      1  0.4767760000000  0.4396420000000  0.5294440000000 1.0
C      1  0.4693560000000  0.4645180000000  0.4350260000000 1.0
C      1  0.5475490000000  0.4913900000000  0.4365870000000 1.0
C      1  0.4839100000000  0.5452680000000  0.4358720000000 1.0
C      1  0.4458310000000  0.4659960000000  0.5552290000000 1.0
C      1  0.5542280000000  0.4689790000000  0.5487110000000 1.0
C      1  0.5005490000000  0.5607550000000  0.5475780000000 1.0
C      1  0.4892500000000  0.5191140000000  0.5741520000000 1.0
C      1  0.4907460000000  0.4799810000000  0.5762590000000 1.0
C      1  0.5238640000000  0.5008830000000  0.5754610000000 1.0
C      1  0.4584410000000  0.4617380000000  0.5306260000000 1.0
C      1  0.5488210000000  0.4883840000000  0.5292340000000 1.0
C      1  0.4867300000000  0.5451900000000  0.5287330000000 1.0
C      1  0.5190440000000  0.4359030000000  0.5088920000000 1.0
C      1  0.5476190000000  0.5502370000000  0.5079220000000 1.0
C      1  0.4330150000000  0.5151990000000  0.5065720000000 1.0
C      1  0.4526010000000  0.4836860000000  0.4460810000000 1.0
C      1  0.5378980000000  0.4683640000000  0.4489620000000 1.0
C      1  0.5087990000000  0.5484390000000  0.4479740000000 1.0
C      1  0.4388050000000  0.5365070000000  0.4874510000000 1.0
C      1  0.4984760000000  0.4302530000000  0.4886370000000 1.0
C      1  0.5627980000000  0.5350950000000  0.4880440000000 1.0
C      1  0.4859270000000  0.5157650000000  0.4826020000000 1.0
C      1  0.4904930000000  0.4816190000000  0.4878270000000 1.0
C      1  0.5228750000000  0.5037250000000  0.4847890000000 1.0
END
