TITL C-38189-4514-28 -0.0569345098801171 125000 -348.799607698884 0 0 60 (C1) n - 1
REM
REM in /home/bkarasulu/CARBON/AIRSS/Generating-Clusters/EDIP-Nigel-Params/Higher-Symm/Box-15A/Only-C60/SD-CG/FIRE-HFTN
REM
REM
REM
REM
REM
REM ./C.cell (414f73aa93bd7a1190c7fd0f31ff2f98)
REM
REM compiler GCC version 9.2.1 20190827 (Red Hat 9.2.1-1)
REM options -cpp -mtune=generic -march=x86-64 -g -O0 -fpre-include=/usr/include/finclude/math-vector-fortran.h
REM seed -1512158407 -699075024 812897761 -962289269 1220512270 -1215759004 -548982865 -790132713 -1898946405 479240058 869871624 -1845924243 -1537652965 559638955 383733432 -1187346138 1697366627 1515813602 709485399 176063256 1121304979 1679679962 382690867 2011361341 1487931443 1662294602 682765303 1008654551 -814362396 1315823685 -1994235299 965152592 1685003342
REM
CELL 1.54180   50.00000   50.00000   50.00000   90.00000   90.00000   90.00000
LATT -1
SFAC C  
C      1  0.4916720000000  0.4752630000000  0.4196130000000 1.0
C      1  0.5191600000000  0.4753210000000  0.4192890000000 1.0
C      1  0.4651280000000  0.5508920000000  0.5249460000000 1.0
C      1  0.5346850000000  0.5530600000000  0.5267200000000 1.0
C      1  0.5970580000000  0.4895540000000  0.5147390000000 1.0
C      1  0.4052210000000  0.4929960000000  0.5128490000000 1.0
C      1  0.5061140000000  0.5755000000000  0.4288690000000 1.0
C      1  0.4779120000000  0.5778870000000  0.4321110000000 1.0
C      1  0.5108070000000  0.5508380000000  0.4436470000000 1.0
C      1  0.4726470000000  0.5541470000000  0.4481450000000 1.0
C      1  0.4636200000000  0.5735900000000  0.4672020000000 1.0
C      1  0.5275830000000  0.5678960000000  0.4594590000000 1.0
C      1  0.4858910000000  0.5665320000000  0.5122760000000 1.0
C      1  0.5142570000000  0.5609410000000  0.5080820000000 1.0
C      1  0.4856880000000  0.4725380000000  0.4953600000000 1.0
C      1  0.5169980000000  0.4720180000000  0.4959470000000 1.0
C      1  0.4385710000000  0.5545660000000  0.5184750000000 1.0
C      1  0.5608950000000  0.5507030000000  0.5184470000000 1.0
C      1  0.5732630000000  0.4644560000000  0.5319290000000 1.0
C      1  0.4281720000000  0.4673060000000  0.5302720000000 1.0
C      1  0.4537820000000  0.5191090000000  0.5602020000000 1.0
C      1  0.5453980000000  0.5212840000000  0.5618380000000 1.0
C      1  0.4854690000000  0.4838160000000  0.5416050000000 1.0
C      1  0.5161930000000  0.4834500000000  0.5421240000000 1.0
C      1  0.4763300000000  0.5030560000000  0.5621050000000 1.0
C      1  0.5250110000000  0.5025730000000  0.5629350000000 1.0
C      1  0.4058870000000  0.5187390000000  0.4997690000000 1.0
C      1  0.5953470000000  0.5151720000000  0.5014900000000 1.0
C      1  0.4848520000000  0.4366220000000  0.5279150000000 1.0
C      1  0.5155480000000  0.4361340000000  0.5283860000000 1.0
C      1  0.4779750000000  0.4660880000000  0.4429610000000 1.0
C      1  0.5266040000000  0.4643390000000  0.4446670000000 1.0
C      1  0.5884180000000  0.4862700000000  0.4676510000000 1.0
C      1  0.4148440000000  0.4903950000000  0.4659550000000 1.0
C      1  0.5185900000000  0.5775410000000  0.4845980000000 1.0
C      1  0.4808880000000  0.5820660000000  0.4880960000000 1.0
C      1  0.5829450000000  0.5364260000000  0.5139870000000 1.0
C      1  0.4164780000000  0.5407610000000  0.5126780000000 1.0
C      1  0.5273360000000  0.5385910000000  0.5500070000000 1.0
C      1  0.4706860000000  0.5385590000000  0.5498910000000 1.0
C      1  0.5544040000000  0.4560080000000  0.5500650000000 1.0
C      1  0.4461760000000  0.4577050000000  0.5487190000000 1.0
C      1  0.4855130000000  0.4389960000000  0.4489410000000 1.0
C      1  0.5129810000000  0.4396250000000  0.4490930000000 1.0
C      1  0.4099910000000  0.5165000000000  0.4721380000000 1.0
C      1  0.5920510000000  0.5125780000000  0.4737750000000 1.0
C      1  0.5264470000000  0.4558590000000  0.5485620000000 1.0
C      1  0.4741480000000  0.4566090000000  0.5478200000000 1.0
C      1  0.4339360000000  0.4610870000000  0.5027670000000 1.0
C      1  0.5681190000000  0.4579520000000  0.5043870000000 1.0
C      1  0.5263060000000  0.4431660000000  0.5009560000000 1.0
C      1  0.4750230000000  0.4441370000000  0.5002100000000 1.0
C      1  0.5258460000000  0.4911960000000  0.5159210000000 1.0
C      1  0.4769120000000  0.4919160000000  0.5151100000000 1.0
C      1  0.5532200000000  0.4362100000000  0.4957000000000 1.0
C      1  0.4478820000000  0.4385800000000  0.4944490000000 1.0
C      1  0.5902810000000  0.4720740000000  0.4918840000000 1.0
C      1  0.4124160000000  0.4758830000000  0.4899280000000 1.0
C      1  0.5181010000000  0.4830940000000  0.4665280000000 1.0
C      1  0.4863220000000  0.4838290000000  0.4658150000000 1.0
END
