TITL C-38194-9318-210 0.000115707818629697 125000 -351.152591767415 0 0 60 (C1) n - 1
REM
REM in /home/bkarasulu/CARBON/AIRSS/Generating-Clusters/EDIP-Nigel-Params/Higher-Symm/Box-15A/Only-C60/SD-CG/FIRE-HFTN
REM
REM
REM
REM
REM
REM ./C.cell (414f73aa93bd7a1190c7fd0f31ff2f98)
REM
REM compiler GCC version 9.2.1 20190827 (Red Hat 9.2.1-1)
REM options -cpp -mtune=generic -march=x86-64 -g -O0 -fpre-include=/usr/include/finclude/math-vector-fortran.h
REM seed -98479696 1233610506 196077704 -32269659 -1415150504 2000259509 719348487 38794351 -846159711 1581232109 -1403306632 207729011 447688053 327935284 1301278798 -813312299 -43800217 -939741637 -616293621 162188259 -632859393 -417649606 -1267941445 2055643591 -909661757 1500175650 -1341539008 1771218416 1720104767 1319646530 1222760018 -1202733834 1188284037
REM
CELL 1.54180   50.00000   50.00000   50.00000   90.00000   90.00000   90.00000
LATT -1
SFAC C  
C      1  0.4888600000000  0.4895200000000  0.4134150000000 1.0
C      1  0.4415960000000  0.4634300000000  0.5214740000000 1.0
C      1  0.5407880000000  0.4683500000000  0.4478100000000 1.0
C      1  0.4337350000000  0.4577240000000  0.4942960000000 1.0
C      1  0.4718350000000  0.4602950000000  0.5542880000000 1.0
C      1  0.5501010000000  0.4955310000000  0.4441740000000 1.0
C      1  0.5595860000000  0.4478680000000  0.4553620000000 1.0
C      1  0.5225650000000  0.5512910000000  0.4507650000000 1.0
C      1  0.5142660000000  0.5733240000000  0.5727280000000 1.0
C      1  0.4893700000000  0.5052190000000  0.5681440000000 1.0
C      1  0.4942310000000  0.4549470000000  0.4277240000000 1.0
C      1  0.4121540000000  0.4848580000000  0.4600250000000 1.0
C      1  0.4744180000000  0.5087280000000  0.4270260000000 1.0
C      1  0.4692700000000  0.4898600000000  0.5566060000000 1.0
C      1  0.5674340000000  0.4977970000000  0.5119360000000 1.0
C      1  0.4728250000000  0.5580490000000  0.5574390000000 1.0
C      1  0.4256610000000  0.4829140000000  0.4826910000000 1.0
C      1  0.4272240000000  0.5303250000000  0.4978340000000 1.0
C      1  0.5592280000000  0.4625780000000  0.5764820000000 1.0
C      1  0.5634860000000  0.5087500000000  0.4645850000000 1.0
C      1  0.5396500000000  0.4447120000000  0.5777630000000 1.0
C      1  0.5182950000000  0.4894930000000  0.4135930000000 1.0
C      1  0.5154750000000  0.4413470000000  0.5672300000000 1.0
C      1  0.4957450000000  0.4776470000000  0.5047200000000 1.0
C      1  0.5516100000000  0.5145020000000  0.5301200000000 1.0
C      1  0.5004680000000  0.5028880000000  0.5170680000000 1.0
C      1  0.4677560000000  0.5547720000000  0.5066390000000 1.0
C      1  0.4833250000000  0.4363670000000  0.4448460000000 1.0
C      1  0.5546310000000  0.5114960000000  0.5586910000000 1.0
C      1  0.4981690000000  0.4790100000000  0.4764650000000 1.0
C      1  0.4989470000000  0.4505490000000  0.5468890000000 1.0
C      1  0.5112440000000  0.5764920000000  0.4489430000000 1.0
C      1  0.5751970000000  0.5144880000000  0.4891220000000 1.0
C      1  0.4362660000000  0.4908320000000  0.5269770000000 1.0
C      1  0.5527230000000  0.4247510000000  0.4703000000000 1.0
C      1  0.5228930000000  0.5386230000000  0.4773430000000 1.0
C      1  0.4976190000000  0.5532360000000  0.5684240000000 1.0
C      1  0.4912360000000  0.5669510000000  0.4659240000000 1.0
C      1  0.4616330000000  0.5592510000000  0.5332770000000 1.0
C      1  0.4579060000000  0.5380660000000  0.4627840000000 1.0
C      1  0.4476360000000  0.5462410000000  0.4876720000000 1.0
C      1  0.4251910000000  0.5031510000000  0.5033200000000 1.0
C      1  0.4638230000000  0.4304750000000  0.4619530000000 1.0
C      1  0.4447320000000  0.4374090000000  0.4791810000000 1.0
C      1  0.5686090000000  0.4432260000000  0.4818520000000 1.0
C      1  0.5629410000000  0.5361210000000  0.5094430000000 1.0
C      1  0.4442510000000  0.5017800000000  0.5514530000000 1.0
C      1  0.4509020000000  0.4463330000000  0.5412780000000 1.0
C      1  0.5340070000000  0.5219350000000  0.5739710000000 1.0
C      1  0.5331730000000  0.5098510000000  0.4269390000000 1.0
C      1  0.5109660000000  0.4667470000000  0.5263000000000 1.0
C      1  0.4720110000000  0.5155390000000  0.4536750000000 1.0
C      1  0.5415800000000  0.5525210000000  0.4959090000000 1.0
C      1  0.5640660000000  0.4869660000000  0.5670720000000 1.0
C      1  0.5175400000000  0.5621470000000  0.5084360000000 1.0
C      1  0.4947000000000  0.5212010000000  0.4961290000000 1.0
C      1  0.5067830000000  0.5264310000000  0.5718120000000 1.0
C      1  0.4930780000000  0.5067070000000  0.4713680000000 1.0
C      1  0.4921760000000  0.5654560000000  0.4947910000000 1.0
C      1  0.5224120000000  0.4629320000000  0.4255240000000 1.0
END
