TITL C-38195-9455-425 -0.0256449314926326 125000 -346.701537110523 0 0 60 (C2) n - 1
REM
REM in /home/bkarasulu/CARBON/AIRSS/Generating-Clusters/EDIP-Nigel-Params/Higher-Symm/Box-15A/Only-C60/SD-CG/FIRE-HFTN
REM
REM
REM
REM
REM
REM ./C.cell (414f73aa93bd7a1190c7fd0f31ff2f98)
REM
REM compiler GCC version 9.2.1 20190827 (Red Hat 9.2.1-1)
REM options -cpp -mtune=generic -march=x86-64 -g -O0 -fpre-include=/usr/include/finclude/math-vector-fortran.h
REM seed -194625204 158094178 1648598005 -1152131486 439352547 795241644 -1277913020 524238002 1411916530 1365576281 1526346214 728912401 -1850936589 2023817016 -535503276 -2134938161 -1425019683 1725123443 599194644 -1879688818 239492648 -2079086005 -471325670 -1574878758 -804142448 -838640456 -481698670 2087134451 495502411 -1091728903 -610213524 1155117712 -1842388878
REM
CELL 1.54180   50.00000   50.00000   50.00000   90.00000   90.00000   90.00000
LATT -1
SFAC C  
C      1  0.4869340000000  0.5615020000000  0.4527780000000 1.0
C      1  0.4869340000000  0.4384980000000  0.5472220000000 1.0
C      1  0.4253650000000  0.4706750000000  0.4982450000000 1.0
C      1  0.4253650000000  0.5293250000000  0.5017550000000 1.0
C      1  0.5461190000000  0.5004410000000  0.5222220000000 1.0
C      1  0.5461190000000  0.4995590000000  0.4777780000000 1.0
C      1  0.5698870000000  0.4986150000000  0.5403710000000 1.0
C      1  0.5698870000000  0.5013850000000  0.4596290000000 1.0
C      1  0.5177730000000  0.4427660000000  0.4403030000000 1.0
C      1  0.5177730000000  0.5572340000000  0.5596970000000 1.0
C      1  0.5175070000000  0.5044700000000  0.4107100000000 1.0
C      1  0.5175070000000  0.4955300000000  0.5892900000000 1.0
C      1  0.4283770000000  0.4717350000000  0.4705680000000 1.0
C      1  0.4283770000000  0.5282650000000  0.5294320000000 1.0
C      1  0.5875280000000  0.5232940000000  0.4643530000000 1.0
C      1  0.5875280000000  0.4767060000000  0.5356470000000 1.0
C      1  0.4516230000000  0.5261290000000  0.5450760000000 1.0
C      1  0.4516230000000  0.4738710000000  0.4549240000000 1.0
C      1  0.4623940000000  0.4330020000000  0.4781670000000 1.0
C      1  0.4623940000000  0.5669980000000  0.5218330000000 1.0
C      1  0.5196290000000  0.4996460000000  0.4634280000000 1.0
C      1  0.5196290000000  0.5003540000000  0.5365720000000 1.0
C      1  0.5794090000000  0.5487980000000  0.4716500000000 1.0
C      1  0.5794090000000  0.4512020000000  0.5283500000000 1.0
C      1  0.5483370000000  0.5221520000000  0.4992610000000 1.0
C      1  0.5483370000000  0.4778480000000  0.5007390000000 1.0
C      1  0.4619700000000  0.4381820000000  0.5061140000000 1.0
C      1  0.4619700000000  0.5618180000000  0.4938860000000 1.0
C      1  0.4071430000000  0.5107630000000  0.4916260000000 1.0
C      1  0.4071430000000  0.4892370000000  0.5083740000000 1.0
C      1  0.4668770000000  0.5511150000000  0.5447340000000 1.0
C      1  0.4668770000000  0.4488850000000  0.4552660000000 1.0
C      1  0.5788790000000  0.5202050000000  0.5527560000000 1.0
C      1  0.5788790000000  0.4797950000000  0.4472440000000 1.0
C      1  0.5196980000000  0.5026230000000  0.4361520000000 1.0
C      1  0.5196980000000  0.4973770000000  0.5638480000000 1.0
C      1  0.4905320000000  0.5222520000000  0.4991900000000 1.0
C      1  0.4905320000000  0.4777480000000  0.5008100000000 1.0
C      1  0.4882380000000  0.4326360000000  0.5196430000000 1.0
C      1  0.4882380000000  0.5673640000000  0.4803570000000 1.0
C      1  0.5721870000000  0.4621860000000  0.5039740000000 1.0
C      1  0.5721870000000  0.5378140000000  0.4960260000000 1.0
C      1  0.4929980000000  0.5007410000000  0.5224650000000 1.0
C      1  0.4929980000000  0.4992590000000  0.4775350000000 1.0
C      1  0.4907610000000  0.4477520000000  0.4410570000000 1.0
C      1  0.4907610000000  0.5522480000000  0.5589430000000 1.0
C      1  0.4673850000000  0.5449350000000  0.4444540000000 1.0
C      1  0.4673850000000  0.4550650000000  0.5555460000000 1.0
C      1  0.5346190000000  0.5571990000000  0.5377460000000 1.0
C      1  0.5346190000000  0.4428010000000  0.4622540000000 1.0
C      1  0.4678240000000  0.5007200000000  0.5425850000000 1.0
C      1  0.4678240000000  0.4992800000000  0.4574150000000 1.0
C      1  0.5124910000000  0.5617820000000  0.5216870000000 1.0
C      1  0.5124910000000  0.4382180000000  0.4783130000000 1.0
C      1  0.5045840000000  0.4513260000000  0.5029660000000 1.0
C      1  0.5045840000000  0.5486740000000  0.4970340000000 1.0
C      1  0.4529160000000  0.5255420000000  0.4587880000000 1.0
C      1  0.4529160000000  0.4744580000000  0.5412120000000 1.0
C      1  0.4500180000000  0.5352830000000  0.4870110000000 1.0
C      1  0.4500180000000  0.4647170000000  0.5129890000000 1.0
END
