TITL C-38184-643-549 -1.31892463282451e-06 125000 -359.980681261449 0 0 60 (C2) n - 1
REM
REM in /home/bkarasulu/CARBON/AIRSS/Generating-Clusters/EDIP-Nigel-Params/Higher-Symm/Box-15A/Only-C60/SD-CG/FIRE-HFTN
REM
REM
REM
REM
REM
REM ./C.cell (414f73aa93bd7a1190c7fd0f31ff2f98)
REM
REM compiler GCC version 9.2.1 20190827 (Red Hat 9.2.1-1)
REM options -cpp -mtune=generic -march=x86-64 -g -O0 -fpre-include=/usr/include/finclude/math-vector-fortran.h
REM seed -1739847368 -1239345137 890446944 400319157 910356586 -1595477270 -1207893517 1343385282 -136245459 317652323 639876182 1383754566 189958046 -1261644377 62524636 1374596707 2021313319 889016996 1032515119 -84898395 -909271057 1532544416 534327312 -77543947 870702780 -408024104 1537796285 -1503634685 -96716456 -750590239 1761034659 -1842617211 -1238333000
REM
CELL 1.54180   50.00000   50.00000   50.00000   90.00000   90.00000   90.00000
LATT -1
SFAC C  
C      1  0.4823930000000  0.5421800000000  0.4491380000000 1.0
C      1  0.5531030000000  0.5423620000000  0.5101600000000 1.0
C      1  0.4635760000000  0.5416820000000  0.5418640000000 1.0
C      1  0.5176070000000  0.4578200000000  0.4491380000000 1.0
C      1  0.4468970000000  0.4576380000000  0.5101600000000 1.0
C      1  0.5364240000000  0.4583180000000  0.5418640000000 1.0
C      1  0.4832570000000  0.4510430000000  0.4867650000000 1.0
C      1  0.5178390000000  0.4509910000000  0.4929760000000 1.0
C      1  0.4985150000000  0.4502460000000  0.5218110000000 1.0
C      1  0.5167430000000  0.5489570000000  0.4867650000000 1.0
C      1  0.4821610000000  0.5490090000000  0.4929760000000 1.0
C      1  0.5014850000000  0.5497540000000  0.5218110000000 1.0
C      1  0.5303940000000  0.4986150000000  0.5000590000000 1.0
C      1  0.4847990000000  0.4981570000000  0.5268690000000 1.0
C      1  0.4846380000000  0.4983370000000  0.4733760000000 1.0
C      1  0.4696060000000  0.5013850000000  0.5000590000000 1.0
C      1  0.5152010000000  0.5018430000000  0.5268690000000 1.0
C      1  0.5153620000000  0.5016630000000  0.4733760000000 1.0
C      1  0.4800500000000  0.5902780000000  0.5168940000000 1.0
C      1  0.4950290000000  0.5888740000000  0.4726440000000 1.0
C      1  0.5261790000000  0.5891970000000  0.5080010000000 1.0
C      1  0.5199500000000  0.4097220000000  0.5168940000000 1.0
C      1  0.5049710000000  0.4111260000000  0.4726440000000 1.0
C      1  0.4738210000000  0.4108030000000  0.5080010000000 1.0
C      1  0.4357970000000  0.4870990000000  0.5435690000000 1.0
C      1  0.4946190000000  0.4875650000000  0.4222690000000 1.0
C      1  0.5700420000000  0.4883670000000  0.5335510000000 1.0
C      1  0.5642030000000  0.5129010000000  0.5435690000000 1.0
C      1  0.5053810000000  0.5124350000000  0.4222690000000 1.0
C      1  0.4299580000000  0.5116330000000  0.5335510000000 1.0
C      1  0.5479150000000  0.5346840000000  0.5368220000000 1.0
C      1  0.4438220000000  0.5337650000000  0.5233900000000 1.0
C      1  0.5077610000000  0.5342850000000  0.4396150000000 1.0
C      1  0.4520850000000  0.4653160000000  0.5368220000000 1.0
C      1  0.5561780000000  0.4662350000000  0.5233900000000 1.0
C      1  0.4922390000000  0.4657150000000  0.4396150000000 1.0
C      1  0.5427330000000  0.4708820000000  0.4968850000000 1.0
C      1  0.4816300000000  0.4704540000000  0.5396350000000 1.0
C      1  0.4752020000000  0.4708290000000  0.4638000000000 1.0
C      1  0.4572670000000  0.5291180000000  0.4968850000000 1.0
C      1  0.5183700000000  0.5295460000000  0.5396350000000 1.0
C      1  0.5247980000000  0.5291710000000  0.4638000000000 1.0
C      1  0.5299420000000  0.4821420000000  0.4559270000000 1.0
C      1  0.5234840000000  0.4825200000000  0.5483920000000 1.0
C      1  0.4469190000000  0.4821510000000  0.4962040000000 1.0
C      1  0.4700580000000  0.5178580000000  0.4559270000000 1.0
C      1  0.4765160000000  0.5174800000000  0.5483920000000 1.0
C      1  0.5530810000000  0.5178490000000  0.4962040000000 1.0
C      1  0.4761430000000  0.5785530000000  0.4912570000000 1.0
C      1  0.5196620000000  0.5785120000000  0.4825130000000 1.0
C      1  0.5052760000000  0.5795680000000  0.5247130000000 1.0
C      1  0.5238570000000  0.4214470000000  0.4912570000000 1.0
C      1  0.4803380000000  0.4214880000000  0.4825130000000 1.0
C      1  0.4947240000000  0.4204320000000  0.5247130000000 1.0
C      1  0.5573110000000  0.4852000000000  0.4646480000000 1.0
C      1  0.5024190000000  0.4855470000000  0.5679520000000 1.0
C      1  0.4402460000000  0.4857720000000  0.4683000000000 1.0
C      1  0.4426890000000  0.5148000000000  0.4646480000000 1.0
C      1  0.4975810000000  0.5144530000000  0.5679520000000 1.0
C      1  0.5597540000000  0.5142280000000  0.4683000000000 1.0
END
