TITL C-38198-1686-306 3.6601200906906e-06 125000 -366.352071793235 0 0 60 (C1) n - 1
REM
REM in /home/bkarasulu/CARBON/AIRSS/Generating-Clusters/EDIP-Nigel-Params/Higher-Symm/Box-15A/Only-C60/SD-CG/FIRE-HFTN
REM
REM
REM
REM
REM
REM ./C.cell (414f73aa93bd7a1190c7fd0f31ff2f98)
REM
REM compiler GCC version 9.2.1 20190827 (Red Hat 9.2.1-1)
REM options -cpp -mtune=generic -march=x86-64 -g -O0 -fpre-include=/usr/include/finclude/math-vector-fortran.h
REM seed -1205202505 1524557303 -60117484 -42245098 1997908623 -869668130 -489001128 1436709115 1756221625 2105088264 -1976272811 -637999776 -278737829 -892108277 -69084227 507788278 730717212 2013996093 -397101412 1228497662 566160552 1040915642 1489084943 88813862 -1695287381 1212131695 -1452032388 725831315 1140863480 1391024714 -742399231 -1420254476 627908715
REM
CELL 1.54180   50.00000   50.00000   50.00000   90.00000   90.00000   90.00000
LATT -1
SFAC C  
C      1  0.4593170000000  0.4768140000000  0.4531820000000 1.0
C      1  0.5438390000000  0.4770630000000  0.4571050000000 1.0
C      1  0.4954610000000  0.5483920000000  0.4545930000000 1.0
C      1  0.5116410000000  0.5774050000000  0.5225210000000 1.0
C      1  0.4232390000000  0.4720600000000  0.5206570000000 1.0
C      1  0.5668030000000  0.4515810000000  0.5237230000000 1.0
C      1  0.4588790000000  0.4633490000000  0.4828890000000 1.0
C      1  0.5524770000000  0.4846780000000  0.4861330000000 1.0
C      1  0.4857300000000  0.5539980000000  0.4842700000000 1.0
C      1  0.4793760000000  0.4319920000000  0.5177980000000 1.0
C      1  0.5690370000000  0.5223570000000  0.5165240000000 1.0
C      1  0.4483850000000  0.5485670000000  0.5190910000000 1.0
C      1  0.5598600000000  0.5419240000000  0.4955820000000 1.0
C      1  0.4326260000000  0.5328480000000  0.4988780000000 1.0
C      1  0.5026100000000  0.4272020000000  0.4991630000000 1.0
C      1  0.5169210000000  0.4717850000000  0.5597180000000 1.0
C      1  0.5123980000000  0.4994670000000  0.5657530000000 1.0
C      1  0.4864580000000  0.5068650000000  0.5715670000000 1.0
C      1  0.4450420000000  0.5038100000000  0.4573170000000 1.0
C      1  0.5255630000000  0.4527600000000  0.4595560000000 1.0
C      1  0.5259740000000  0.5446560000000  0.4554480000000 1.0
C      1  0.5444500000000  0.4635480000000  0.5591100000000 1.0
C      1  0.5190030000000  0.5465250000000  0.5525190000000 1.0
C      1  0.4448670000000  0.4925780000000  0.5526020000000 1.0
C      1  0.4687960000000  0.5375200000000  0.5386500000000 1.0
C      1  0.4772000000000  0.4527220000000  0.5397490000000 1.0
C      1  0.5536260000000  0.5090180000000  0.5394100000000 1.0
C      1  0.4958310000000  0.4920200000000  0.4173560000000 1.0
C      1  0.5233630000000  0.4879860000000  0.4135710000000 1.0
C      1  0.4883310000000  0.5187300000000  0.4153040000000 1.0
C      1  0.5540660000000  0.4559200000000  0.4984250000000 1.0
C      1  0.5112600000000  0.5689670000000  0.4951140000000 1.0
C      1  0.4328660000000  0.4771610000000  0.4942520000000 1.0
C      1  0.5386280000000  0.5240760000000  0.4412270000000 1.0
C      1  0.4531140000000  0.5266020000000  0.4433810000000 1.0
C      1  0.5019420000000  0.4535270000000  0.4444510000000 1.0
C      1  0.5331530000000  0.5670300000000  0.5384480000000 1.0
C      1  0.4211650000000  0.4958040000000  0.5368270000000 1.0
C      1  0.5517070000000  0.4396780000000  0.5450280000000 1.0
C      1  0.4852630000000  0.4751690000000  0.4387630000000 1.0
C      1  0.5388500000000  0.4966940000000  0.4355140000000 1.0
C      1  0.4778290000000  0.5354310000000  0.4347400000000 1.0
C      1  0.4912440000000  0.5547780000000  0.5456100000000 1.0
C      1  0.4512770000000  0.4643600000000  0.5454810000000 1.0
C      1  0.5626640000000  0.4824040000000  0.5463920000000 1.0
C      1  0.5084840000000  0.4738650000000  0.4982690000000 1.0
C      1  0.5173590000000  0.5213520000000  0.4948240000000 1.0
C      1  0.4712700000000  0.5057840000000  0.4965100000000 1.0
C      1  0.4647450000000  0.5140610000000  0.5560170000000 1.0
C      1  0.4961540000000  0.4530650000000  0.5604540000000 1.0
C      1  0.5285220000000  0.5188600000000  0.5518550000000 1.0
C      1  0.4900080000000  0.5269150000000  0.4953170000000 1.0
C      1  0.4805970000000  0.4795100000000  0.4953050000000 1.0
C      1  0.5270590000000  0.4949050000000  0.4973310000000 1.0
C      1  0.5315290000000  0.5454580000000  0.4858010000000 1.0
C      1  0.4431170000000  0.5067340000000  0.4876950000000 1.0
C      1  0.5220400000000  0.4489800000000  0.4900720000000 1.0
C      1  0.4658460000000  0.4351420000000  0.4914360000000 1.0
C      1  0.5734220000000  0.5060790000000  0.4919490000000 1.0
C      1  0.4577190000000  0.5614660000000  0.4937770000000 1.0
END
