TITL C-38195-9455-269 0.866019267715176 125000 -341.050211382155 0 0 60 (Ci) n - 1
REM
REM in /home/bkarasulu/CARBON/AIRSS/Generating-Clusters/EDIP-Nigel-Params/Higher-Symm/Box-15A/Only-C60/SD-CG/FIRE-HFTN
REM
REM
REM
REM
REM
REM ./C.cell (414f73aa93bd7a1190c7fd0f31ff2f98)
REM
REM compiler GCC version 9.2.1 20190827 (Red Hat 9.2.1-1)
REM options -cpp -mtune=generic -march=x86-64 -g -O0 -fpre-include=/usr/include/finclude/math-vector-fortran.h
REM seed 1034896355 1480115464 1422374408 -1758301334 128334580 1562024710 361936873 1682979202 1908786897 -241939222 1975665469 403117045 1823007481 2062185548 -970870892 1348995685 -1858743272 -1407948766 -1190965642 -1115713551 2016358426 1358210454 -1845221023 1565257102 -929923397 318117182 -1823027688 -1658782874 306136747 615082642 -1753919881 -1933324681 -480325687
REM
CELL 1.54180   50.00000   50.00000   50.00000   90.00000   90.00000   90.00000
LATT -1
SFAC C  
C      1  0.5398850000000  0.4260850000000  0.5865410000000 1.0
C      1  0.4601150000000  0.5739150000000  0.4134590000000 1.0
C      1  0.4609630000000  0.5950080000000  0.5121360000000 1.0
C      1  0.5390370000000  0.4049920000000  0.4878640000000 1.0
C      1  0.5246000000000  0.4234280000000  0.4733700000000 1.0
C      1  0.4754000000000  0.5765720000000  0.5266300000000 1.0
C      1  0.5517800000000  0.3688500000000  0.4549550000000 1.0
C      1  0.4482200000000  0.6311500000000  0.5450450000000 1.0
C      1  0.4926950000000  0.5618560000000  0.5420560000000 1.0
C      1  0.5073050000000  0.4381440000000  0.4579440000000 1.0
C      1  0.4328700000000  0.4427800000000  0.4512360000000 1.0
C      1  0.5671300000000  0.5572200000000  0.5487640000000 1.0
C      1  0.4617850000000  0.5924080000000  0.4847920000000 1.0
C      1  0.5382150000000  0.4075920000000  0.5152080000000 1.0
C      1  0.4403530000000  0.6402840000000  0.5209220000000 1.0
C      1  0.5596470000000  0.3597160000000  0.4790780000000 1.0
C      1  0.5162010000000  0.4617990000000  0.4449030000000 1.0
C      1  0.4837990000000  0.5382010000000  0.5550970000000 1.0
C      1  0.5455120000000  0.5747150000000  0.5389400000000 1.0
C      1  0.4544880000000  0.4252850000000  0.4610600000000 1.0
C      1  0.4686690000000  0.4765950000000  0.4840240000000 1.0
C      1  0.5313310000000  0.5234050000000  0.5159760000000 1.0
C      1  0.5592790000000  0.4881790000000  0.4593550000000 1.0
C      1  0.4407210000000  0.5118210000000  0.5406450000000 1.0
C      1  0.5005950000000  0.5245130000000  0.5701990000000 1.0
C      1  0.4994050000000  0.4754870000000  0.4298010000000 1.0
C      1  0.5379960000000  0.3780340000000  0.4780020000000 1.0
C      1  0.4620040000000  0.6219660000000  0.5219980000000 1.0
C      1  0.5849150000000  0.5218710000000  0.5182040000000 1.0
C      1  0.4150850000000  0.4781290000000  0.4817960000000 1.0
C      1  0.4579580000000  0.5383350000000  0.4448060000000 1.0
C      1  0.5420420000000  0.4616650000000  0.5551940000000 1.0
C      1  0.4609670000000  0.5906380000000  0.3642370000000 1.0
C      1  0.5390330000000  0.4093620000000  0.6357630000000 1.0
C      1  0.5825610000000  0.5487570000000  0.5250750000000 1.0
C      1  0.4174390000000  0.4512430000000  0.4749250000000 1.0
C      1  0.5516750000000  0.5324200000000  0.4759660000000 1.0
C      1  0.4483250000000  0.4675800000000  0.5240340000000 1.0
C      1  0.4583670000000  0.5287570000000  0.5510320000000 1.0
C      1  0.5416330000000  0.4712430000000  0.4489680000000 1.0
C      1  0.4810470000000  0.4303670000000  0.4555710000000 1.0
C      1  0.5189530000000  0.5696330000000  0.5444290000000 1.0
C      1  0.4596690000000  0.5651130000000  0.4393620000000 1.0
C      1  0.5403310000000  0.4348870000000  0.5606380000000 1.0
C      1  0.5716100000000  0.5009240000000  0.5044790000000 1.0
C      1  0.4283900000000  0.4990760000000  0.4955210000000 1.0
C      1  0.4609220000000  0.5830140000000  0.4600380000000 1.0
C      1  0.5390780000000  0.4169860000000  0.5399620000000 1.0
C      1  0.4600650000000  0.4561200000000  0.5012790000000 1.0
C      1  0.5399350000000  0.5438800000000  0.4987210000000 1.0
C      1  0.5434800000000  0.4833990000000  0.5401180000000 1.0
C      1  0.4565200000000  0.5166010000000  0.4598820000000 1.0
C      1  0.4326100000000  0.4910550000000  0.5241080000000 1.0
C      1  0.5673900000000  0.5089450000000  0.4758920000000 1.0
C      1  0.4605500000000  0.5824130000000  0.3884450000000 1.0
C      1  0.5394500000000  0.4175870000000  0.6115550000000 1.0
C      1  0.4420440000000  0.4358690000000  0.4879960000000 1.0
C      1  0.5579560000000  0.5641310000000  0.5120040000000 1.0
C      1  0.5443350000000  0.4983420000000  0.5168350000000 1.0
C      1  0.4556650000000  0.5016580000000  0.4831650000000 1.0
END
