TITL C-38195-9455-506 2.10757713933472e-08 125000 -365.170482405762 0 0 60 (Ci) n - 1
REM
REM in /home/bkarasulu/CARBON/AIRSS/Generating-Clusters/EDIP-Nigel-Params/Higher-Symm/Box-15A/Only-C60/SD-CG/FIRE-HFTN
REM
REM
REM
REM
REM
REM ./C.cell (414f73aa93bd7a1190c7fd0f31ff2f98)
REM
REM compiler GCC version 9.2.1 20190827 (Red Hat 9.2.1-1)
REM options -cpp -mtune=generic -march=x86-64 -g -O0 -fpre-include=/usr/include/finclude/math-vector-fortran.h
REM seed -913763659 -1415516656 -2031293764 -1957143370 1066824193 207910673 1957993312 -1656549735 -1320435646 -1039474744 -1686271550 -120727822 -207013071 -633587116 -2140742874 -2029366988 1194856054 -900369324 -212242345 273277167 -227957005 2110762284 1312384782 -1049881238 -1277993556 -353570619 -1613976540 1503324933 -2067457977 21396928 807179496 777475679 -357380029
REM
CELL 1.54180   50.00000   50.00000   50.00000   90.00000   90.00000   90.00000
LATT -1
SFAC C  
C      1  0.5147070000000  0.4301740000000  0.4887590000000 1.0
C      1  0.4852930000000  0.5698260000000  0.5112410000000 1.0
C      1  0.4691760000000  0.4872650000000  0.4432060000000 1.0
C      1  0.5308240000000  0.5127350000000  0.5567940000000 1.0
C      1  0.4784430000000  0.4646090000000  0.5389010000000 1.0
C      1  0.5215570000000  0.5353910000000  0.4610990000000 1.0
C      1  0.5148580000000  0.5179140000000  0.5330170000000 1.0
C      1  0.4851420000000  0.4820860000000  0.4669830000000 1.0
C      1  0.5253140000000  0.4392820000000  0.5469840000000 1.0
C      1  0.4746860000000  0.5607180000000  0.4530160000000 1.0
C      1  0.4948900000000  0.4367870000000  0.5088460000000 1.0
C      1  0.5051100000000  0.5632130000000  0.4911540000000 1.0
C      1  0.4360190000000  0.5003940000000  0.4754300000000 1.0
C      1  0.5639810000000  0.4996060000000  0.5245700000000 1.0
C      1  0.5111120000000  0.4998370000000  0.4313690000000 1.0
C      1  0.4888880000000  0.5001630000000  0.5686310000000 1.0
C      1  0.5623230000000  0.5168010000000  0.5002260000000 1.0
C      1  0.4376770000000  0.4831990000000  0.4997740000000 1.0
C      1  0.4872160000000  0.5143850000000  0.5426650000000 1.0
C      1  0.5127840000000  0.4856150000000  0.4573350000000 1.0
C      1  0.5607420000000  0.4729650000000  0.4742510000000 1.0
C      1  0.4392580000000  0.5270350000000  0.5257490000000 1.0
C      1  0.5187920000000  0.4967390000000  0.5112500000000 1.0
C      1  0.4812080000000  0.5032610000000  0.4887500000000 1.0
C      1  0.5507900000000  0.5423190000000  0.5043110000000 1.0
C      1  0.4492100000000  0.4576810000000  0.4956890000000 1.0
C      1  0.5211400000000  0.5719390000000  0.4489010000000 1.0
C      1  0.4788600000000  0.4280610000000  0.5510990000000 1.0
C      1  0.5411340000000  0.4347110000000  0.4969370000000 1.0
C      1  0.4588660000000  0.5652890000000  0.5030630000000 1.0
C      1  0.4820690000000  0.4914070000000  0.5196110000000 1.0
C      1  0.5179310000000  0.5085930000000  0.4803890000000 1.0
C      1  0.5163030000000  0.4954780000000  0.5746030000000 1.0
C      1  0.4836970000000  0.5045220000000  0.4253970000000 1.0
C      1  0.5431280000000  0.5665450000000  0.4659420000000 1.0
C      1  0.4568720000000  0.4334550000000  0.5340580000000 1.0
C      1  0.4466220000000  0.5400200000000  0.5012500000000 1.0
C      1  0.5533780000000  0.4599800000000  0.4987500000000 1.0
C      1  0.4687640000000  0.4786950000000  0.5637300000000 1.0
C      1  0.5312360000000  0.5213050000000  0.4362700000000 1.0
C      1  0.4650630000000  0.4373990000000  0.5069220000000 1.0
C      1  0.5349370000000  0.5626010000000  0.4930780000000 1.0
C      1  0.4747180000000  0.5411230000000  0.5483020000000 1.0
C      1  0.5252820000000  0.4588770000000  0.4516980000000 1.0
C      1  0.4464940000000  0.5413550000000  0.5489050000000 1.0
C      1  0.5535060000000  0.4586450000000  0.4510950000000 1.0
C      1  0.5609100000000  0.5020250000000  0.4740510000000 1.0
C      1  0.4390900000000  0.4979750000000  0.5259490000000 1.0
C      1  0.5582420000000  0.5114610000000  0.5495960000000 1.0
C      1  0.4417580000000  0.4885390000000  0.4504040000000 1.0
C      1  0.5026350000000  0.4281170000000  0.5355870000000 1.0
C      1  0.4973650000000  0.5718830000000  0.4644130000000 1.0
C      1  0.5111020000000  0.4371610000000  0.4621670000000 1.0
C      1  0.4888980000000  0.5628390000000  0.5378330000000 1.0
C      1  0.4440570000000  0.4869860000000  0.5516920000000 1.0
C      1  0.5559430000000  0.5130140000000  0.4483080000000 1.0
C      1  0.4561710000000  0.5216980000000  0.4802310000000 1.0
C      1  0.5438290000000  0.4783020000000  0.5197690000000 1.0
C      1  0.4613830000000  0.5377310000000  0.4569540000000 1.0
C      1  0.5386170000000  0.4622690000000  0.5430460000000 1.0
END
