TITL C-38184-643-279 1.26361397128417e-05 125000 -366.054377574827 0 0 60 (C2) n - 1
REM
REM in /home/bkarasulu/CARBON/AIRSS/Generating-Clusters/EDIP-Nigel-Params/Higher-Symm/Box-15A/Only-C60/SD-CG/FIRE-HFTN
REM
REM
REM
REM
REM
REM ./C.cell (414f73aa93bd7a1190c7fd0f31ff2f98)
REM
REM compiler GCC version 9.2.1 20190827 (Red Hat 9.2.1-1)
REM options -cpp -mtune=generic -march=x86-64 -g -O0 -fpre-include=/usr/include/finclude/math-vector-fortran.h
REM seed -50900807 1996552872 1138243192 735153957 -182160706 -1307504352 1448926107 -54209342 -2057300780 440144539 -1076907156 -429115289 -1868809098 741809724 -588695317 1441201772 1383974380 -922557482 -717133937 -1958440326 -1771323458 431852750 -728197966 1879137355 1336053876 -861841082 153238119 1987940081 -143463345 695362444 -46768147 1565538578 -1169297582
REM
CELL 1.54180   50.00000   50.00000   50.00000   90.00000   90.00000   90.00000
LATT -1
SFAC C  
C      1  0.4788910000000  0.4974370000000  0.4817190000000 1.0
C      1  0.5211090000000  0.4974370000000  0.5182810000000 1.0
C      1  0.4741680000000  0.4465230000000  0.4829520000000 1.0
C      1  0.5258320000000  0.4465230000000  0.5170480000000 1.0
C      1  0.4519250000000  0.4940590000000  0.5284430000000 1.0
C      1  0.5480750000000  0.4940590000000  0.4715570000000 1.0
C      1  0.4642760000000  0.4670210000000  0.5212340000000 1.0
C      1  0.5357240000000  0.4670210000000  0.4787660000000 1.0
C      1  0.5200590000000  0.4548230000000  0.4562140000000 1.0
C      1  0.4799410000000  0.4548230000000  0.5437860000000 1.0
C      1  0.5138870000000  0.5245570000000  0.5061080000000 1.0
C      1  0.4861130000000  0.5245570000000  0.4938920000000 1.0
C      1  0.5114330000000  0.4232590000000  0.5228630000000 1.0
C      1  0.4885670000000  0.4232590000000  0.4771370000000 1.0
C      1  0.5149060000000  0.4721280000000  0.5035400000000 1.0
C      1  0.4850940000000  0.4721280000000  0.4964600000000 1.0
C      1  0.4305970000000  0.5056840000000  0.5103440000000 1.0
C      1  0.5694030000000  0.5056840000000  0.4896560000000 1.0
C      1  0.4463630000000  0.4788750000000  0.4532370000000 1.0
C      1  0.5536370000000  0.4788750000000  0.5467630000000 1.0
C      1  0.4824090000000  0.5624990000000  0.4865730000000 1.0
C      1  0.5175910000000  0.5624990000000  0.5134270000000 1.0
C      1  0.5269610000000  0.5162140000000  0.5639270000000 1.0
C      1  0.4730390000000  0.5162140000000  0.4360730000000 1.0
C      1  0.5494400000000  0.4444250000000  0.4992670000000 1.0
C      1  0.4505600000000  0.4444250000000  0.5007330000000 1.0
C      1  0.5725060000000  0.4491830000000  0.5141020000000 1.0
C      1  0.4274940000000  0.4491830000000  0.4858980000000 1.0
C      1  0.4957040000000  0.5148710000000  0.4197790000000 1.0
C      1  0.5042960000000  0.5148710000000  0.5802210000000 1.0
C      1  0.4724180000000  0.4917380000000  0.4532390000000 1.0
C      1  0.5275820000000  0.4917380000000  0.5467610000000 1.0
C      1  0.4655980000000  0.5407250000000  0.4466770000000 1.0
C      1  0.5344020000000  0.5407250000000  0.5533230000000 1.0
C      1  0.5347350000000  0.5598630000000  0.4659040000000 1.0
C      1  0.4652650000000  0.5598630000000  0.5340960000000 1.0
C      1  0.5130090000000  0.4971300000000  0.4332330000000 1.0
C      1  0.4869910000000  0.4971300000000  0.5667670000000 1.0
C      1  0.4253330000000  0.4726920000000  0.4709650000000 1.0
C      1  0.5746670000000  0.4726920000000  0.5290350000000 1.0
C      1  0.4659010000000  0.5378100000000  0.5537390000000 1.0
C      1  0.5340990000000  0.5378100000000  0.4462610000000 1.0
C      1  0.5364880000000  0.5347100000000  0.4850300000000 1.0
C      1  0.4635120000000  0.5347100000000  0.5149700000000 1.0
C      1  0.4976220000000  0.4718720000000  0.5586820000000 1.0
C      1  0.5023780000000  0.4718720000000  0.4413180000000 1.0
C      1  0.4806710000000  0.5741720000000  0.5141860000000 1.0
C      1  0.5193290000000  0.5741720000000  0.4858140000000 1.0
C      1  0.5412950000000  0.5555900000000  0.5310640000000 1.0
C      1  0.4587050000000  0.5555900000000  0.4689360000000 1.0
C      1  0.4347980000000  0.5466700000000  0.4805730000000 1.0
C      1  0.5652020000000  0.5466700000000  0.5194270000000 1.0
C      1  0.4905030000000  0.4298690000000  0.5383130000000 1.0
C      1  0.5094970000000  0.4298690000000  0.4616870000000 1.0
C      1  0.4360540000000  0.5337380000000  0.5051560000000 1.0
C      1  0.5639460000000  0.5337380000000  0.4948440000000 1.0
C      1  0.4665690000000  0.5090780000000  0.5500730000000 1.0
C      1  0.5334310000000  0.5090780000000  0.4499270000000 1.0
C      1  0.4185580000000  0.4927830000000  0.4886650000000 1.0
C      1  0.5814420000000  0.4927830000000  0.5113350000000 1.0
END
