TITL C-38194-9318-198 4.02433818115972e-06 125000 -361.921019517565 0 0 60 (Ci) n - 1
REM
REM in /home/bkarasulu/CARBON/AIRSS/Generating-Clusters/EDIP-Nigel-Params/Higher-Symm/Box-15A/Only-C60/SD-CG/FIRE-HFTN
REM
REM
REM
REM
REM
REM ./C.cell (414f73aa93bd7a1190c7fd0f31ff2f98)
REM
REM compiler GCC version 9.2.1 20190827 (Red Hat 9.2.1-1)
REM options -cpp -mtune=generic -march=x86-64 -g -O0 -fpre-include=/usr/include/finclude/math-vector-fortran.h
REM seed -7574087 1800192081 -1107868147 595102161 -122899018 803396290 972407031 -1401339403 -1226888178 1128850969 -692537883 -33139682 847433820 -422067973 -1547728391 844411692 -801571453 -1457349289 2135031290 465238814 1407722983 -938410369 1204843054 -1271310171 1252392865 -40477870 55302496 1584699191 -968104765 22800315 153459788 775792022 -833763315
REM
CELL 1.54180   50.00000   50.00000   50.00000   90.00000   90.00000   90.00000
LATT -1
SFAC C  
C      1  0.5593010000000  0.5083060000000  0.5557400000000 1.0
C      1  0.4406990000000  0.4916940000000  0.4442600000000 1.0
C      1  0.4550840000000  0.5469540000000  0.4836360000000 1.0
C      1  0.5449160000000  0.4530460000000  0.5163640000000 1.0
C      1  0.5489160000000  0.4752210000000  0.4716930000000 1.0
C      1  0.4510840000000  0.5247790000000  0.5283070000000 1.0
C      1  0.5980360000000  0.4963850000000  0.5021030000000 1.0
C      1  0.4019640000000  0.5036150000000  0.4978970000000 1.0
C      1  0.4390630000000  0.5216100000000  0.4459660000000 1.0
C      1  0.5609370000000  0.4783900000000  0.5540340000000 1.0
C      1  0.5311050000000  0.5188770000000  0.5599370000000 1.0
C      1  0.4688950000000  0.4811230000000  0.4400630000000 1.0
C      1  0.5058040000000  0.4543450000000  0.4870390000000 1.0
C      1  0.4941960000000  0.5456550000000  0.5129610000000 1.0
C      1  0.5719630000000  0.4976010000000  0.5099780000000 1.0
C      1  0.4280370000000  0.5023990000000  0.4900220000000 1.0
C      1  0.4449100000000  0.4397100000000  0.4964630000000 1.0
C      1  0.5550900000000  0.5602900000000  0.5035370000000 1.0
C      1  0.4769110000000  0.5030920000000  0.5644150000000 1.0
C      1  0.5230890000000  0.4969080000000  0.4355850000000 1.0
C      1  0.5538390000000  0.5011700000000  0.4853330000000 1.0
C      1  0.4461610000000  0.4988300000000  0.5146670000000 1.0
C      1  0.5413800000000  0.4627190000000  0.5674190000000 1.0
C      1  0.4586200000000  0.5372810000000  0.4325810000000 1.0
C      1  0.4949250000000  0.4468050000000  0.4623410000000 1.0
C      1  0.5050750000000  0.5531950000000  0.5376590000000 1.0
C      1  0.4644850000000  0.5672720000000  0.4666500000000 1.0
C      1  0.5355150000000  0.4327280000000  0.5333500000000 1.0
C      1  0.4792730000000  0.4212940000000  0.5586100000000 1.0
C      1  0.5207270000000  0.5787060000000  0.4413900000000 1.0
C      1  0.5106210000000  0.4992770000000  0.5474190000000 1.0
C      1  0.4893790000000  0.5007230000000  0.4525810000000 1.0
C      1  0.4777960000000  0.4792430000000  0.5492600000000 1.0
C      1  0.5222040000000  0.5207570000000  0.4507400000000 1.0
C      1  0.4738250000000  0.5588670000000  0.4418570000000 1.0
C      1  0.5261750000000  0.4411330000000  0.5581430000000 1.0
C      1  0.4755310000000  0.4291760000000  0.5322990000000 1.0
C      1  0.5244690000000  0.5708240000000  0.4677010000000 1.0
C      1  0.5306560000000  0.5445370000000  0.5445680000000 1.0
C      1  0.4693440000000  0.4554630000000  0.4554320000000 1.0
C      1  0.5075430000000  0.5207740000000  0.4979850000000 1.0
C      1  0.4924570000000  0.4792260000000  0.5020150000000 1.0
C      1  0.4352380000000  0.5276610000000  0.4745320000000 1.0
C      1  0.5647620000000  0.4723390000000  0.5254680000000 1.0
C      1  0.5358360000000  0.4538390000000  0.4886350000000 1.0
C      1  0.4641640000000  0.5461610000000  0.5113650000000 1.0
C      1  0.5424550000000  0.5521830000000  0.4801510000000 1.0
C      1  0.4575450000000  0.4478170000000  0.5198490000000 1.0
C      1  0.5129360000000  0.4970430000000  0.5177100000000 1.0
C      1  0.4870640000000  0.5029570000000  0.4822900000000 1.0
C      1  0.5684330000000  0.5201640000000  0.5296390000000 1.0
C      1  0.4315670000000  0.4798360000000  0.4703610000000 1.0
C      1  0.4976420000000  0.4419530000000  0.5609230000000 1.0
C      1  0.5023580000000  0.5580470000000  0.4390770000000 1.0
C      1  0.4673550000000  0.4760330000000  0.5214210000000 1.0
C      1  0.5326450000000  0.5239670000000  0.4785790000000 1.0
C      1  0.5387650000000  0.4771010000000  0.4457210000000 1.0
C      1  0.4612350000000  0.5228990000000  0.5542790000000 1.0
C      1  0.5493840000000  0.5407940000000  0.5225920000000 1.0
C      1  0.4506160000000  0.4592060000000  0.4774080000000 1.0
END
