TITL C-38191-7580-257 1.75299547403579e-05 125000 -358.542338801569 0 0 60 (C1) n - 1
REM
REM in /home/bkarasulu/CARBON/AIRSS/Generating-Clusters/EDIP-Nigel-Params/Higher-Symm/Box-15A/Only-C60/SD-CG/FIRE-HFTN
REM
REM
REM
REM
REM
REM ./C.cell (414f73aa93bd7a1190c7fd0f31ff2f98)
REM
REM compiler GCC version 9.2.1 20190827 (Red Hat 9.2.1-1)
REM options -cpp -mtune=generic -march=x86-64 -g -O0 -fpre-include=/usr/include/finclude/math-vector-fortran.h
REM seed -872063528 -414119496 -937978902 -689409222 -1036608377 -1629706941 -909568840 2093728621 146195116 1038519026 2136620141 70563981 1006596881 1036952330 -1305940788 -1514196529 2099708803 290859079 -683687113 1719440128 555941791 174809588 1558932234 -951644529 1936137377 1330569919 529237130 1165763702 1131862381 1197821277 909541656 -88918424 1795226678
REM
CELL 1.54180   50.00000   50.00000   50.00000   90.00000   90.00000   90.00000
LATT -1
SFAC C  
C      1  0.4842660000000  0.4719870000000  0.4846420000000 1.0
C      1  0.4846560000000  0.4720860000000  0.5153720000000 1.0
C      1  0.4882140000000  0.4422920000000  0.5241910000000 1.0
C      1  0.4880230000000  0.4422050000000  0.4756890000000 1.0
C      1  0.5066890000000  0.4941790000000  0.5157980000000 1.0
C      1  0.5059120000000  0.4941030000000  0.4833490000000 1.0
C      1  0.4972370000000  0.4350440000000  0.4503760000000 1.0
C      1  0.4972850000000  0.4350810000000  0.5495440000000 1.0
C      1  0.5275130000000  0.5167310000000  0.5774560000000 1.0
C      1  0.5275750000000  0.5166990000000  0.4229200000000 1.0
C      1  0.4737200000000  0.5773460000000  0.5262580000000 1.0
C      1  0.4721620000000  0.5774360000000  0.4744910000000 1.0
C      1  0.5136480000000  0.5480800000000  0.5180730000000 1.0
C      1  0.5123390000000  0.5479530000000  0.4818870000000 1.0
C      1  0.4964090000000  0.5229620000000  0.5150250000000 1.0
C      1  0.4951550000000  0.5226540000000  0.4843670000000 1.0
C      1  0.5767490000000  0.4577340000000  0.5156240000000 1.0
C      1  0.5766180000000  0.4579200000000  0.4845630000000 1.0
C      1  0.4949600000000  0.5373580000000  0.5625930000000 1.0
C      1  0.4947480000000  0.5372720000000  0.4371930000000 1.0
C      1  0.5147960000000  0.4710800000000  0.4275000000000 1.0
C      1  0.5147180000000  0.4711370000000  0.5725300000000 1.0
C      1  0.4988230000000  0.5749750000000  0.5145940000000 1.0
C      1  0.4978410000000  0.5751320000000  0.4847950000000 1.0
C      1  0.5072190000000  0.4970630000000  0.4221620000000 1.0
C      1  0.5071250000000  0.4971280000000  0.5777780000000 1.0
C      1  0.5641860000000  0.4814100000000  0.5283090000000 1.0
C      1  0.5637340000000  0.4816300000000  0.4722230000000 1.0
C      1  0.5567670000000  0.5292820000000  0.4706190000000 1.0
C      1  0.5574380000000  0.5290410000000  0.5305020000000 1.0
C      1  0.4855420000000  0.5105120000000  0.5638530000000 1.0
C      1  0.4853640000000  0.5103960000000  0.4357640000000 1.0
C      1  0.5353600000000  0.5454570000000  0.4627090000000 1.0
C      1  0.5360840000000  0.5454950000000  0.5379660000000 1.0
C      1  0.4530560000000  0.4727120000000  0.4440210000000 1.0
C      1  0.4532140000000  0.4729380000000  0.5557100000000 1.0
C      1  0.4437930000000  0.4665290000000  0.5296190000000 1.0
C      1  0.4435680000000  0.4662890000000  0.4701110000000 1.0
C      1  0.5637780000000  0.5068800000000  0.5149480000000 1.0
C      1  0.5632010000000  0.5069580000000  0.4858810000000 1.0
C      1  0.4496300000000  0.5642770000000  0.4692780000000 1.0
C      1  0.4509920000000  0.5643650000000  0.5311240000000 1.0
C      1  0.4451270000000  0.5128860000000  0.4666710000000 1.0
C      1  0.4455080000000  0.5130660000000  0.5327950000000 1.0
C      1  0.5196470000000  0.4509310000000  0.4457930000000 1.0
C      1  0.5196570000000  0.4509670000000  0.5542910000000 1.0
C      1  0.4400540000000  0.5401740000000  0.5310250000000 1.0
C      1  0.4391670000000  0.5399030000000  0.4683600000000 1.0
C      1  0.4384370000000  0.4911060000000  0.5145850000000 1.0
C      1  0.4381880000000  0.4909730000000  0.4850070000000 1.0
C      1  0.4579280000000  0.4431640000000  0.5157080000000 1.0
C      1  0.4577310000000  0.4429560000000  0.4841590000000 1.0
C      1  0.5523140000000  0.4383420000000  0.5158610000000 1.0
C      1  0.5523140000000  0.4384130000000  0.4842650000000 1.0
C      1  0.5231760000000  0.5414050000000  0.5643420000000 1.0
C      1  0.5230170000000  0.5413440000000  0.4360440000000 1.0
C      1  0.5353370000000  0.4576790000000  0.5308410000000 1.0
C      1  0.5351830000000  0.4576670000000  0.4693630000000 1.0
C      1  0.4584210000000  0.5005190000000  0.4435580000000 1.0
C      1  0.4586850000000  0.5007020000000  0.5559230000000 1.0
END
