TITL C-38187-2739-528 0.00107373284867056 125000 -361.870041489694 0 0 60 (C1) n - 1
REM
REM in /home/bkarasulu/CARBON/AIRSS/Generating-Clusters/EDIP-Nigel-Params/Higher-Symm/Box-15A/Only-C60/SD-CG/FIRE-HFTN
REM
REM
REM
REM
REM
REM ./C.cell (414f73aa93bd7a1190c7fd0f31ff2f98)
REM
REM compiler GCC version 9.2.1 20190827 (Red Hat 9.2.1-1)
REM options -cpp -mtune=generic -march=x86-64 -g -O0 -fpre-include=/usr/include/finclude/math-vector-fortran.h
REM seed -1088971206 -1758290860 479957304 890717117 1030539647 -459618752 500306639 -1749725996 1314085804 1897214677 1281582442 -406102584 -1210006530 1938159177 614290148 856482909 1372970885 1218487716 -1962054492 -227039459 -1777746296 -1194928171 564672956 -572473588 209774815 1186773295 1283819411 -1667111563 1149822125 -2124334026 1036217001 800650550 -1284878856
REM
CELL 1.54180   50.00000   50.00000   50.00000   90.00000   90.00000   90.00000
LATT -1
SFAC C  
C      1  0.5543320000000  0.5223220000000  0.5384820000000 1.0
C      1  0.5298780000000  0.4891430000000  0.5128750000000 1.0
C      1  0.4917710000000  0.5296480000000  0.5245240000000 1.0
C      1  0.5165100000000  0.4926770000000  0.5771770000000 1.0
C      1  0.4878960000000  0.4810180000000  0.4974310000000 1.0
C      1  0.4513920000000  0.5289540000000  0.4526700000000 1.0
C      1  0.5139030000000  0.4310480000000  0.4717840000000 1.0
C      1  0.4691540000000  0.5492130000000  0.5202650000000 1.0
C      1  0.5153590000000  0.4890480000000  0.4878130000000 1.0
C      1  0.4425570000000  0.5877710000000  0.5367110000000 1.0
C      1  0.5389180000000  0.5503100000000  0.4650240000000 1.0
C      1  0.4243430000000  0.4976400000000  0.5102190000000 1.0
C      1  0.5169890000000  0.5389200000000  0.5078910000000 1.0
C      1  0.4332980000000  0.5221770000000  0.4998050000000 1.0
C      1  0.4666610000000  0.5752690000000  0.5322750000000 1.0
C      1  0.5403180000000  0.5167610000000  0.5118730000000 1.0
C      1  0.5361690000000  0.5340300000000  0.4421020000000 1.0
C      1  0.4788850000000  0.4322140000000  0.5240010000000 1.0
C      1  0.4706070000000  0.4990100000000  0.5653810000000 1.0
C      1  0.4748150000000  0.4838570000000  0.4476480000000 1.0
C      1  0.5239970000000  0.5087690000000  0.4443740000000 1.0
C      1  0.5636870000000  0.5121400000000  0.4815560000000 1.0
C      1  0.5445590000000  0.4427990000000  0.5302420000000 1.0
C      1  0.4467840000000  0.4839500000000  0.4363260000000 1.0
C      1  0.5796700000000  0.5000680000000  0.5032060000000 1.0
C      1  0.5503660000000  0.4662350000000  0.5129620000000 1.0
C      1  0.5084590000000  0.4515760000000  0.4306770000000 1.0
C      1  0.5081900000000  0.4518040000000  0.5102620000000 1.0
C      1  0.5607420000000  0.5433590000000  0.4835010000000 1.0
C      1  0.4423700000000  0.4567020000000  0.4973030000000 1.0
C      1  0.4827900000000  0.4996250000000  0.5206060000000 1.0
C      1  0.5330230000000  0.5422640000000  0.5510470000000 1.0
C      1  0.5723440000000  0.4818750000000  0.5240440000000 1.0
C      1  0.4937790000000  0.5078010000000  0.4415560000000 1.0
C      1  0.4413800000000  0.5408630000000  0.5209370000000 1.0
C      1  0.5570980000000  0.4937640000000  0.5484460000000 1.0
C      1  0.4971090000000  0.4423480000000  0.5454320000000 1.0
C      1  0.5272250000000  0.4318660000000  0.4974170000000 1.0
C      1  0.5037900000000  0.5319830000000  0.5525410000000 1.0
C      1  0.4857520000000  0.4562400000000  0.4467770000000 1.0
C      1  0.5445690000000  0.4667090000000  0.4573830000000 1.0
C      1  0.5372720000000  0.4931830000000  0.4667780000000 1.0
C      1  0.5254240000000  0.4516540000000  0.5506480000000 1.0
C      1  0.4382290000000  0.5101890000000  0.4358990000000 1.0
C      1  0.4559330000000  0.5180540000000  0.4803760000000 1.0
C      1  0.4795430000000  0.5338330000000  0.4444250000000 1.0
C      1  0.4866440000000  0.4426410000000  0.4727830000000 1.0
C      1  0.4646080000000  0.4889220000000  0.5400270000000 1.0
C      1  0.4680320000000  0.4420830000000  0.4974380000000 1.0
C      1  0.4367590000000  0.4746140000000  0.5200020000000 1.0
C      1  0.5284480000000  0.4447770000000  0.4495080000000 1.0
C      1  0.5140050000000  0.5513940000000  0.4799530000000 1.0
C      1  0.4919950000000  0.5508590000000  0.4628680000000 1.0
C      1  0.4288120000000  0.5662160000000  0.5265470000000 1.0
C      1  0.5579820000000  0.5574100000000  0.5087820000000 1.0
C      1  0.5337300000000  0.5589870000000  0.5245920000000 1.0
C      1  0.5307420000000  0.4805310000000  0.5563260000000 1.0
C      1  0.4648520000000  0.4888530000000  0.4765170000000 1.0
C      1  0.4398420000000  0.4714990000000  0.4723320000000 1.0
C      1  0.4957110000000  0.5105320000000  0.5716540000000 1.0
END
