TITL C-38184-643-124 -4.03117570111669e-06 125000 -365.909988051545 0 0 60 (C2) n - 1
REM
REM in /home/bkarasulu/CARBON/AIRSS/Generating-Clusters/EDIP-Nigel-Params/Higher-Symm/Box-15A/Only-C60/SD-CG/FIRE-HFTN
REM
REM
REM
REM
REM
REM ./C.cell (414f73aa93bd7a1190c7fd0f31ff2f98)
REM
REM compiler GCC version 9.2.1 20190827 (Red Hat 9.2.1-1)
REM options -cpp -mtune=generic -march=x86-64 -g -O0 -fpre-include=/usr/include/finclude/math-vector-fortran.h
REM seed -1774685142 929621404 -202639728 -1865998218 118512437 1856341863 -1489935652 -1422557285 540367029 -320640847 -44340691 1429783329 -1317945037 2070494478 1182071233 -187950683 -2110175650 1322438632 2107906152 1725405827 903629799 1496441233 -650141003 1088633660 1175807991 -829681900 751098405 -1045517489 -298702710 1127118210 1364758081 -287914003 48424332
REM
CELL 1.54180   50.00000   50.00000   50.00000   90.00000   90.00000   90.00000
LATT -1
SFAC C  
C      1  0.4995250000000  0.5862110000000  0.4769110000000 1.0
C      1  0.4832730000000  0.5794380000000  0.5114460000000 1.0
C      1  0.5102950000000  0.5847690000000  0.5035960000000 1.0
C      1  0.4995250000000  0.4137890000000  0.5230890000000 1.0
C      1  0.4832730000000  0.4205620000000  0.4885540000000 1.0
C      1  0.5102950000000  0.4152310000000  0.4964040000000 1.0
C      1  0.4532880000000  0.5510330000000  0.5379920000000 1.0
C      1  0.5526110000000  0.5545260000000  0.5228310000000 1.0
C      1  0.4966860000000  0.5580900000000  0.4329440000000 1.0
C      1  0.4532880000000  0.4489670000000  0.4620080000000 1.0
C      1  0.5526110000000  0.4454740000000  0.4771690000000 1.0
C      1  0.4966860000000  0.4419100000000  0.5670560000000 1.0
C      1  0.5087450000000  0.5129660000000  0.4236920000000 1.0
C      1  0.4385400000000  0.5082230000000  0.5279230000000 1.0
C      1  0.5511400000000  0.5111050000000  0.5420470000000 1.0
C      1  0.5087450000000  0.4870340000000  0.5763080000000 1.0
C      1  0.4385400000000  0.4917770000000  0.4720770000000 1.0
C      1  0.5511400000000  0.4888950000000  0.4579530000000 1.0
C      1  0.5263330000000  0.5593230000000  0.5072720000000 1.0
C      1  0.5054780000000  0.5612180000000  0.4625180000000 1.0
C      1  0.4804250000000  0.5562610000000  0.5283810000000 1.0
C      1  0.5263330000000  0.4406770000000  0.4927280000000 1.0
C      1  0.5054780000000  0.4387820000000  0.5374820000000 1.0
C      1  0.4804250000000  0.4437390000000  0.4716190000000 1.0
C      1  0.4784620000000  0.5196750000000  0.4606940000000 1.0
C      1  0.4840860000000  0.5115010000000  0.5434100000000 1.0
C      1  0.5381040000000  0.5149270000000  0.4960640000000 1.0
C      1  0.4784620000000  0.4803250000000  0.5393060000000 1.0
C      1  0.4840860000000  0.4884990000000  0.4565900000000 1.0
C      1  0.5381040000000  0.4850730000000  0.5039360000000 1.0
C      1  0.5336550000000  0.4728490000000  0.5666840000000 1.0
C      1  0.5321880000000  0.4718470000000  0.4427950000000 1.0
C      1  0.4350250000000  0.4729450000000  0.4946310000000 1.0
C      1  0.5336550000000  0.5271510000000  0.4333160000000 1.0
C      1  0.5321880000000  0.5281530000000  0.5572050000000 1.0
C      1  0.4350250000000  0.5270550000000  0.5053690000000 1.0
C      1  0.4455370000000  0.4808890000000  0.5210920000000 1.0
C      1  0.5453940000000  0.4828620000000  0.5412980000000 1.0
C      1  0.5055570000000  0.4852620000000  0.4345200000000 1.0
C      1  0.4455370000000  0.5191110000000  0.4789080000000 1.0
C      1  0.5453940000000  0.5171380000000  0.4587020000000 1.0
C      1  0.5055570000000  0.5147380000000  0.5654800000000 1.0
C      1  0.5584440000000  0.4744480000000  0.4832170000000 1.0
C      1  0.4552540000000  0.4775920000000  0.4516030000000 1.0
C      1  0.4846560000000  0.4697620000000  0.5684400000000 1.0
C      1  0.5584440000000  0.5255520000000  0.5167830000000 1.0
C      1  0.4552540000000  0.5224080000000  0.5483970000000 1.0
C      1  0.4846560000000  0.5302380000000  0.4315600000000 1.0
C      1  0.5331690000000  0.4452740000000  0.4549440000000 1.0
C      1  0.4354770000000  0.4465390000000  0.4844750000000 1.0
C      1  0.5262990000000  0.4449320000000  0.5697700000000 1.0
C      1  0.5331690000000  0.5547260000000  0.5450560000000 1.0
C      1  0.4354770000000  0.5534610000000  0.5155250000000 1.0
C      1  0.5262990000000  0.5550680000000  0.4302300000000 1.0
C      1  0.4919010000000  0.4698510000000  0.4785530000000 1.0
C      1  0.4977920000000  0.4633440000000  0.5239560000000 1.0
C      1  0.5126620000000  0.4672000000000  0.4993360000000 1.0
C      1  0.4919010000000  0.5301490000000  0.5214470000000 1.0
C      1  0.4977920000000  0.5366560000000  0.4760440000000 1.0
C      1  0.5126620000000  0.5328000000000  0.5006640000000 1.0
END
