TITL C-38194-9318-139 4.74648728226864e-06 125000 -342.318991757017 0 0 60 (Td) n - 1
REM
REM in /home/bkarasulu/CARBON/AIRSS/Generating-Clusters/EDIP-Nigel-Params/Higher-Symm/Box-15A/Only-C60/SD-CG/FIRE-HFTN
REM
REM
REM
REM
REM
REM ./C.cell (414f73aa93bd7a1190c7fd0f31ff2f98)
REM
REM compiler GCC version 9.2.1 20190827 (Red Hat 9.2.1-1)
REM options -cpp -mtune=generic -march=x86-64 -g -O0 -fpre-include=/usr/include/finclude/math-vector-fortran.h
REM seed -74924481 574481639 659488819 -1884968365 -1465721057 -873298342 917381400 497499144 738153264 -1291153701 1661520773 -50488077 1316860060 -566615620 624629727 1007020716 1777041872 -586629924 -1552345094 1936353968 -2047555072 144601205 1722245067 -1220088886 826933041 1194084260 221954222 1624734229 1450847111 -1238941126 76926155 919786060 -1642570558
REM
CELL 1.54180   50.00000   50.00000   50.00000   90.00000   90.00000   90.00000
LATT -1
SFAC C  
C      1  0.5021240000000  0.5562840000000  0.5363860000000 1.0
C      1  0.5363860000000  0.5021240000000  0.5562840000000 1.0
C      1  0.5562840000000  0.5363860000000  0.5021240000000 1.0
C      1  0.4978760000000  0.5562840000000  0.4636140000000 1.0
C      1  0.5021240000000  0.4437160000000  0.4636140000000 1.0
C      1  0.4978760000000  0.4437160000000  0.5363860000000 1.0
C      1  0.4636140000000  0.5021240000000  0.4437160000000 1.0
C      1  0.5363860000000  0.4978760000000  0.4437160000000 1.0
C      1  0.4636140000000  0.4978760000000  0.5562840000000 1.0
C      1  0.4437160000000  0.5363860000000  0.4978760000000 1.0
C      1  0.5562840000000  0.4636140000000  0.4978760000000 1.0
C      1  0.4437160000000  0.4636140000000  0.5021240000000 1.0
C      1  0.5363860000000  0.5562840000000  0.5021240000000 1.0
C      1  0.5562840000000  0.5021240000000  0.5363860000000 1.0
C      1  0.5021240000000  0.5363860000000  0.5562840000000 1.0
C      1  0.4636140000000  0.5562840000000  0.4978760000000 1.0
C      1  0.4636140000000  0.4437160000000  0.5021240000000 1.0
C      1  0.5363860000000  0.4437160000000  0.4978760000000 1.0
C      1  0.4437160000000  0.5021240000000  0.4636140000000 1.0
C      1  0.4437160000000  0.4978760000000  0.5363860000000 1.0
C      1  0.5562840000000  0.4978760000000  0.4636140000000 1.0
C      1  0.4978760000000  0.5363860000000  0.4437160000000 1.0
C      1  0.4978760000000  0.4636140000000  0.5562840000000 1.0
C      1  0.5021240000000  0.4636140000000  0.4437160000000 1.0
C      1  0.4564600000000  0.5702140000000  0.5232400000000 1.0
C      1  0.5232400000000  0.4564600000000  0.5702140000000 1.0
C      1  0.5702140000000  0.5232400000000  0.4564600000000 1.0
C      1  0.5435400000000  0.5702140000000  0.4767600000000 1.0
C      1  0.4564600000000  0.4297860000000  0.4767600000000 1.0
C      1  0.5435400000000  0.4297860000000  0.5232400000000 1.0
C      1  0.4767600000000  0.4564600000000  0.4297860000000 1.0
C      1  0.5232400000000  0.5435400000000  0.4297860000000 1.0
C      1  0.4767600000000  0.5435400000000  0.5702140000000 1.0
C      1  0.4297860000000  0.5232400000000  0.5435400000000 1.0
C      1  0.5702140000000  0.4767600000000  0.5435400000000 1.0
C      1  0.4297860000000  0.4767600000000  0.4564600000000 1.0
C      1  0.5232400000000  0.5702140000000  0.4564600000000 1.0
C      1  0.5702140000000  0.4564600000000  0.5232400000000 1.0
C      1  0.4564600000000  0.5232400000000  0.5702140000000 1.0
C      1  0.4767600000000  0.5702140000000  0.5435400000000 1.0
C      1  0.4767600000000  0.4297860000000  0.4564600000000 1.0
C      1  0.5232400000000  0.4297860000000  0.5435400000000 1.0
C      1  0.4297860000000  0.4564600000000  0.4767600000000 1.0
C      1  0.4297860000000  0.5435400000000  0.5232400000000 1.0
C      1  0.5702140000000  0.5435400000000  0.4767600000000 1.0
C      1  0.5435400000000  0.5232400000000  0.4297860000000 1.0
C      1  0.5435400000000  0.4767600000000  0.5702140000000 1.0
C      1  0.4564600000000  0.4767600000000  0.4297860000000 1.0
C      1  0.4687130000000  0.5589760000000  0.4687130000000 1.0
C      1  0.5312870000000  0.4410240000000  0.4687130000000 1.0
C      1  0.4687130000000  0.4687130000000  0.5589760000000 1.0
C      1  0.5589760000000  0.4687130000000  0.4687130000000 1.0
C      1  0.5312870000000  0.4687130000000  0.4410240000000 1.0
C      1  0.4687130000000  0.5312870000000  0.4410240000000 1.0
C      1  0.5312870000000  0.5312870000000  0.5589760000000 1.0
C      1  0.4410240000000  0.4687130000000  0.5312870000000 1.0
C      1  0.5589760000000  0.5312870000000  0.5312870000000 1.0
C      1  0.4410240000000  0.5312870000000  0.4687130000000 1.0
C      1  0.5312870000000  0.5589760000000  0.5312870000000 1.0
C      1  0.4687130000000  0.4410240000000  0.5312870000000 1.0
END
