TITL C-38197-8510-649 -1.83914926999575e-05 125000 -361.181779786563 0 0 60 (Ci) n - 1
REM
REM in /home/bkarasulu/CARBON/AIRSS/Generating-Clusters/EDIP-Nigel-Params/Higher-Symm/Box-15A/Only-C60/SD-CG/FIRE-HFTN
REM
REM
REM
REM
REM
REM ./C.cell (414f73aa93bd7a1190c7fd0f31ff2f98)
REM
REM compiler GCC version 9.2.1 20190827 (Red Hat 9.2.1-1)
REM options -cpp -mtune=generic -march=x86-64 -g -O0 -fpre-include=/usr/include/finclude/math-vector-fortran.h
REM seed -1396922911 553513444 -1632740239 1926535431 -1598849692 827479286 -1393028670 151405196 -1427603398 1778460850 -307116447 2096396143 -1077007389 1805203200 -869711267 1911604357 -996354659 901074966 -600456155 -2063069263 -790825092 -590308292 1024281531 1217798118 -493103282 126268580 262562401 1377208364 1009092375 1760262425 1547673211 -932785529 32049559
REM
CELL 1.54180   50.00000   50.00000   50.00000   90.00000   90.00000   90.00000
LATT -1
SFAC C  
C      1  0.5152340000000  0.4661030000000  0.5595070000000 1.0
C      1  0.4847660000000  0.5338970000000  0.4404930000000 1.0
C      1  0.5884120000000  0.5595900000000  0.4869540000000 1.0
C      1  0.4115880000000  0.4404100000000  0.5130460000000 1.0
C      1  0.5014190000000  0.4529950000000  0.4834350000000 1.0
C      1  0.4985810000000  0.5470050000000  0.5165650000000 1.0
C      1  0.5657840000000  0.4280780000000  0.4916420000000 1.0
C      1  0.4342160000000  0.5719220000000  0.5083580000000 1.0
C      1  0.4815830000000  0.5690120000000  0.5170780000000 1.0
C      1  0.5184170000000  0.4309880000000  0.4829220000000 1.0
C      1  0.5684470000000  0.4739760000000  0.5113300000000 1.0
C      1  0.4315530000000  0.5260240000000  0.4886700000000 1.0
C      1  0.4611790000000  0.4572320000000  0.5339470000000 1.0
C      1  0.5388210000000  0.5427680000000  0.4660530000000 1.0
C      1  0.5437780000000  0.4972740000000  0.5191270000000 1.0
C      1  0.4562220000000  0.5027260000000  0.4808730000000 1.0
C      1  0.4206450000000  0.4949660000000  0.5245640000000 1.0
C      1  0.5793550000000  0.5050340000000  0.4754360000000 1.0
C      1  0.4589420000000  0.5420400000000  0.4458800000000 1.0
C      1  0.5410580000000  0.4579600000000  0.5541200000000 1.0
C      1  0.5119650000000  0.4942320000000  0.5179680000000 1.0
C      1  0.4880350000000  0.5057680000000  0.4820320000000 1.0
C      1  0.4817740000000  0.5857700000000  0.4944710000000 1.0
C      1  0.5182260000000  0.4142300000000  0.5055290000000 1.0
C      1  0.5432180000000  0.4378350000000  0.5336370000000 1.0
C      1  0.4567820000000  0.5621650000000  0.4663630000000 1.0
C      1  0.4583270000000  0.5227070000000  0.5582230000000 1.0
C      1  0.5416730000000  0.4772930000000  0.4417770000000 1.0
C      1  0.5457410000000  0.4382400000000  0.4743000000000 1.0
C      1  0.4542590000000  0.5617600000000  0.5257000000000 1.0
C      1  0.4364400000000  0.5555970000000  0.4855190000000 1.0
C      1  0.5635600000000  0.4444030000000  0.5144810000000 1.0
C      1  0.4497850000000  0.5335330000000  0.5328140000000 1.0
C      1  0.5502150000000  0.4664670000000  0.4671860000000 1.0
C      1  0.5845550000000  0.5319300000000  0.4808620000000 1.0
C      1  0.4154450000000  0.4680700000000  0.5191380000000 1.0
C      1  0.4530060000000  0.4954860000000  0.5610780000000 1.0
C      1  0.5469940000000  0.5045140000000  0.4389220000000 1.0
C      1  0.4278840000000  0.5209350000000  0.5181550000000 1.0
C      1  0.5721160000000  0.4790650000000  0.4818450000000 1.0
C      1  0.5626590000000  0.5522450000000  0.4768120000000 1.0
C      1  0.4373410000000  0.4477550000000  0.5231880000000 1.0
C      1  0.5611640000000  0.4793680000000  0.5491500000000 1.0
C      1  0.4388360000000  0.5206320000000  0.4508500000000 1.0
C      1  0.4956770000000  0.4891330000000  0.4356950000000 1.0
C      1  0.5043230000000  0.5108670000000  0.5643050000000 1.0
C      1  0.5309570000000  0.5179310000000  0.5634910000000 1.0
C      1  0.4690430000000  0.4820690000000  0.4365090000000 1.0
C      1  0.5289970000000  0.5211870000000  0.4521200000000 1.0
C      1  0.4710030000000  0.4788130000000  0.5478800000000 1.0
C      1  0.4997750000000  0.4868690000000  0.5474290000000 1.0
C      1  0.5002250000000  0.5131310000000  0.4525710000000 1.0
C      1  0.5004530000000  0.5211310000000  0.5066140000000 1.0
C      1  0.4995470000000  0.4788690000000  0.4933860000000 1.0
C      1  0.4837930000000  0.5294940000000  0.5674120000000 1.0
C      1  0.5162070000000  0.4705060000000  0.4325880000000 1.0
C      1  0.4725080000000  0.5853990000000  0.4689130000000 1.0
C      1  0.5274920000000  0.4146010000000  0.5310870000000 1.0
C      1  0.5513760000000  0.5084900000000  0.5470350000000 1.0
C      1  0.4486240000000  0.4915100000000  0.4529650000000 1.0
END
