TITL C-38189-4514-141 1.29682442558765e-06 125000 -363.952008842497 0 0 60 (D5d) n - 1
REM
REM in /home/bkarasulu/CARBON/AIRSS/Generating-Clusters/EDIP-Nigel-Params/Higher-Symm/Box-15A/Only-C60/SD-CG/FIRE-HFTN
REM
REM
REM
REM
REM
REM ./C.cell (414f73aa93bd7a1190c7fd0f31ff2f98)
REM
REM compiler GCC version 9.2.1 20190827 (Red Hat 9.2.1-1)
REM options -cpp -mtune=generic -march=x86-64 -g -O0 -fpre-include=/usr/include/finclude/math-vector-fortran.h
REM seed 1669035503 -521042009 752473718 -1344217923 126633886 -117438661 -1554548193 -867210439 -125232435 -585216893 574697867 20541520 -1799495946 -1980146370 1662209491 677997156 -1708895212 -1003183020 1556437037 702521872 -232884982 80617475 -422855124 858678954 -836827600 503161973 1226514429 -302997756 2085334556 -1785626018 -69025302 -1606987808 487980935
REM
CELL 1.54180   50.00000   50.00000   50.00000   90.00000   90.00000   90.00000
LATT -1
SFAC C  
C      1  0.4852630000000  0.5399480000000  0.4405510000000 1.0
C      1  0.5147380000000  0.5672620000000  0.4753860000000 1.0
C      1  0.4852620000000  0.5688840000000  0.5196220000000 1.0
C      1  0.5147380000000  0.5441950000000  0.5563640000000 1.0
C      1  0.4852620000000  0.5026250000000  0.5715760000000 1.0
C      1  0.5147370000000  0.4600520000000  0.5594490000000 1.0
C      1  0.4852620000000  0.4327380000000  0.5246140000000 1.0
C      1  0.5147380000000  0.4311160000000  0.4803780000000 1.0
C      1  0.4852620000000  0.4558050000000  0.4436360000000 1.0
C      1  0.5147380000000  0.4973750000000  0.4284240000000 1.0
C      1  0.5000000000000  0.5761390000000  0.4972080000000 1.0
C      1  0.5000000000000  0.5632390000000  0.5424940000000 1.0
C      1  0.5000000000000  0.5261830000000  0.5715490000000 1.0
C      1  0.5000000000000  0.4791270000000  0.5732750000000 1.0
C      1  0.5000000000000  0.4400440000000  0.5470120000000 1.0
C      1  0.5000000000000  0.4238610000000  0.5027920000000 1.0
C      1  0.5000000000000  0.4367610000000  0.4575060000000 1.0
C      1  0.5000000000000  0.4738170000000  0.4284510000000 1.0
C      1  0.5000000000000  0.5208730000000  0.4267250000000 1.0
C      1  0.5000000000000  0.5599560000000  0.4529880000000 1.0
C      1  0.4305170000000  0.4756920000000  0.4930750000000 1.0
C      1  0.5694830000000  0.4844040000000  0.4801100000000 1.0
C      1  0.4305170000000  0.4990740000000  0.4747420000000 1.0
C      1  0.5694830000000  0.5140970000000  0.4790220000000 1.0
C      1  0.4305170000000  0.5237360000000  0.4913140000000 1.0
C      1  0.5694830000000  0.5243080000000  0.5069250000000 1.0
C      1  0.4305170000000  0.5155960000000  0.5198900000000 1.0
C      1  0.5694830000000  0.5009260000000  0.5252580000000 1.0
C      1  0.4305170000000  0.4859030000000  0.5209780000000 1.0
C      1  0.5694830000000  0.4762640000000  0.5086860000000 1.0
C      1  0.4600170000000  0.4469760000000  0.5194040000000 1.0
C      1  0.5399820000000  0.4456970000000  0.4845320000000 1.0
C      1  0.4600180000000  0.4651610000000  0.4555670000000 1.0
C      1  0.5399830000000  0.4979310000000  0.4435750000000 1.0
C      1  0.4600180000000  0.5314920000000  0.4531350000000 1.0
C      1  0.5399830000000  0.5530240000000  0.4805960000000 1.0
C      1  0.4600180000000  0.5543030000000  0.5154680000000 1.0
C      1  0.5399820000000  0.5348390000000  0.5444330000000 1.0
C      1  0.4600170000000  0.5020690000000  0.5564250000000 1.0
C      1  0.5399820000000  0.4685080000000  0.5468650000000 1.0
C      1  0.5453920000000  0.5245580000000  0.4634530000000 1.0
C      1  0.4546080000000  0.5413500000000  0.4848680000000 1.0
C      1  0.5453920000000  0.5423470000000  0.5120630000000 1.0
C      1  0.4546080000000  0.5271690000000  0.5346500000000 1.0
C      1  0.5453920000000  0.5016130000000  0.5440020000000 1.0
C      1  0.4546080000000  0.4754420000000  0.5365470000000 1.0
C      1  0.5453920000000  0.4586500000000  0.5151320000000 1.0
C      1  0.4546080000000  0.4576530000000  0.4879370000000 1.0
C      1  0.5453920000000  0.4728310000000  0.4653500000000 1.0
C      1  0.4546080000000  0.4983870000000  0.4559980000000 1.0
C      1  0.5193440000000  0.5009460000000  0.5257980000000 1.0
C      1  0.4806560000000  0.4856020000000  0.5214270000000 1.0
C      1  0.5193440000000  0.4757570000000  0.5088720000000 1.0
C      1  0.4806560000000  0.4751720000000  0.4929280000000 1.0
C      1  0.5193440000000  0.4840710000000  0.4796850000000 1.0
C      1  0.4806560000000  0.4990540000000  0.4742020000000 1.0
C      1  0.5193440000000  0.5143980000000  0.4785730000000 1.0
C      1  0.4806560000000  0.5242430000000  0.4911280000000 1.0
C      1  0.5193440000000  0.5248280000000  0.5070720000000 1.0
C      1  0.4806560000000  0.5159290000000  0.5203150000000 1.0
END
