TITL C-38184-643-504 0.000868484646027069 125000 -355.098714304004 0 0 60 (C2) n - 1
REM
REM in /home/bkarasulu/CARBON/AIRSS/Generating-Clusters/EDIP-Nigel-Params/Higher-Symm/Box-15A/Only-C60/SD-CG/FIRE-HFTN
REM
REM
REM
REM
REM
REM ./C.cell (414f73aa93bd7a1190c7fd0f31ff2f98)
REM
REM compiler GCC version 9.2.1 20190827 (Red Hat 9.2.1-1)
REM options -cpp -mtune=generic -march=x86-64 -g -O0 -fpre-include=/usr/include/finclude/math-vector-fortran.h
REM seed 1340547572 -386607374 1516884222 174504220 -117774981 184988200 1020679751 1796394828 -146023145 2032159144 -1839781957 -306861550 -1679243039 315737572 -791313974 -825112853 -2107718095 -131787851 -1469180207 1488436643 44028434 -1027982089 1386613268 1452492595 1130574840 2039172598 -1470304202 862297868 -1227413719 1064427310 176885064 777358816 -678642639
REM
CELL 1.54180   50.00000   50.00000   50.00000   90.00000   90.00000   90.00000
LATT -1
SFAC C  
C      1  0.5177180000000  0.5623050000000  0.4589780000000 1.0
C      1  0.4822820000000  0.4376950000000  0.4589780000000 1.0
C      1  0.4409110000000  0.4353250000000  0.5209360000000 1.0
C      1  0.5590890000000  0.5646750000000  0.5209360000000 1.0
C      1  0.5251290000000  0.5392960000000  0.4454690000000 1.0
C      1  0.4748710000000  0.4607040000000  0.4454690000000 1.0
C      1  0.4455450000000  0.4830660000000  0.5367130000000 1.0
C      1  0.5544550000000  0.5169340000000  0.5367130000000 1.0
C      1  0.4328770000000  0.4758590000000  0.4667190000000 1.0
C      1  0.5671230000000  0.5241410000000  0.4667190000000 1.0
C      1  0.5266980000000  0.5063020000000  0.5113810000000 1.0
C      1  0.4733020000000  0.4936980000000  0.5113810000000 1.0
C      1  0.4341250000000  0.4083690000000  0.5266440000000 1.0
C      1  0.5658750000000  0.5916310000000  0.5266440000000 1.0
C      1  0.4199830000000  0.5204770000000  0.5134020000000 1.0
C      1  0.5800170000000  0.4795230000000  0.5134020000000 1.0
C      1  0.4526730000000  0.5247820000000  0.4909150000000 1.0
C      1  0.5473270000000  0.4752180000000  0.4909150000000 1.0
C      1  0.4715460000000  0.4964360000000  0.5502770000000 1.0
C      1  0.5284540000000  0.5035640000000  0.5502770000000 1.0
C      1  0.5256330000000  0.5504680000000  0.5533480000000 1.0
C      1  0.4743670000000  0.4495320000000  0.5533480000000 1.0
C      1  0.4575030000000  0.5316160000000  0.4622310000000 1.0
C      1  0.5424970000000  0.4683840000000  0.4622310000000 1.0
C      1  0.5161480000000  0.4757820000000  0.5518910000000 1.0
C      1  0.4838520000000  0.5242180000000  0.5518910000000 1.0
C      1  0.5095600000000  0.4893520000000  0.4309990000000 1.0
C      1  0.4904400000000  0.5106480000000  0.4309990000000 1.0
C      1  0.4934900000000  0.4762650000000  0.4961280000000 1.0
C      1  0.5065100000000  0.5237350000000  0.4961280000000 1.0
C      1  0.4930170000000  0.5693400000000  0.4697480000000 1.0
C      1  0.5069830000000  0.4306600000000  0.4697480000000 1.0
C      1  0.5340080000000  0.4915280000000  0.4464960000000 1.0
C      1  0.4659920000000  0.5084720000000  0.4464960000000 1.0
C      1  0.5119750000000  0.5264130000000  0.5585070000000 1.0
C      1  0.4880250000000  0.4735870000000  0.5585070000000 1.0
C      1  0.5852980000000  0.5751410000000  0.5178180000000 1.0
C      1  0.4147020000000  0.4248590000000  0.5178180000000 1.0
C      1  0.5211950000000  0.4764260000000  0.5082640000000 1.0
C      1  0.4788050000000  0.5235740000000  0.5082640000000 1.0
C      1  0.4962280000000  0.4842200000000  0.4670180000000 1.0
C      1  0.5037720000000  0.5157800000000  0.4670180000000 1.0
C      1  0.4325660000000  0.5423590000000  0.5027820000000 1.0
C      1  0.5674340000000  0.4576410000000  0.5027820000000 1.0
C      1  0.4717220000000  0.5553370000000  0.4586930000000 1.0
C      1  0.5282780000000  0.4446630000000  0.4586930000000 1.0
C      1  0.4559090000000  0.4813700000000  0.4521850000000 1.0
C      1  0.5440910000000  0.5186300000000  0.4521850000000 1.0
C      1  0.4296810000000  0.4938860000000  0.5128590000000 1.0
C      1  0.5703190000000  0.5061140000000  0.5128590000000 1.0
C      1  0.4914150000000  0.5731520000000  0.4972270000000 1.0
C      1  0.5085850000000  0.4268480000000  0.4972270000000 1.0
C      1  0.5158230000000  0.4353660000000  0.5216740000000 1.0
C      1  0.4841770000000  0.5646340000000  0.5216740000000 1.0
C      1  0.5775100000000  0.5217770000000  0.4911380000000 1.0
C      1  0.4224900000000  0.4782230000000  0.4911380000000 1.0
C      1  0.4717340000000  0.5464470000000  0.5383000000000 1.0
C      1  0.5282660000000  0.4535530000000  0.5383000000000 1.0
C      1  0.4492910000000  0.4538270000000  0.5412620000000 1.0
C      1  0.5507090000000  0.5461730000000  0.5412620000000 1.0
END
