TITL C-38189-4514-478 4.88135530381408e-06 125000 -363.181044120594 0 0 60 (C2) n - 1
REM
REM in /home/bkarasulu/CARBON/AIRSS/Generating-Clusters/EDIP-Nigel-Params/Higher-Symm/Box-15A/Only-C60/SD-CG/FIRE-HFTN
REM
REM
REM
REM
REM
REM ./C.cell (414f73aa93bd7a1190c7fd0f31ff2f98)
REM
REM compiler GCC version 9.2.1 20190827 (Red Hat 9.2.1-1)
REM options -cpp -mtune=generic -march=x86-64 -g -O0 -fpre-include=/usr/include/finclude/math-vector-fortran.h
REM seed -3923504 -12887143 1218499111 1571614655 -1503806090 695617155 -776624841 1676290053 -213041661 -872479689 1252187713 -1926533113 -1665406449 -22607866 2097669305 800738111 1896060773 163974829 -567399116 63900728 -1700164640 -1078573373 -1021596622 430427867 407527614 278501491 1477314189 1989595380 1489857668 2137385224 249891583 1916562347 228555451
REM
CELL 1.54180   50.00000   50.00000   50.00000   90.00000   90.00000   90.00000
LATT -1
SFAC C  
C      1  0.4998490000000  0.4773050000000  0.5608940000000 1.0
C      1  0.5001510000000  0.4773050000000  0.4391060000000 1.0
C      1  0.4723590000000  0.5475510000000  0.4912130000000 1.0
C      1  0.5276410000000  0.5475510000000  0.5087870000000 1.0
C      1  0.4777670000000  0.5627050000000  0.4656150000000 1.0
C      1  0.5222330000000  0.5627050000000  0.5343850000000 1.0
C      1  0.4973260000000  0.5149830000000  0.5332020000000 1.0
C      1  0.5026740000000  0.5149830000000  0.4667980000000 1.0
C      1  0.5097810000000  0.4855910000000  0.4670280000000 1.0
C      1  0.4902190000000  0.4855910000000  0.5329720000000 1.0
C      1  0.4517470000000  0.4926670000000  0.5566190000000 1.0
C      1  0.5482530000000  0.4926670000000  0.4433810000000 1.0
C      1  0.4604210000000  0.4492570000000  0.5308770000000 1.0
C      1  0.5395790000000  0.4492570000000  0.4691230000000 1.0
C      1  0.4556680000000  0.4634450000000  0.4680070000000 1.0
C      1  0.5443320000000  0.4634450000000  0.5319930000000 1.0
C      1  0.4678370000000  0.4444700000000  0.4509770000000 1.0
C      1  0.5321630000000  0.4444700000000  0.5490230000000 1.0
C      1  0.4609630000000  0.4790550000000  0.5321270000000 1.0
C      1  0.5390370000000  0.4790550000000  0.4678730000000 1.0
C      1  0.5240260000000  0.4923920000000  0.4242720000000 1.0
C      1  0.4759740000000  0.4923920000000  0.5757280000000 1.0
C      1  0.5101270000000  0.5232320000000  0.5097180000000 1.0
C      1  0.4898730000000  0.5232320000000  0.4902820000000 1.0
C      1  0.4357210000000  0.4551630000000  0.4874790000000 1.0
C      1  0.5642790000000  0.4551630000000  0.5125210000000 1.0
C      1  0.5035700000000  0.4644880000000  0.5143180000000 1.0
C      1  0.4964300000000  0.4644880000000  0.4856820000000 1.0
C      1  0.5048610000000  0.4470000000000  0.5551730000000 1.0
C      1  0.4951390000000  0.4470000000000  0.4448270000000 1.0
C      1  0.5464230000000  0.4908820000000  0.5420490000000 1.0
C      1  0.4535770000000  0.4908820000000  0.4579510000000 1.0
C      1  0.4896670000000  0.4411700000000  0.5296730000000 1.0
C      1  0.5103330000000  0.4411700000000  0.4703270000000 1.0
C      1  0.5545930000000  0.5210720000000  0.4503470000000 1.0
C      1  0.4454070000000  0.5210720000000  0.5496530000000 1.0
C      1  0.5253880000000  0.4961960000000  0.5626050000000 1.0
C      1  0.4746120000000  0.4961960000000  0.4373950000000 1.0
C      1  0.5816920000000  0.4743390000000  0.5066440000000 1.0
C      1  0.4183080000000  0.4743390000000  0.4933560000000 1.0
C      1  0.5557310000000  0.5120200000000  0.5251480000000 1.0
C      1  0.4442690000000  0.5120200000000  0.4748520000000 1.0
C      1  0.4465610000000  0.5323930000000  0.4945220000000 1.0
C      1  0.5534390000000  0.5323930000000  0.5054780000000 1.0
C      1  0.4754400000000  0.5470050000000  0.4426430000000 1.0
C      1  0.5245600000000  0.5470050000000  0.5573570000000 1.0
C      1  0.5586190000000  0.5263300000000  0.4782240000000 1.0
C      1  0.4413810000000  0.5263300000000  0.5217760000000 1.0
C      1  0.4969530000000  0.5742090000000  0.5309710000000 1.0
C      1  0.5030470000000  0.5742090000000  0.4690290000000 1.0
C      1  0.5095790000000  0.5222020000000  0.5591420000000 1.0
C      1  0.4904210000000  0.5222020000000  0.4408580000000 1.0
C      1  0.5157040000000  0.5215810000000  0.4232240000000 1.0
C      1  0.4842960000000  0.5215810000000  0.5767760000000 1.0
C      1  0.4446990000000  0.4401330000000  0.5093680000000 1.0
C      1  0.5553010000000  0.4401330000000  0.4906320000000 1.0
C      1  0.5219800000000  0.5644890000000  0.4858250000000 1.0
C      1  0.4780200000000  0.5644890000000  0.5141750000000 1.0
C      1  0.4625970000000  0.5366770000000  0.5660330000000 1.0
C      1  0.5374030000000  0.5366770000000  0.4339670000000 1.0
END
