TITL C-38186-4112-450 1.28273782076172e-06 125000 -378.260002241646 0 0 60 (D6h) n - 1
REM
REM in /home/bkarasulu/CARBON/AIRSS/Generating-Clusters/EDIP-Nigel-Params/Higher-Symm/Box-15A/Only-C60/SD-CG/FIRE-HFTN
REM
REM
REM
REM
REM
REM ./C.cell (414f73aa93bd7a1190c7fd0f31ff2f98)
REM
REM compiler GCC version 9.2.1 20190827 (Red Hat 9.2.1-1)
REM options -cpp -mtune=generic -march=x86-64 -g -O0 -fpre-include=/usr/include/finclude/math-vector-fortran.h
REM seed -409934873 -1543035299 1634620559 -955895844 -1140110945 -1860984096 -1007878350 1973781035 -1555763525 1143397276 1779904254 1032798742 1882368450 -659030047 1306971632 -1300050657 1484066852 2127795463 -62279200 1835606844 933922846 -1507308095 -1987875063 -1622624083 -1388100514 -242075261 -174604330 2104610020 196861480 1901288926 -1155361344 1822143776 1120447049
REM
CELL 1.54180   50.00000   50.00000   50.00000   90.00000   90.00000   90.00000
LATT -1
SFAC C  
C      1  0.5357570000000  0.5427730000000  0.5545590000000 1.0
C      1  0.4808360000000  0.5523530000000  0.5545590000000 1.0
C      1  0.4450790000000  0.5095800000000  0.5545590000000 1.0
C      1  0.4642430000000  0.4572270000000  0.5545590000000 1.0
C      1  0.5191640000000  0.4476470000000  0.5545590000000 1.0
C      1  0.5549210000000  0.4904200000000  0.5545590000000 1.0
C      1  0.5357570000000  0.5427730000000  0.4454410000000 1.0
C      1  0.4808360000000  0.5523530000000  0.4454410000000 1.0
C      1  0.4450790000000  0.5095800000000  0.4454410000000 1.0
C      1  0.4642430000000  0.4572270000000  0.4454410000000 1.0
C      1  0.5191640000000  0.4476470000000  0.4454410000000 1.0
C      1  0.5549210000000  0.4904200000000  0.4454410000000 1.0
C      1  0.4816260000000  0.4780210000000  0.5611400000000 1.0
C      1  0.5098470000000  0.4730980000000  0.5611400000000 1.0
C      1  0.5282210000000  0.4950770000000  0.5611400000000 1.0
C      1  0.5183740000000  0.5219790000000  0.5611400000000 1.0
C      1  0.4901530000000  0.5269020000000  0.5611400000000 1.0
C      1  0.4717790000000  0.5049230000000  0.5611400000000 1.0
C      1  0.4816260000000  0.4780210000000  0.4388600000000 1.0
C      1  0.5098470000000  0.4730980000000  0.4388600000000 1.0
C      1  0.5282210000000  0.4950770000000  0.4388600000000 1.0
C      1  0.5183740000000  0.5219790000000  0.4388600000000 1.0
C      1  0.4901530000000  0.5269020000000  0.4388600000000 1.0
C      1  0.4717790000000  0.5049230000000  0.4388600000000 1.0
C      1  0.4340480000000  0.4591590000000  0.4844280000000 1.0
C      1  0.5023940000000  0.4224630000000  0.4844280000000 1.0
C      1  0.5683460000000  0.4633040000000  0.4844280000000 1.0
C      1  0.5659520000000  0.5408410000000  0.4844280000000 1.0
C      1  0.4976060000000  0.5775370000000  0.4844280000000 1.0
C      1  0.4316540000000  0.5366960000000  0.4844280000000 1.0
C      1  0.4340480000000  0.4591590000000  0.5155720000000 1.0
C      1  0.5023940000000  0.4224630000000  0.5155720000000 1.0
C      1  0.5683460000000  0.4633040000000  0.5155720000000 1.0
C      1  0.5659520000000  0.5408410000000  0.5155720000000 1.0
C      1  0.4976060000000  0.5775370000000  0.5155720000000 1.0
C      1  0.4316540000000  0.5366960000000  0.5155720000000 1.0
C      1  0.4232660000000  0.4886110000000  0.5155720000000 1.0
C      1  0.4714960000000  0.4278520000000  0.5155720000000 1.0
C      1  0.5482300000000  0.4392410000000  0.5155720000000 1.0
C      1  0.5767340000000  0.5113890000000  0.5155720000000 1.0
C      1  0.5285040000000  0.5721480000000  0.5155720000000 1.0
C      1  0.4517700000000  0.5607590000000  0.5155720000000 1.0
C      1  0.4232660000000  0.4886110000000  0.4844280000000 1.0
C      1  0.4714960000000  0.4278520000000  0.4844280000000 1.0
C      1  0.5482300000000  0.4392410000000  0.4844280000000 1.0
C      1  0.5767340000000  0.5113890000000  0.4844280000000 1.0
C      1  0.5285040000000  0.5721480000000  0.4844280000000 1.0
C      1  0.4517700000000  0.5607590000000  0.4844280000000 1.0
C      1  0.4784610000000  0.5588410000000  0.4724800000000 1.0
C      1  0.4382730000000  0.5107670000000  0.4724800000000 1.0
C      1  0.4598110000000  0.4519260000000  0.4724800000000 1.0
C      1  0.5215390000000  0.4411590000000  0.4724800000000 1.0
C      1  0.5617270000000  0.4892330000000  0.4724800000000 1.0
C      1  0.5401890000000  0.5480740000000  0.4724800000000 1.0
C      1  0.4784610000000  0.5588410000000  0.5275200000000 1.0
C      1  0.4382730000000  0.5107670000000  0.5275200000000 1.0
C      1  0.4598110000000  0.4519260000000  0.5275200000000 1.0
C      1  0.5215390000000  0.4411590000000  0.5275200000000 1.0
C      1  0.5617270000000  0.4892330000000  0.5275200000000 1.0
C      1  0.5401890000000  0.5480740000000  0.5275200000000 1.0
END
