TITL C-38189-4514-330 7.06251685253718e-06 125000 -360.882022631654 0 0 60 (D3) n - 1
REM
REM in /home/bkarasulu/CARBON/AIRSS/Generating-Clusters/EDIP-Nigel-Params/Higher-Symm/Box-15A/Only-C60/SD-CG/FIRE-HFTN
REM
REM
REM
REM
REM
REM ./C.cell (414f73aa93bd7a1190c7fd0f31ff2f98)
REM
REM compiler GCC version 9.2.1 20190827 (Red Hat 9.2.1-1)
REM options -cpp -mtune=generic -march=x86-64 -g -O0 -fpre-include=/usr/include/finclude/math-vector-fortran.h
REM seed -182889035 -1624269227 2008805301 -47374405 236431208 -1932995353 2080395014 -1975439138 183301389 -865448354 -715070556 1115200889 476948291 343496101 2077792968 1488668078 -2124114592 -473998342 -1793771643 889690034 -526417589 -899609929 -928702413 -1438635309 -394650716 245399642 195780900 764868410 583177690 805019241 -1372787013 1888068364 -847738684
REM
CELL 1.54180   50.00000   50.00000   50.00000   90.00000   90.00000   90.00000
LATT -1
SFAC C  
C      1  0.5141270000000  0.5746250000000  0.5055090000000 1.0
C      1  0.5141270000000  0.4674580000000  0.4326180000000 1.0
C      1  0.5141270000000  0.4579170000000  0.5618730000000 1.0
C      1  0.4858730000000  0.5746250000000  0.4944910000000 1.0
C      1  0.4858730000000  0.4674580000000  0.5673820000000 1.0
C      1  0.4858730000000  0.4579170000000  0.4381270000000 1.0
C      1  0.4848600000000  0.5169970000000  0.4766630000000 1.0
C      1  0.4848600000000  0.4712910000000  0.4969490000000 1.0
C      1  0.4848600000000  0.5117120000000  0.5263890000000 1.0
C      1  0.5151400000000  0.5169970000000  0.5233370000000 1.0
C      1  0.5151400000000  0.4712910000000  0.5030510000000 1.0
C      1  0.5151400000000  0.5117120000000  0.4736110000000 1.0
C      1  0.4714370000000  0.5587460000000  0.5141630000000 1.0
C      1  0.4714370000000  0.4828930000000  0.4420430000000 1.0
C      1  0.4714370000000  0.4583620000000  0.5437940000000 1.0
C      1  0.5285630000000  0.5587460000000  0.4858370000000 1.0
C      1  0.5285630000000  0.4828930000000  0.5579570000000 1.0
C      1  0.5285630000000  0.4583620000000  0.4562060000000 1.0
C      1  0.5142460000000  0.5603630000000  0.5315000000000 1.0
C      1  0.5142460000000  0.4970990000000  0.4319740000000 1.0
C      1  0.5142460000000  0.4425390000000  0.5365250000000 1.0
C      1  0.4857540000000  0.5603630000000  0.4685000000000 1.0
C      1  0.4857540000000  0.4970990000000  0.5680260000000 1.0
C      1  0.4857540000000  0.4425390000000  0.4634750000000 1.0
C      1  0.5644110000000  0.4813780000000  0.4792930000000 1.0
C      1  0.5644110000000  0.4913790000000  0.5264810000000 1.0
C      1  0.5644110000000  0.5272440000000  0.4942260000000 1.0
C      1  0.4355890000000  0.4813780000000  0.5207070000000 1.0
C      1  0.4355890000000  0.4913790000000  0.4735190000000 1.0
C      1  0.4355890000000  0.5272440000000  0.5057740000000 1.0
C      1  0.5588800000000  0.5200750000000  0.5223560000000 1.0
C      1  0.5588800000000  0.5093230000000  0.4714360000000 1.0
C      1  0.5588800000000  0.4706020000000  0.5062080000000 1.0
C      1  0.4411200000000  0.5200750000000  0.4776440000000 1.0
C      1  0.4411200000000  0.5093230000000  0.5285640000000 1.0
C      1  0.4411200000000  0.4706020000000  0.4937920000000 1.0
C      1  0.5378340000000  0.4422670000000  0.5153730000000 1.0
C      1  0.5378340000000  0.5421800000000  0.5423120000000 1.0
C      1  0.5378340000000  0.5155530000000  0.4423150000000 1.0
C      1  0.4621660000000  0.4422670000000  0.4846270000000 1.0
C      1  0.4621660000000  0.5421800000000  0.4576880000000 1.0
C      1  0.4621660000000  0.5155530000000  0.5576850000000 1.0
C      1  0.4733160000000  0.4899480000000  0.4723650000000 1.0
C      1  0.4733160000000  0.4810930000000  0.5225230000000 1.0
C      1  0.4733160000000  0.5289590000000  0.5051120000000 1.0
C      1  0.5266840000000  0.4899480000000  0.5276350000000 1.0
C      1  0.5266840000000  0.4810930000000  0.4774770000000 1.0
C      1  0.5266840000000  0.5289590000000  0.4948880000000 1.0
C      1  0.4739990000000  0.5289590000000  0.4355680000000 1.0
C      1  0.4739990000000  0.4297210000000  0.5071370000000 1.0
C      1  0.4739990000000  0.5413200000000  0.5572950000000 1.0
C      1  0.5260010000000  0.5289590000000  0.5644320000000 1.0
C      1  0.5260010000000  0.4297210000000  0.4928630000000 1.0
C      1  0.5260010000000  0.5413200000000  0.4427050000000 1.0
C      1  0.5144980000000  0.5598850000000  0.4600640000000 1.0
C      1  0.5144980000000  0.4354720000000  0.4681060000000 1.0
C      1  0.5144980000000  0.5046430000000  0.5718300000000 1.0
C      1  0.4855020000000  0.5598850000000  0.5399360000000 1.0
C      1  0.4855020000000  0.4354720000000  0.5318940000000 1.0
C      1  0.4855020000000  0.5046430000000  0.4281700000000 1.0
END
