TITL C-38199-1586-92 6.9047298953996 125000 -358.160509584126 0 0 60 (C1) n - 1
REM
REM in /home/bkarasulu/CARBON/AIRSS/Generating-Clusters/EDIP-Nigel-Params/Higher-Symm/Box-15A/Only-C60/SD-CG/FIRE-HFTN
REM
REM
REM
REM
REM
REM ./C.cell (414f73aa93bd7a1190c7fd0f31ff2f98)
REM
REM compiler GCC version 9.2.1 20190827 (Red Hat 9.2.1-1)
REM options -cpp -mtune=generic -march=x86-64 -g -O0 -fpre-include=/usr/include/finclude/math-vector-fortran.h
REM seed -737709292 -309064011 -2027312882 -1309905752 829131774 304067062 -1843052321 1601060336 -1252084606 239389397 1092846201 1177018695 -770323698 1451945217 -2138834542 -205045300 1428358342 -928569933 -1161222593 698779922 206400824 731200488 -1818000624 2075028865 1696208767 940425681 363133021 1596914852 1248863362 1444233833 -1498313382 274618758 -329050165
REM
CELL 1.54180   50.00000   50.00000   50.00000   90.00000   90.00000   90.00000
LATT -1
SFAC C  
C      1  0.3689190000000  0.4824170000000  0.4831430000000 1.0
C      1  0.4005490000000  0.5051950000000  0.4268960000000 1.0
C      1  0.5347180000000  0.4571830000000  0.5753060000000 1.0
C      1  0.5320540000000  0.5420670000000  0.5763130000000 1.0
C      1  0.5533540000000  0.5302550000000  0.4678380000000 1.0
C      1  0.5447840000000  0.4808060000000  0.4685050000000 1.0
C      1  0.4015630000000  0.5058460000000  0.4533690000000 1.0
C      1  0.3920590000000  0.4817460000000  0.4702450000000 1.0
C      1  0.5072170000000  0.4587880000000  0.5768010000000 1.0
C      1  0.5050950000000  0.5362760000000  0.5747470000000 1.0
C      1  0.4677320000000  0.4263300000000  0.4813960000000 1.0
C      1  0.4739250000000  0.5608500000000  0.4741830000000 1.0
C      1  0.5369900000000  0.5392040000000  0.4208520000000 1.0
C      1  0.5226680000000  0.4745480000000  0.4245850000000 1.0
C      1  0.5353360000000  0.4929540000000  0.4432890000000 1.0
C      1  0.5401850000000  0.5211510000000  0.4427410000000 1.0
C      1  0.5526820000000  0.5616020000000  0.4166750000000 1.0
C      1  0.5150280000000  0.4495900000000  0.4134360000000 1.0
C      1  0.4188530000000  0.4818460000000  0.4856810000000 1.0
C      1  0.4286790000000  0.5057040000000  0.4682330000000 1.0
C      1  0.5484930000000  0.5218310000000  0.5192340000000 1.0
C      1  0.5404440000000  0.4911720000000  0.5216170000000 1.0
C      1  0.5001970000000  0.4172220000000  0.5201600000000 1.0
C      1  0.5003770000000  0.5734690000000  0.5157520000000 1.0
C      1  0.4334680000000  0.4585920000000  0.4886820000000 1.0
C      1  0.4388740000000  0.5289490000000  0.4791490000000 1.0
C      1  0.5316630000000  0.4377950000000  0.4904990000000 1.0
C      1  0.5424250000000  0.5738160000000  0.4905930000000 1.0
C      1  0.5131080000000  0.5734020000000  0.4911170000000 1.0
C      1  0.5098310000000  0.4192930000000  0.4941110000000 1.0
C      1  0.5542770000000  0.5687270000000  0.5156650000000 1.0
C      1  0.5464790000000  0.4448190000000  0.5127120000000 1.0
C      1  0.4966340000000  0.4839260000000  0.5808300000000 1.0
C      1  0.4969240000000  0.5105640000000  0.5803750000000 1.0
C      1  0.5447130000000  0.5704460000000  0.4415910000000 1.0
C      1  0.5216320000000  0.4477150000000  0.4409710000000 1.0
C      1  0.4343500000000  0.4831650000000  0.5504340000000 1.0
C      1  0.4339450000000  0.5093540000000  0.5468880000000 1.0
C      1  0.5781340000000  0.5147580000000  0.4701230000000 1.0
C      1  0.5731370000000  0.4877140000000  0.4709690000000 1.0
C      1  0.5552270000000  0.5608790000000  0.4667540000000 1.0
C      1  0.5367550000000  0.4520750000000  0.4658050000000 1.0
C      1  0.4829610000000  0.5587090000000  0.5313740000000 1.0
C      1  0.4835950000000  0.4317240000000  0.5370700000000 1.0
C      1  0.5362650000000  0.5227170000000  0.4912970000000 1.0
C      1  0.5297800000000  0.4929920000000  0.4918470000000 1.0
C      1  0.4444400000000  0.5300760000000  0.5341790000000 1.0
C      1  0.4453150000000  0.4603760000000  0.5425450000000 1.0
C      1  0.4971830000000  0.5731070000000  0.4682920000000 1.0
C      1  0.4911550000000  0.4154690000000  0.4737670000000 1.0
C      1  0.4611590000000  0.4454430000000  0.5258500000000 1.0
C      1  0.4620880000000  0.5440640000000  0.5185360000000 1.0
C      1  0.4528190000000  0.4418140000000  0.4987240000000 1.0
C      1  0.4570340000000  0.5462390000000  0.4904720000000 1.0
C      1  0.4930100000000  0.4405750000000  0.5615290000000 1.0
C      1  0.4902160000000  0.5514330000000  0.5570310000000 1.0
C      1  0.5519850000000  0.4658260000000  0.5296290000000 1.0
C      1  0.5512810000000  0.5469680000000  0.5326810000000 1.0
C      1  0.5526530000000  0.5481320000000  0.5602850000000 1.0
C      1  0.5535850000000  0.4602970000000  0.5566230000000 1.0
END
