TITL C-38185-7677-136 1.00699343790018e-06 125000 -350.435622087059 0 0 60 (C1) n - 1
REM
REM in /home/bkarasulu/CARBON/AIRSS/Generating-Clusters/EDIP-Nigel-Params/Higher-Symm/Box-15A/Only-C60/SD-CG/FIRE-HFTN
REM
REM
REM
REM
REM
REM ./C.cell (414f73aa93bd7a1190c7fd0f31ff2f98)
REM
REM compiler GCC version 9.2.1 20190827 (Red Hat 9.2.1-1)
REM options -cpp -mtune=generic -march=x86-64 -g -O0 -fpre-include=/usr/include/finclude/math-vector-fortran.h
REM seed 681915500 189010959 580062159 574998024 635944989 -1869941379 -965776951 403427868 1223642550 1197340669 -1695569469 783417416 -740584691 -915847371 586004692 -729090423 -209059751 -1933218014 -1072035478 -496532245 357601004 1276027456 1952187078 636773308 -1322078642 791770766 1686227852 1390125853 -112030428 -368389174 1018726643 -1702290995 -284445416
REM
CELL 1.54180   50.00000   50.00000   50.00000   90.00000   90.00000   90.00000
LATT -1
SFAC C  
C      1  0.4480490000000  0.5047570000000  0.4951260000000 1.0
C      1  0.4578600000000  0.5171980000000  0.4677440000000 1.0
C      1  0.4839990000000  0.5063690000000  0.4573730000000 1.0
C      1  0.5096000000000  0.5206290000000  0.4490260000000 1.0
C      1  0.5340280000000  0.5098900000000  0.4623200000000 1.0
C      1  0.5505860000000  0.5189020000000  0.4863730000000 1.0
C      1  0.5494480000000  0.5049630000000  0.5156130000000 1.0
C      1  0.5322380000000  0.5177890000000  0.5402680000000 1.0
C      1  0.5046740000000  0.5064500000000  0.5486390000000 1.0
C      1  0.4754980000000  0.5076030000000  0.5429440000000 1.0
C      1  0.4545420000000  0.5193230000000  0.5236740000000 1.0
C      1  0.4391020000000  0.5050660000000  0.4486930000000 1.0
C      1  0.4799470000000  0.4917230000000  0.4312560000000 1.0
C      1  0.5137860000000  0.5085300000000  0.4213840000000 1.0
C      1  0.5497530000000  0.4977760000000  0.4418320000000 1.0
C      1  0.5769560000000  0.5091340000000  0.4772810000000 1.0
C      1  0.5770550000000  0.5072140000000  0.5250870000000 1.0
C      1  0.5487150000000  0.5096390000000  0.5633170000000 1.0
C      1  0.5079180000000  0.4880460000000  0.5703280000000 1.0
C      1  0.4624190000000  0.4904450000000  0.5615280000000 1.0
C      1  0.4295490000000  0.5142330000000  0.5382560000000 1.0
C      1  0.4186820000000  0.5075060000000  0.4931300000000 1.0
C      1  0.5398660000000  0.4642700000000  0.5420770000000 1.0
C      1  0.5157670000000  0.4483260000000  0.5457300000000 1.0
C      1  0.4557020000000  0.4467640000000  0.5426710000000 1.0
C      1  0.4412020000000  0.4658370000000  0.5274610000000 1.0
C      1  0.4356110000000  0.4625840000000  0.4992070000000 1.0
C      1  0.4562470000000  0.4677640000000  0.4786610000000 1.0
C      1  0.4840220000000  0.4549610000000  0.4556730000000 1.0
C      1  0.5112010000000  0.4655460000000  0.4494850000000 1.0
C      1  0.5370450000000  0.4574160000000  0.4631220000000 1.0
C      1  0.5495100000000  0.4684300000000  0.4913380000000 1.0
C      1  0.5575100000000  0.4619500000000  0.5189870000000 1.0
C      1  0.5464030000000  0.5567120000000  0.5158590000000 1.0
C      1  0.5312310000000  0.5476240000000  0.5372610000000 1.0
C      1  0.5061610000000  0.5590620000000  0.5397670000000 1.0
C      1  0.4805030000000  0.5598330000000  0.5323970000000 1.0
C      1  0.4588340000000  0.5485630000000  0.5195020000000 1.0
C      1  0.4534550000000  0.5570710000000  0.4937850000000 1.0
C      1  0.4584200000000  0.5472800000000  0.4684350000000 1.0
C      1  0.4807390000000  0.5580970000000  0.4558210000000 1.0
C      1  0.5073540000000  0.5502710000000  0.4532080000000 1.0
C      1  0.5245830000000  0.5578160000000  0.4743200000000 1.0
C      1  0.5468510000000  0.5486790000000  0.4892440000000 1.0
C      1  0.4260620000000  0.4867290000000  0.5394100000000 1.0
C      1  0.4144330000000  0.4804610000000  0.4939380000000 1.0
C      1  0.4434660000000  0.4767390000000  0.4524630000000 1.0
C      1  0.4654460000000  0.4662240000000  0.4359260000000 1.0
C      1  0.5146160000000  0.4791270000000  0.4231140000000 1.0
C      1  0.5602010000000  0.4723320000000  0.4488620000000 1.0
C      1  0.5728530000000  0.4803530000000  0.4753700000000 1.0
C      1  0.5791720000000  0.4797680000000  0.5249080000000 1.0
C      1  0.5492800000000  0.4818120000000  0.5624380000000 1.0
C      1  0.4984060000000  0.4615100000000  0.5654500000000 1.0
C      1  0.4691140000000  0.4627880000000  0.5617700000000 1.0
C      1  0.4985650000000  0.5019360000000  0.4989840000000 1.0
C      1  0.4969220000000  0.4492110000000  0.5056060000000 1.0
C      1  0.5048650000000  0.4324010000000  0.5251950000000 1.0
C      1  0.4944980000000  0.4751420000000  0.4985220000000 1.0
C      1  0.5051960000000  0.5269740000000  0.4952470000000 1.0
END
