TITL C-38191-7580-535 -1.62231749148653e-07 125000 -365.394805768384 0 0 60 (C1) n - 1
REM
REM in /home/bkarasulu/CARBON/AIRSS/Generating-Clusters/EDIP-Nigel-Params/Higher-Symm/Box-15A/Only-C60/SD-CG/FIRE-HFTN
REM
REM
REM
REM
REM
REM ./C.cell (414f73aa93bd7a1190c7fd0f31ff2f98)
REM
REM compiler GCC version 9.2.1 20190827 (Red Hat 9.2.1-1)
REM options -cpp -mtune=generic -march=x86-64 -g -O0 -fpre-include=/usr/include/finclude/math-vector-fortran.h
REM seed 1114408723 681881962 854669569 -1279356061 -1815518429 -185411425 368494364 1932146242 1509161512 1701606020 1951173960 -1151951814 2130579013 -2110048624 1835651741 388519736 199214340 1900249349 2025768771 -1990444950 -866292336 971970967 1594977938 -456037916 -1243050599 -885056713 47861054 -736040370 1053019648 -2124576708 -1529375798 361503458 -1900958635
REM
CELL 1.54180   50.00000   50.00000   50.00000   90.00000   90.00000   90.00000
LATT -1
SFAC C  
C      1  0.5519190000000  0.5027700000000  0.4445540000000 1.0
C      1  0.5218890000000  0.5021740000000  0.5728200000000 1.0
C      1  0.4255000000000  0.5019000000000  0.4832230000000 1.0
C      1  0.5287910000000  0.5237670000000  0.5530570000000 1.0
C      1  0.4397220000000  0.5237340000000  0.4984360000000 1.0
C      1  0.5316010000000  0.5246180000000  0.4492510000000 1.0
C      1  0.5188520000000  0.4404420000000  0.4874660000000 1.0
C      1  0.5012140000000  0.4402770000000  0.5223380000000 1.0
C      1  0.4798370000000  0.4404560000000  0.4896360000000 1.0
C      1  0.5101090000000  0.4869520000000  0.5236000000000 1.0
C      1  0.4747270000000  0.4871030000000  0.4968380000000 1.0
C      1  0.5155830000000  0.4874160000000  0.4795500000000 1.0
C      1  0.4427090000000  0.4835520000000  0.5368140000000 1.0
C      1  0.4970160000000  0.4831620000000  0.4316700000000 1.0
C      1  0.5606880000000  0.4824700000000  0.5318800000000 1.0
C      1  0.5250990000000  0.5500070000000  0.5631000000000 1.0
C      1  0.4328350000000  0.5498370000000  0.4897190000000 1.0
C      1  0.5425380000000  0.5507250000000  0.4482210000000 1.0
C      1  0.4316460000000  0.5028880000000  0.4553830000000 1.0
C      1  0.5730480000000  0.5037890000000  0.4636890000000 1.0
C      1  0.4943730000000  0.5039150000000  0.5802190000000 1.0
C      1  0.5410800000000  0.4776140000000  0.4319330000000 1.0
C      1  0.5380190000000  0.4768300000000  0.5696700000000 1.0
C      1  0.4203970000000  0.4767710000000  0.4990180000000 1.0
C      1  0.5688450000000  0.5054140000000  0.5193960000000 1.0
C      1  0.4493350000000  0.5075460000000  0.5484220000000 1.0
C      1  0.4818980000000  0.5059420000000  0.4309790000000 1.0
C      1  0.4825180000000  0.5290270000000  0.5736750000000 1.0
C      1  0.4434400000000  0.5276000000000  0.4475970000000 1.0
C      1  0.5736340000000  0.5281730000000  0.4783360000000 1.0
C      1  0.5647380000000  0.5503470000000  0.4635710000000 1.0
C      1  0.5004930000000  0.5506030000000  0.5741590000000 1.0
C      1  0.4345710000000  0.5495340000000  0.4627570000000 1.0
C      1  0.5593710000000  0.5261480000000  0.5038520000000 1.0
C      1  0.4677090000000  0.5282190000000  0.5483540000000 1.0
C      1  0.4727320000000  0.5263200000000  0.4471340000000 1.0
C      1  0.5134310000000  0.5170930000000  0.5267800000000 1.0
C      1  0.4702230000000  0.5171510000000  0.4978170000000 1.0
C      1  0.5164350000000  0.5178990000000  0.4755140000000 1.0
C      1  0.5203470000000  0.5582750000000  0.5038830000000 1.0
C      1  0.4920000000000  0.5581740000000  0.5123950000000 1.0
C      1  0.4883230000000  0.5583640000000  0.4830180000000 1.0
C      1  0.4544230000000  0.4450430000000  0.5062860000000 1.0
C      1  0.5175290000000  0.4451400000000  0.4571120000000 1.0
C      1  0.5281610000000  0.4445570000000  0.5363950000000 1.0
C      1  0.5353290000000  0.4703040000000  0.5215930000000 1.0
C      1  0.4638420000000  0.4707490000000  0.5197690000000 1.0
C      1  0.5011540000000  0.4708490000000  0.4586530000000 1.0
C      1  0.5265110000000  0.4513830000000  0.5640020000000 1.0
C      1  0.4309360000000  0.4514050000000  0.4915590000000 1.0
C      1  0.5421270000000  0.4520800000000  0.4445500000000 1.0
C      1  0.5336510000000  0.4665210000000  0.4924300000000 1.0
C      1  0.4897800000000  0.4664360000000  0.5327880000000 1.0
C      1  0.4769200000000  0.4666570000000  0.4747060000000 1.0
C      1  0.5639800000000  0.4808430000000  0.5594940000000 1.0
C      1  0.4168950000000  0.4809170000000  0.5266710000000 1.0
C      1  0.5191160000000  0.4817630000000  0.4148060000000 1.0
C      1  0.4850410000000  0.5304270000000  0.5230810000000 1.0
C      1  0.4863430000000  0.5300240000000  0.4743200000000 1.0
C      1  0.5290240000000  0.5299050000000  0.5020580000000 1.0
END
