TITL C-38191-7580-543 0.000550367504841992 125000 -365.512640944204 0 0 60 (C1) n - 1
REM
REM in /home/bkarasulu/CARBON/AIRSS/Generating-Clusters/EDIP-Nigel-Params/Higher-Symm/Box-15A/Only-C60/SD-CG/FIRE-HFTN
REM
REM
REM
REM
REM
REM ./C.cell (414f73aa93bd7a1190c7fd0f31ff2f98)
REM
REM compiler GCC version 9.2.1 20190827 (Red Hat 9.2.1-1)
REM options -cpp -mtune=generic -march=x86-64 -g -O0 -fpre-include=/usr/include/finclude/math-vector-fortran.h
REM seed 33140963 1343817553 -243700921 -1959020815 -861749065 -182071241 -915603645 298823131 1344174949 -954269037 1432983816 238047001 1947089958 -794822154 276102766 -1785297132 1817680896 1659257149 -587127123 943945368 1800322749 1494867789 2135658648 -2001637483 437242290 -1139282241 1421039126 143872540 -1159868976 85391574 899633334 -1401300356 -592779007
REM
CELL 1.54180   50.00000   50.00000   50.00000   90.00000   90.00000   90.00000
LATT -1
SFAC C  
C      1  0.5176050000000  0.4755930000000  0.5099330000000 1.0
C      1  0.4573020000000  0.5081510000000  0.4597930000000 1.0
C      1  0.4931150000000  0.4292280000000  0.4541120000000 1.0
C      1  0.4887730000000  0.4249800000000  0.4980270000000 1.0
C      1  0.5051930000000  0.5197450000000  0.4261680000000 1.0
C      1  0.4663950000000  0.5347890000000  0.4532370000000 1.0
C      1  0.5108090000000  0.4465160000000  0.4404390000000 1.0
C      1  0.5223350000000  0.4719830000000  0.4381610000000 1.0
C      1  0.4599680000000  0.5443130000000  0.5195400000000 1.0
C      1  0.5302810000000  0.5500020000000  0.4651970000000 1.0
C      1  0.5403890000000  0.5554900000000  0.5647890000000 1.0
C      1  0.4894250000000  0.5839750000000  0.5210410000000 1.0
C      1  0.5752030000000  0.4915020000000  0.5059070000000 1.0
C      1  0.5129450000000  0.4388840000000  0.5943480000000 1.0
C      1  0.5146950000000  0.5705990000000  0.4820370000000 1.0
C      1  0.5452520000000  0.4784340000000  0.4551510000000 1.0
C      1  0.5362300000000  0.5523000000000  0.4946670000000 1.0
C      1  0.5836540000000  0.4662270000000  0.4956890000000 1.0
C      1  0.4668360000000  0.5830500000000  0.4639790000000 1.0
C      1  0.5630740000000  0.5104310000000  0.4884380000000 1.0
C      1  0.4525180000000  0.4623400000000  0.4581500000000 1.0
C      1  0.4977620000000  0.4719460000000  0.4898240000000 1.0
C      1  0.4854870000000  0.5371620000000  0.4331070000000 1.0
C      1  0.5600400000000  0.5431510000000  0.5517900000000 1.0
C      1  0.5669860000000  0.5278480000000  0.5299680000000 1.0
C      1  0.4578820000000  0.5572110000000  0.4690600000000 1.0
C      1  0.5067740000000  0.4305310000000  0.5696240000000 1.0
C      1  0.5030190000000  0.4145390000000  0.4761100000000 1.0
C      1  0.4593490000000  0.4580590000000  0.5190580000000 1.0
C      1  0.5556220000000  0.5328650000000  0.5040980000000 1.0
C      1  0.4310880000000  0.4710040000000  0.4746100000000 1.0
C      1  0.4774170000000  0.5288920000000  0.5681860000000 1.0
C      1  0.5674460000000  0.4451140000000  0.4884160000000 1.0
C      1  0.4853150000000  0.4783520000000  0.5863420000000 1.0
C      1  0.5017300000000  0.4963970000000  0.5039110000000 1.0
C      1  0.4949730000000  0.4188790000000  0.5243960000000 1.0
C      1  0.4635350000000  0.4846660000000  0.4439130000000 1.0
C      1  0.5631510000000  0.4577460000000  0.4642320000000 1.0
C      1  0.4566450000000  0.5168330000000  0.5272120000000 1.0
C      1  0.5817010000000  0.5034770000000  0.5308790000000 1.0
C      1  0.5519770000000  0.5056990000000  0.4624160000000 1.0
C      1  0.4753190000000  0.4516850000000  0.4931380000000 1.0
C      1  0.5410070000000  0.5284660000000  0.4508260000000 1.0
C      1  0.4664500000000  0.5082380000000  0.5532400000000 1.0
C      1  0.4892760000000  0.5519820000000  0.5583960000000 1.0
C      1  0.4358140000000  0.4734150000000  0.5206190000000 1.0
C      1  0.4794870000000  0.6026970000000  0.4777340000000 1.0
C      1  0.4920700000000  0.4349560000000  0.5467320000000 1.0
C      1  0.4426450000000  0.4982230000000  0.5099900000000 1.0
C      1  0.4746490000000  0.4578750000000  0.5436220000000 1.0
C      1  0.4799570000000  0.5605270000000  0.5327030000000 1.0
C      1  0.4789350000000  0.4815980000000  0.4206230000000 1.0
C      1  0.4654000000000  0.4367580000000  0.4590270000000 1.0
C      1  0.4732200000000  0.4810060000000  0.5616370000000 1.0
C      1  0.5040120000000  0.4917210000000  0.4269650000000 1.0
C      1  0.5142120000000  0.5596070000000  0.5674160000000 1.0
C      1  0.4498250000000  0.5519710000000  0.4949600000000 1.0
C      1  0.5012030000000  0.4621930000000  0.6004550000000 1.0
C      1  0.4976340000000  0.5901900000000  0.4951230000000 1.0
C      1  0.4389890000000  0.4979900000000  0.4808360000000 1.0
END
