TITL C-38195-9455-486 3.86147981252239e-06 125000 -369.244803283014 0 0 60 (Cs) n - 1
REM
REM in /home/bkarasulu/CARBON/AIRSS/Generating-Clusters/EDIP-Nigel-Params/Higher-Symm/Box-15A/Only-C60/SD-CG/FIRE-HFTN
REM
REM
REM
REM
REM
REM ./C.cell (414f73aa93bd7a1190c7fd0f31ff2f98)
REM
REM compiler GCC version 9.2.1 20190827 (Red Hat 9.2.1-1)
REM options -cpp -mtune=generic -march=x86-64 -g -O0 -fpre-include=/usr/include/finclude/math-vector-fortran.h
REM seed 289859577 -1096105378 -100559813 2127377420 -933630202 -558194962 -983974670 1203261796 -1494995579 -1747112738 -1986563569 2101099936 -1910021273 58941100 -1508767107 1420917312 2012260272 344477992 718435736 -955711729 -1017031004 -632599146 1834720007 -2118296340 -1574870309 -276619025 543890617 860879158 -1748270278 399182712 1778176964 1497079179 1809323943
REM
CELL 1.54180   50.00000   50.00000   50.00000   90.00000   90.00000   90.00000
LATT -1
SFAC C  
C      1  0.5262790000000  0.5138300000000  0.5542230000000 1.0
C      1  0.4733720000000  0.5134730000000  0.4465590000000 1.0
C      1  0.4733730000000  0.5134730000000  0.5534410000000 1.0
C      1  0.5262790000000  0.5138300000000  0.4457770000000 1.0
C      1  0.4751320000000  0.4692330000000  0.4242000000000 1.0
C      1  0.5248440000000  0.4695950000000  0.5760480000000 1.0
C      1  0.5248440000000  0.4695950000000  0.4239520000000 1.0
C      1  0.4751320000000  0.4692330000000  0.5758000000000 1.0
C      1  0.5658980000000  0.5558900000000  0.4815700000000 1.0
C      1  0.4343080000000  0.5562130000000  0.5157530000000 1.0
C      1  0.4343080000000  0.5562130000000  0.4842470000000 1.0
C      1  0.5658980000000  0.5558900000000  0.5184300000000 1.0
C      1  0.5149940000000  0.4285860000000  0.4846470000000 1.0
C      1  0.4834330000000  0.4266000000000  0.5153710000000 1.0
C      1  0.4834330000000  0.4266000000000  0.4846300000000 1.0
C      1  0.5149940000000  0.4285860000000  0.5153540000000 1.0
C      1  0.5155360000000  0.5409300000000  0.5535350000000 1.0
C      1  0.4839270000000  0.5406020000000  0.4470130000000 1.0
C      1  0.4839270000000  0.5406020000000  0.5529870000000 1.0
C      1  0.5155360000000  0.5409290000000  0.4464650000000 1.0
C      1  0.4460680000000  0.5096350000000  0.4569500000000 1.0
C      1  0.5540000000000  0.5099860000000  0.5452260000000 1.0
C      1  0.5540000000000  0.5099860000000  0.4547740000000 1.0
C      1  0.4460680000000  0.5096350000000  0.5430500000000 1.0
C      1  0.5157270000000  0.5565140000000  0.5269590000000 1.0
C      1  0.4842210000000  0.5558560000000  0.4736160000000 1.0
C      1  0.4842210000000  0.5558560000000  0.5263830000000 1.0
C      1  0.5157270000000  0.5565140000000  0.4730410000000 1.0
C      1  0.5323410000000  0.4770070000000  0.5147380000000 1.0
C      1  0.4678230000000  0.4756170000000  0.4853640000000 1.0
C      1  0.4678230000000  0.4756170000000  0.5146360000000 1.0
C      1  0.5323410000000  0.4770070000000  0.4852620000000 1.0
C      1  0.4853440000000  0.4950490000000  0.5727020000000 1.0
C      1  0.5140910000000  0.4952350000000  0.4269330000000 1.0
C      1  0.5140910000000  0.4952350000000  0.5730670000000 1.0
C      1  0.4853440000000  0.4950490000000  0.4272980000000 1.0
C      1  0.5347480000000  0.4538060000000  0.4446420000000 1.0
C      1  0.4652040000000  0.4531930000000  0.5553750000000 1.0
C      1  0.4652040000000  0.4531930000000  0.4446250000000 1.0
C      1  0.5347480000000  0.4538060000000  0.5553580000000 1.0
C      1  0.5395950000000  0.5692120000000  0.5147630000000 1.0
C      1  0.4615600000000  0.5714530000000  0.4845310000000 1.0
C      1  0.4615600000000  0.5714530000000  0.5154690000000 1.0
C      1  0.5395950000000  0.5692120000000  0.4852370000000 1.0
C      1  0.5180330000000  0.4555650000000  0.5302860000000 1.0
C      1  0.4818810000000  0.4541500000000  0.4698750000000 1.0
C      1  0.4818810000000  0.4541500000000  0.5301250000000 1.0
C      1  0.5180330000000  0.4555650000000  0.4697140000000 1.0
C      1  0.5608750000000  0.4617800000000  0.5486720000000 1.0
C      1  0.4391360000000  0.4614960000000  0.4511240000000 1.0
C      1  0.4391360000000  0.4614970000000  0.5488760000000 1.0
C      1  0.5608750000000  0.4617800000000  0.4513290000000 1.0
C      1  0.4359750000000  0.5309100000000  0.4720970000000 1.0
C      1  0.5655080000000  0.5320600000000  0.5326150000000 1.0
C      1  0.5655080000000  0.5320600000000  0.4673850000000 1.0
C      1  0.4359750000000  0.5309100000000  0.5279030000000 1.0
C      1  0.4431810000000  0.4827400000000  0.4698170000000 1.0
C      1  0.5569660000000  0.4837870000000  0.5308220000000 1.0
C      1  0.5569660000000  0.4837870000000  0.4691780000000 1.0
C      1  0.4431810000000  0.4827400000000  0.5301830000000 1.0
END
