TITL C-38184-643-236 4.48868457071196e-05 125000 -350.700063913036 0 0 60 (Ci) n - 1
REM
REM in /home/bkarasulu/CARBON/AIRSS/Generating-Clusters/EDIP-Nigel-Params/Higher-Symm/Box-15A/Only-C60/SD-CG/FIRE-HFTN
REM
REM
REM
REM
REM
REM ./C.cell (414f73aa93bd7a1190c7fd0f31ff2f98)
REM
REM compiler GCC version 9.2.1 20190827 (Red Hat 9.2.1-1)
REM options -cpp -mtune=generic -march=x86-64 -g -O0 -fpre-include=/usr/include/finclude/math-vector-fortran.h
REM seed -1464770835 1831500340 804575572 615867149 580735209 -726840315 1692061102 -294007109 -359825925 -821038359 1920468632 1471437108 1183652591 352574547 1307099657 1019404057 2007703551 205400929 -648626567 770884209 -948498751 270615612 1879779443 169030008 -405004344 -2051161623 -362892378 -6871791 1665070455 1480014315 -709051035 -545357025 -1059816036
REM
CELL 1.54180   50.00000   50.00000   50.00000   90.00000   90.00000   90.00000
LATT -1
SFAC C  
C      1  0.4500160000000  0.5332950000000  0.4911930000000 1.0
C      1  0.5499840000000  0.4667050000000  0.5088070000000 1.0
C      1  0.5411440000000  0.4311430000000  0.4744230000000 1.0
C      1  0.4588560000000  0.5688570000000  0.5255770000000 1.0
C      1  0.5052120000000  0.4801330000000  0.4913640000000 1.0
C      1  0.4947880000000  0.5198670000000  0.5086360000000 1.0
C      1  0.4815570000000  0.5065510000000  0.5778920000000 1.0
C      1  0.5184430000000  0.4934490000000  0.4221080000000 1.0
C      1  0.5458080000000  0.5101760000000  0.5115880000000 1.0
C      1  0.4541920000000  0.4898240000000  0.4884120000000 1.0
C      1  0.4568590000000  0.5622220000000  0.4967920000000 1.0
C      1  0.5431410000000  0.4377780000000  0.5032080000000 1.0
C      1  0.5554740000000  0.4750850000000  0.5367210000000 1.0
C      1  0.4445260000000  0.5249150000000  0.4632790000000 1.0
C      1  0.5067430000000  0.5104730000000  0.5634380000000 1.0
C      1  0.4932570000000  0.4895270000000  0.4365620000000 1.0
C      1  0.5320430000000  0.5146030000000  0.5766360000000 1.0
C      1  0.4679570000000  0.4853970000000  0.4233640000000 1.0
C      1  0.4868640000000  0.5666670000000  0.4912840000000 1.0
C      1  0.5131360000000  0.4333330000000  0.5087160000000 1.0
C      1  0.5378770000000  0.5580730000000  0.4924160000000 1.0
C      1  0.4621230000000  0.4419270000000  0.5075840000000 1.0
C      1  0.4837410000000  0.5012210000000  0.4847230000000 1.0
C      1  0.5162590000000  0.4987790000000  0.5152770000000 1.0
C      1  0.5303230000000  0.5469500000000  0.5555950000000 1.0
C      1  0.4696770000000  0.4530500000000  0.4444050000000 1.0
C      1  0.4679760000000  0.5292510000000  0.4448200000000 1.0
C      1  0.5320240000000  0.4707490000000  0.5551800000000 1.0
C      1  0.4793670000000  0.5554320000000  0.4447210000000 1.0
C      1  0.5206330000000  0.4445680000000  0.5552790000000 1.0
C      1  0.4442330000000  0.4808800000000  0.4392580000000 1.0
C      1  0.5557670000000  0.5191200000000  0.5607420000000 1.0
C      1  0.5569210000000  0.5118660000000  0.4821720000000 1.0
C      1  0.4430790000000  0.4881340000000  0.5178280000000 1.0
C      1  0.4733980000000  0.4514550000000  0.5313460000000 1.0
C      1  0.5266020000000  0.5485450000000  0.4686540000000 1.0
C      1  0.4848360000000  0.4401240000000  0.4663970000000 1.0
C      1  0.5151640000000  0.5598760000000  0.5336030000000 1.0
C      1  0.4624260000000  0.4780000000000  0.5379680000000 1.0
C      1  0.5375740000000  0.5220000000000  0.4620320000000 1.0
C      1  0.4644070000000  0.4888010000000  0.5641090000000 1.0
C      1  0.5355930000000  0.5111990000000  0.4358910000000 1.0
C      1  0.4601530000000  0.4413150000000  0.4801270000000 1.0
C      1  0.5398470000000  0.5586850000000  0.5198730000000 1.0
C      1  0.5376310000000  0.4707310000000  0.4544330000000 1.0
C      1  0.4623690000000  0.5292690000000  0.5455670000000 1.0
C      1  0.5499890000000  0.4452750000000  0.4512360000000 1.0
C      1  0.4500110000000  0.5547250000000  0.5487640000000 1.0
C      1  0.5362630000000  0.4605570000000  0.4275300000000 1.0
C      1  0.4637370000000  0.5394430000000  0.5724700000000 1.0
C      1  0.4365580000000  0.4956930000000  0.4635810000000 1.0
C      1  0.5634420000000  0.5043070000000  0.5364190000000 1.0
C      1  0.5028520000000  0.4462140000000  0.5328010000000 1.0
C      1  0.4971480000000  0.5537860000000  0.4671990000000 1.0
C      1  0.5085820000000  0.4507700000000  0.4814600000000 1.0
C      1  0.4914180000000  0.5492300000000  0.5185400000000 1.0
C      1  0.5626640000000  0.4836640000000  0.4886240000000 1.0
C      1  0.4373360000000  0.5163360000000  0.5113760000000 1.0
C      1  0.4895340000000  0.5114630000000  0.4560210000000 1.0
C      1  0.5104660000000  0.4885370000000  0.5439790000000 1.0
END
