TITL C-38196-2854-511 4.64442496752842e-07 125000 -372.396451467981 0 0 60 (C6) n - 1
REM
REM in /home/bkarasulu/CARBON/AIRSS/Generating-Clusters/EDIP-Nigel-Params/Higher-Symm/Box-15A/Only-C60/SD-CG/FIRE-HFTN
REM
REM
REM
REM
REM
REM ./C.cell (414f73aa93bd7a1190c7fd0f31ff2f98)
REM
REM compiler GCC version 9.2.1 20190827 (Red Hat 9.2.1-1)
REM options -cpp -mtune=generic -march=x86-64 -g -O0 -fpre-include=/usr/include/finclude/math-vector-fortran.h
REM seed -107758387 1291051178 1137003802 832011047 1893442414 -1721656726 1056818283 -1266242725 -664860532 -867228687 -1846131368 -1326772478 -2135340631 1444741345 -1143741191 -1724940443 1065399055 111146200 -298195626 -61251123 55376671 694941729 -1772814712 305177173 891000127 136925404 -1581379702 -733500235 -582099141 2131530959 482222243 863637860 1835756399
REM
CELL 1.54180   50.00000   50.00000   50.00000   90.00000   90.00000   90.00000
LATT -1
SFAC C  
C      1  0.4389800000000  0.5178690000000  0.5478710000000 1.0
C      1  0.4849650000000  0.5617790000000  0.5478710000000 1.0
C      1  0.5459850000000  0.5439110000000  0.5478710000000 1.0
C      1  0.5610200000000  0.4821310000000  0.5478710000000 1.0
C      1  0.5150350000000  0.4382210000000  0.5478710000000 1.0
C      1  0.4540150000000  0.4560890000000  0.5478710000000 1.0
C      1  0.5619440000000  0.5199900000000  0.5485410000000 1.0
C      1  0.5136600000000  0.5636410000000  0.5485420000000 1.0
C      1  0.4517160000000  0.5436500000000  0.5485420000000 1.0
C      1  0.4380560000000  0.4800100000000  0.5485410000000 1.0
C      1  0.4863400000000  0.4363590000000  0.5485410000000 1.0
C      1  0.5482840000000  0.4563500000000  0.5485410000000 1.0
C      1  0.4468730000000  0.5610230000000  0.5252670000000 1.0
C      1  0.5262840000000  0.5765210000000  0.5252670000000 1.0
C      1  0.5794110000000  0.5154980000000  0.5252670000000 1.0
C      1  0.5531270000000  0.4389770000000  0.5252670000000 1.0
C      1  0.4737160000000  0.4234790000000  0.5252670000000 1.0
C      1  0.4205890000000  0.4845020000000  0.5252670000000 1.0
C      1  0.5517880000000  0.5626180000000  0.5260900000000 1.0
C      1  0.4716650000000  0.5761580000000  0.5260900000000 1.0
C      1  0.4198780000000  0.5135410000000  0.5260900000000 1.0
C      1  0.4482120000000  0.4373820000000  0.5260890000000 1.0
C      1  0.5283350000000  0.4238420000000  0.5260890000000 1.0
C      1  0.5801220000000  0.4864590000000  0.5260890000000 1.0
C      1  0.4842230000000  0.5781970000000  0.4999680000000 1.0
C      1  0.5598320000000  0.5527610000000  0.4999680000000 1.0
C      1  0.5756090000000  0.4745650000000  0.4999670000000 1.0
C      1  0.5157770000000  0.4218030000000  0.4999670000000 1.0
C      1  0.4401680000000  0.4472390000000  0.4999670000000 1.0
C      1  0.4243910000000  0.5254350000000  0.4999680000000 1.0
C      1  0.5125870000000  0.5744440000000  0.4992530000000 1.0
C      1  0.4418230000000  0.5481220000000  0.4992530000000 1.0
C      1  0.4292370000000  0.4736790000000  0.4992530000000 1.0
C      1  0.4874130000000  0.4255560000000  0.4992530000000 1.0
C      1  0.5581770000000  0.4518780000000  0.4992530000000 1.0
C      1  0.5707630000000  0.5263210000000  0.4992530000000 1.0
C      1  0.5739280000000  0.5108290000000  0.4744260000000 1.0
C      1  0.5463420000000  0.4413910000000  0.4744260000000 1.0
C      1  0.4724140000000  0.4305620000000  0.4744260000000 1.0
C      1  0.4260720000000  0.4891710000000  0.4744260000000 1.0
C      1  0.4536580000000  0.5586090000000  0.4744260000000 1.0
C      1  0.5275860000000  0.5694380000000  0.4744260000000 1.0
C      1  0.4126090000000  0.5136390000000  0.4774720000000 1.0
C      1  0.4444930000000  0.4311360000000  0.4774720000000 1.0
C      1  0.5318840000000  0.4174980000000  0.4774720000000 1.0
C      1  0.5873910000000  0.4863610000000  0.4774720000000 1.0
C      1  0.5555070000000  0.5688640000000  0.4774720000000 1.0
C      1  0.4681160000000  0.5825030000000  0.4774720000000 1.0
C      1  0.4627980000000  0.4685130000000  0.4466690000000 1.0
C      1  0.4541300000000  0.5164750000000  0.4466700000000 1.0
C      1  0.4913330000000  0.5479620000000  0.4466700000000 1.0
C      1  0.5372020000000  0.5314870000000  0.4466690000000 1.0
C      1  0.5458700000000  0.4835250000000  0.4466690000000 1.0
C      1  0.5086670000000  0.4520380000000  0.4466690000000 1.0
C      1  0.5344370000000  0.4592410000000  0.4544430000000 1.0
C      1  0.5525170000000  0.5094440000000  0.4544430000000 1.0
C      1  0.5180800000000  0.5502030000000  0.4544430000000 1.0
C      1  0.4655630000000  0.5407590000000  0.4544430000000 1.0
C      1  0.4474830000000  0.4905560000000  0.4544430000000 1.0
C      1  0.4819200000000  0.4497970000000  0.4544430000000 1.0
END
