TITL C-38199-1586-11 0.000853585867381956 125000 -366.330266999009 0 0 60 (C2) n - 1
REM
REM in /home/bkarasulu/CARBON/AIRSS/Generating-Clusters/EDIP-Nigel-Params/Higher-Symm/Box-15A/Only-C60/SD-CG/FIRE-HFTN
REM
REM
REM
REM
REM
REM ./C.cell (414f73aa93bd7a1190c7fd0f31ff2f98)
REM
REM compiler GCC version 9.2.1 20190827 (Red Hat 9.2.1-1)
REM options -cpp -mtune=generic -march=x86-64 -g -O0 -fpre-include=/usr/include/finclude/math-vector-fortran.h
REM seed -221021138 -1279999002 1284285832 1364062951 -16324196 -2102924908 -1524370246 -547506077 -2062196164 532608769 2067431241 1154518978 676097335 -669330250 2143148274 1458848938 -1995286289 -534578537 1993723637 1473040094 -803429929 99240360 -76778381 2065834813 -1737860581 1326328779 1034957837 903741408 -2007276312 1663305654 1910716269 1995710281 -532224749
REM
CELL 1.54180   50.00000   50.00000   50.00000   90.00000   90.00000   90.00000
LATT -1
SFAC C  
C      1  0.4397950000000  0.5381440000000  0.4713690000000 1.0
C      1  0.5602050000000  0.5381440000000  0.5286310000000 1.0
C      1  0.4372620000000  0.5378580000000  0.5282270000000 1.0
C      1  0.5627380000000  0.5378580000000  0.4717730000000 1.0
C      1  0.5221620000000  0.4538410000000  0.5170640000000 1.0
C      1  0.4778380000000  0.4538410000000  0.4829360000000 1.0
C      1  0.5162360000000  0.4524890000000  0.4859230000000 1.0
C      1  0.4837640000000  0.4524890000000  0.5140770000000 1.0
C      1  0.4871810000000  0.4785010000000  0.5292250000000 1.0
C      1  0.5128190000000  0.4785010000000  0.4707750000000 1.0
C      1  0.4857960000000  0.4756510000000  0.4636710000000 1.0
C      1  0.5142040000000  0.4756510000000  0.5363290000000 1.0
C      1  0.5143160000000  0.5919910000000  0.5347120000000 1.0
C      1  0.4856840000000  0.5919910000000  0.4652880000000 1.0
C      1  0.5123830000000  0.5878590000000  0.4645040000000 1.0
C      1  0.4876170000000  0.5878590000000  0.5354960000000 1.0
C      1  0.5273510000000  0.5649070000000  0.4693490000000 1.0
C      1  0.4726490000000  0.5649070000000  0.5306510000000 1.0
C      1  0.5264840000000  0.5674650000000  0.5287770000000 1.0
C      1  0.4735160000000  0.5674650000000  0.4712230000000 1.0
C      1  0.5520940000000  0.5618750000000  0.4846510000000 1.0
C      1  0.4479060000000  0.5618750000000  0.5153490000000 1.0
C      1  0.5517000000000  0.5624860000000  0.5146950000000 1.0
C      1  0.4483000000000  0.5624860000000  0.4853050000000 1.0
C      1  0.4704600000000  0.4955420000000  0.5445440000000 1.0
C      1  0.5295400000000  0.4955420000000  0.4554560000000 1.0
C      1  0.4705470000000  0.4981920000000  0.4566610000000 1.0
C      1  0.5294530000000  0.4981920000000  0.5433390000000 1.0
C      1  0.4366830000000  0.4624170000000  0.5142260000000 1.0
C      1  0.5633170000000  0.4624170000000  0.4857740000000 1.0
C      1  0.4348300000000  0.4623310000000  0.4848660000000 1.0
C      1  0.5651700000000  0.4623310000000  0.5151340000000 1.0
C      1  0.4718020000000  0.5461000000000  0.4516200000000 1.0
C      1  0.5281980000000  0.5461000000000  0.5483800000000 1.0
C      1  0.4682740000000  0.5440810000000  0.5503870000000 1.0
C      1  0.5317260000000  0.5440810000000  0.4496130000000 1.0
C      1  0.4667720000000  0.4296790000000  0.4703830000000 1.0
C      1  0.5332280000000  0.4296790000000  0.5296170000000 1.0
C      1  0.4703680000000  0.4311820000000  0.5287220000000 1.0
C      1  0.5296320000000  0.4311820000000  0.4712780000000 1.0
C      1  0.4371630000000  0.4881310000000  0.4712130000000 1.0
C      1  0.5628370000000  0.4881310000000  0.5287870000000 1.0
C      1  0.4375170000000  0.4881300000000  0.5280040000000 1.0
C      1  0.5624830000000  0.4881300000000  0.4719960000000 1.0
C      1  0.5660370000000  0.5131580000000  0.4860680000000 1.0
C      1  0.4339630000000  0.5131580000000  0.5139320000000 1.0
C      1  0.5647130000000  0.5133270000000  0.5146840000000 1.0
C      1  0.4352870000000  0.5133270000000  0.4853160000000 1.0
C      1  0.4396290000000  0.4382330000000  0.4700650000000 1.0
C      1  0.5603710000000  0.4382330000000  0.5299350000000 1.0
C      1  0.4435040000000  0.4390690000000  0.5288400000000 1.0
C      1  0.5564960000000  0.4390690000000  0.4711600000000 1.0
C      1  0.4865870000000  0.5218520000000  0.4540800000000 1.0
C      1  0.5134130000000  0.5218520000000  0.5459200000000 1.0
C      1  0.4843430000000  0.5203010000000  0.5507720000000 1.0
C      1  0.5156570000000  0.5203010000000  0.4492280000000 1.0
C      1  0.5124160000000  0.4179280000000  0.4537510000000 1.0
C      1  0.4875840000000  0.4179280000000  0.5462490000000 1.0
C      1  0.5146210000000  0.4172810000000  0.5464400000000 1.0
C      1  0.4853790000000  0.4172810000000  0.4535600000000 1.0
END
