TITL C-38185-7677-191 6.07213199372492e-05 125000 -367.158562926754 0 0 60 (C2) n - 1
REM
REM in /home/bkarasulu/CARBON/AIRSS/Generating-Clusters/EDIP-Nigel-Params/Higher-Symm/Box-15A/Only-C60/SD-CG/FIRE-HFTN
REM
REM
REM
REM
REM
REM ./C.cell (414f73aa93bd7a1190c7fd0f31ff2f98)
REM
REM compiler GCC version 9.2.1 20190827 (Red Hat 9.2.1-1)
REM options -cpp -mtune=generic -march=x86-64 -g -O0 -fpre-include=/usr/include/finclude/math-vector-fortran.h
REM seed -197167624 -1966465040 334249933 1473654635 -2125087477 248598852 2116869475 -1697129591 983857067 -721978007 765074204 -495683870 -1010324179 1025786522 -1539409515 1433920133 -2122744707 2052310597 -1848870220 -951713079 -1201719842 -1447585623 -400320103 -1610693623 -1319556822 690186363 1616245489 1210201906 -1498894886 1198663053 -1106479248 2068270639 -1920306770
REM
CELL 1.54180   50.00000   50.00000   50.00000   90.00000   90.00000   90.00000
LATT -1
SFAC C  
C      1  0.4940020000000  0.4552380000000  0.5126080000000 1.0
C      1  0.5059980000000  0.5447620000000  0.5126080000000 1.0
C      1  0.4742860000000  0.5392100000000  0.4698160000000 1.0
C      1  0.5257140000000  0.4607900000000  0.4698160000000 1.0
C      1  0.4915510000000  0.4168600000000  0.5114280000000 1.0
C      1  0.5084490000000  0.5831400000000  0.5114280000000 1.0
C      1  0.4305790000000  0.4681290000000  0.5100850000000 1.0
C      1  0.5694210000000  0.5318710000000  0.5100850000000 1.0
C      1  0.5506050000000  0.4955070000000  0.4926660000000 1.0
C      1  0.4493950000000  0.5044930000000  0.4926660000000 1.0
C      1  0.4994830000000  0.4781950000000  0.4934920000000 1.0
C      1  0.5005170000000  0.5218050000000  0.4934920000000 1.0
C      1  0.4477230000000  0.5329910000000  0.4828710000000 1.0
C      1  0.5522770000000  0.4670090000000  0.4828710000000 1.0
C      1  0.5322860000000  0.5369260000000  0.5463310000000 1.0
C      1  0.4677140000000  0.4630740000000  0.5463310000000 1.0
C      1  0.5027000000000  0.5324660000000  0.4310260000000 1.0
C      1  0.4973000000000  0.4675340000000  0.4310260000000 1.0
C      1  0.5395250000000  0.4691860000000  0.5599280000000 1.0
C      1  0.4604750000000  0.5308140000000  0.5599280000000 1.0
C      1  0.5319730000000  0.5659460000000  0.5023690000000 1.0
C      1  0.4680270000000  0.4340540000000  0.5023690000000 1.0
C      1  0.4721700000000  0.4762560000000  0.4390480000000 1.0
C      1  0.5278300000000  0.5237440000000  0.4390480000000 1.0
C      1  0.5186920000000  0.4217580000000  0.5010270000000 1.0
C      1  0.4813080000000  0.5782420000000  0.5010270000000 1.0
C      1  0.4774940000000  0.5284770000000  0.4421020000000 1.0
C      1  0.5225060000000  0.4715230000000  0.4421020000000 1.0
C      1  0.4831910000000  0.5679800000000  0.4726800000000 1.0
C      1  0.5168090000000  0.4320200000000  0.4726800000000 1.0
C      1  0.5346800000000  0.4402890000000  0.5187220000000 1.0
C      1  0.4653200000000  0.5597110000000  0.5187220000000 1.0
C      1  0.4912600000000  0.4269290000000  0.4617330000000 1.0
C      1  0.5087400000000  0.5730710000000  0.4617330000000 1.0
C      1  0.4670250000000  0.5034250000000  0.4361910000000 1.0
C      1  0.5329750000000  0.4965750000000  0.4361910000000 1.0
C      1  0.5236790000000  0.4524310000000  0.5443510000000 1.0
C      1  0.4763210000000  0.5475690000000  0.5443510000000 1.0
C      1  0.5716340000000  0.5026600000000  0.5144540000000 1.0
C      1  0.4283660000000  0.4973400000000  0.5144540000000 1.0
C      1  0.4428110000000  0.5496790000000  0.5050100000000 1.0
C      1  0.5571890000000  0.4503210000000  0.5050100000000 1.0
C      1  0.5418230000000  0.5167910000000  0.5631100000000 1.0
C      1  0.4581770000000  0.4832090000000  0.5631100000000 1.0
C      1  0.4417040000000  0.4801940000000  0.4759770000000 1.0
C      1  0.5582960000000  0.5198060000000  0.4759770000000 1.0
C      1  0.5546250000000  0.4923280000000  0.5606910000000 1.0
C      1  0.4453750000000  0.5076720000000  0.5606910000000 1.0
C      1  0.4519830000000  0.4525500000000  0.5227560000000 1.0
C      1  0.5480170000000  0.5474500000000  0.5227560000000 1.0
C      1  0.4949230000000  0.4527130000000  0.5510960000000 1.0
C      1  0.5050770000000  0.5472870000000  0.5510960000000 1.0
C      1  0.5219920000000  0.4987800000000  0.5010350000000 1.0
C      1  0.4780080000000  0.5012200000000  0.5010350000000 1.0
C      1  0.5367130000000  0.5340950000000  0.4642140000000 1.0
C      1  0.4632870000000  0.4659050000000  0.4642140000000 1.0
C      1  0.4267180000000  0.5066850000000  0.5405820000000 1.0
C      1  0.5732820000000  0.4933150000000  0.5405820000000 1.0
C      1  0.4682370000000  0.4387240000000  0.4726040000000 1.0
C      1  0.5317630000000  0.5612760000000  0.4726040000000 1.0
END
