TITL C-38198-1686-165 -6.66957264950952e-06 125000 -360.611314811597 0 0 60 (C1) n - 1
REM
REM in /home/bkarasulu/CARBON/AIRSS/Generating-Clusters/EDIP-Nigel-Params/Higher-Symm/Box-15A/Only-C60/SD-CG/FIRE-HFTN
REM
REM
REM
REM
REM
REM ./C.cell (414f73aa93bd7a1190c7fd0f31ff2f98)
REM
REM compiler GCC version 9.2.1 20190827 (Red Hat 9.2.1-1)
REM options -cpp -mtune=generic -march=x86-64 -g -O0 -fpre-include=/usr/include/finclude/math-vector-fortran.h
REM seed -1485111076 708264552 1460905858 1643160816 932471837 168926947 -1590585909 -316597288 -577780874 1114515090 -156190268 1353631004 1681019897 -124757224 326494942 1106198372 1352103078 1309659182 -2140422422 -2032307465 -1845064280 -509202709 -1382744021 -357610395 809826295 1740897794 2002914721 681527709 -2013144495 1875159402 -656717655 -308844618 -1216631838
REM
CELL 1.54180   50.00000   50.00000   50.00000   90.00000   90.00000   90.00000
LATT -1
SFAC C  
C      1  0.4597790000000  0.4407580000000  0.4810870000000 1.0
C      1  0.4812140000000  0.4604870000000  0.4357540000000 1.0
C      1  0.4398100000000  0.4829960000000  0.4601180000000 1.0
C      1  0.5362670000000  0.4473940000000  0.5136710000000 1.0
C      1  0.4648720000000  0.5524850000000  0.5133370000000 1.0
C      1  0.5430520000000  0.5613860000000  0.4852790000000 1.0
C      1  0.5159190000000  0.4660110000000  0.5569100000000 1.0
C      1  0.4825280000000  0.5384380000000  0.5597810000000 1.0
C      1  0.5162380000000  0.5391230000000  0.4449610000000 1.0
C      1  0.5601210000000  0.4849860000000  0.5404060000000 1.0
C      1  0.4476700000000  0.5097030000000  0.5350000000000 1.0
C      1  0.5533640000000  0.5134510000000  0.4667780000000 1.0
C      1  0.4811220000000  0.4378710000000  0.4593600000000 1.0
C      1  0.4365970000000  0.4603300000000  0.4799520000000 1.0
C      1  0.4627920000000  0.4839510000000  0.4404400000000 1.0
C      1  0.5153730000000  0.4460420000000  0.5344390000000 1.0
C      1  0.5200110000000  0.5614380000000  0.4650740000000 1.0
C      1  0.4847330000000  0.5560540000000  0.5350640000000 1.0
C      1  0.5599910000000  0.4658540000000  0.5174560000000 1.0
C      1  0.5594550000000  0.5346590000000  0.4865800000000 1.0
C      1  0.4439770000000  0.5320970000000  0.5152350000000 1.0
C      1  0.5336580000000  0.4895300000000  0.5535540000000 1.0
C      1  0.5349020000000  0.5162250000000  0.4446480000000 1.0
C      1  0.4634760000000  0.5156110000000  0.5611360000000 1.0
C      1  0.4339800000000  0.5247910000000  0.4902440000000 1.0
C      1  0.4904590000000  0.4370150000000  0.5245960000000 1.0
C      1  0.5246980000000  0.4925020000000  0.4334220000000 1.0
C      1  0.5728470000000  0.5270390000000  0.5107250000000 1.0
C      1  0.4250660000000  0.4697840000000  0.5045640000000 1.0
C      1  0.5708830000000  0.4755580000000  0.4935760000000 1.0
C      1  0.5072080000000  0.4334890000000  0.4709600000000 1.0
C      1  0.4954170000000  0.5682720000000  0.4766690000000 1.0
C      1  0.5101700000000  0.5665500000000  0.5274590000000 1.0
C      1  0.4764430000000  0.4932330000000  0.5726490000000 1.0
C      1  0.5278030000000  0.5128660000000  0.5697200000000 1.0
C      1  0.4731950000000  0.5091990000000  0.4348760000000 1.0
C      1  0.4892380000000  0.5303530000000  0.4405560000000 1.0
C      1  0.5280210000000  0.4368290000000  0.4881340000000 1.0
C      1  0.4434550000000  0.4806110000000  0.5235350000000 1.0
C      1  0.5071850000000  0.5316010000000  0.5732940000000 1.0
C      1  0.5079050000000  0.4710750000000  0.4301050000000 1.0
C      1  0.4877490000000  0.4747110000000  0.5545210000000 1.0
C      1  0.4680670000000  0.4335160000000  0.5083570000000 1.0
C      1  0.4731330000000  0.5546620000000  0.4857860000000 1.0
C      1  0.5318920000000  0.5713240000000  0.5109330000000 1.0
C      1  0.5563050000000  0.4855930000000  0.4723850000000 1.0
C      1  0.5731990000000  0.5090520000000  0.5318860000000 1.0
C      1  0.4301130000000  0.5081760000000  0.4694850000000 1.0
C      1  0.5137920000000  0.5231640000000  0.5329340000000 1.0
C      1  0.5355000000000  0.5101210000000  0.5144490000000 1.0
C      1  0.5176480000000  0.5335940000000  0.4993070000000 1.0
C      1  0.5051200000000  0.5175990000000  0.4772870000000 1.0
C      1  0.4950310000000  0.4746720000000  0.4695030000000 1.0
C      1  0.4911930000000  0.4845530000000  0.5251350000000 1.0
C      1  0.5187570000000  0.4892870000000  0.4795470000000 1.0
C      1  0.4776630000000  0.5167440000000  0.4909380000000 1.0
C      1  0.5201630000000  0.4827270000000  0.5099350000000 1.0
C      1  0.4687970000000  0.4721080000000  0.5103140000000 1.0
C      1  0.4710540000000  0.4869820000000  0.4834250000000 1.0
C      1  0.4839320000000  0.5137700000000  0.5227710000000 1.0
END
