TITL C-38192-7909-536 2.42552039556071e-05 125000 -363.565333342492 0 0 60 (C1) n - 1
REM
REM in /home/bkarasulu/CARBON/AIRSS/Generating-Clusters/EDIP-Nigel-Params/Higher-Symm/Box-15A/Only-C60/SD-CG/FIRE-HFTN
REM
REM
REM
REM
REM
REM ./C.cell (414f73aa93bd7a1190c7fd0f31ff2f98)
REM
REM compiler GCC version 9.2.1 20190827 (Red Hat 9.2.1-1)
REM options -cpp -mtune=generic -march=x86-64 -g -O0 -fpre-include=/usr/include/finclude/math-vector-fortran.h
REM seed -418552634 -807324228 -367627910 338073788 -807236191 -1753112953 1852082758 -1809863762 -1028547148 675870574 -107361353 -1348122500 -709026237 1672189353 -1414465976 1508781727 1101099610 -589914101 -133666912 -2005075403 281829235 1676793336 -995860666 542404840 -1763756619 1556102933 755718156 1279518399 -293852221 -763579774 -384853283 -454863426 558831489
REM
CELL 1.54180   50.00000   50.00000   50.00000   90.00000   90.00000   90.00000
LATT -1
SFAC C  
C      1  0.5493580000000  0.5016230000000  0.5531430000000 1.0
C      1  0.5509780000000  0.5463740000000  0.5338140000000 1.0
C      1  0.5504440000000  0.5544190000000  0.4850090000000 1.0
C      1  0.5502330000000  0.5197050000000  0.4508430000000 1.0
C      1  0.5533980000000  0.4711630000000  0.4493880000000 1.0
C      1  0.5510270000000  0.4423770000000  0.4888390000000 1.0
C      1  0.5502570000000  0.4563550000000  0.5358970000000 1.0
C      1  0.4645580000000  0.5479480000000  0.5355250000000 1.0
C      1  0.4626300000000  0.5586770000000  0.4830610000000 1.0
C      1  0.4617910000000  0.5243750000000  0.4416920000000 1.0
C      1  0.4645860000000  0.4695250000000  0.4442390000000 1.0
C      1  0.4627690000000  0.4379930000000  0.4872570000000 1.0
C      1  0.4642400000000  0.4536690000000  0.5379070000000 1.0
C      1  0.4632420000000  0.5014660000000  0.5621690000000 1.0
C      1  0.5010580000000  0.5242360000000  0.5183430000000 1.0
C      1  0.4949240000000  0.5297250000000  0.4919020000000 1.0
C      1  0.4903850000000  0.5097210000000  0.4722500000000 1.0
C      1  0.5130640000000  0.4871360000000  0.4740410000000 1.0
C      1  0.4924830000000  0.4705970000000  0.4926620000000 1.0
C      1  0.5007670000000  0.4758880000000  0.5193660000000 1.0
C      1  0.4939360000000  0.5003290000000  0.5304250000000 1.0
C      1  0.4537380000000  0.4454010000000  0.5129860000000 1.0
C      1  0.4542820000000  0.4767690000000  0.5511490000000 1.0
C      1  0.4543740000000  0.5257090000000  0.5500750000000 1.0
C      1  0.4540500000000  0.5544360000000  0.5098880000000 1.0
C      1  0.4528890000000  0.5417740000000  0.4623030000000 1.0
C      1  0.4549150000000  0.4965690000000  0.4414550000000 1.0
C      1  0.4540030000000  0.4526210000000  0.4646600000000 1.0
C      1  0.5357220000000  0.5443840000000  0.4602440000000 1.0
C      1  0.5384900000000  0.4950130000000  0.4386840000000 1.0
C      1  0.5367330000000  0.4512840000000  0.4642270000000 1.0
C      1  0.5366140000000  0.4385510000000  0.5150830000000 1.0
C      1  0.5369920000000  0.4744850000000  0.5569790000000 1.0
C      1  0.5372880000000  0.5289850000000  0.5558750000000 1.0
C      1  0.5371840000000  0.5622850000000  0.5111960000000 1.0
C      1  0.4920550000000  0.5238530000000  0.4438130000000 1.0
C      1  0.4941030000000  0.4662690000000  0.4407450000000 1.0
C      1  0.4929370000000  0.4397950000000  0.4873010000000 1.0
C      1  0.4945860000000  0.4533150000000  0.5377950000000 1.0
C      1  0.4938900000000  0.5014490000000  0.5597200000000 1.0
C      1  0.4951040000000  0.5478780000000  0.5354410000000 1.0
C      1  0.4932930000000  0.5580200000000  0.4832880000000 1.0
C      1  0.5741460000000  0.4616800000000  0.4931670000000 1.0
C      1  0.5713980000000  0.4724000000000  0.5217570000000 1.0
C      1  0.5681890000000  0.5010010000000  0.5308300000000 1.0
C      1  0.5724720000000  0.5291660000000  0.5209540000000 1.0
C      1  0.5726900000000  0.5346830000000  0.4911610000000 1.0
C      1  0.5696040000000  0.5115180000000  0.4715760000000 1.0
C      1  0.5749850000000  0.4811920000000  0.4688070000000 1.0
C      1  0.5076440000000  0.5309090000000  0.5614720000000 1.0
C      1  0.5073670000000  0.5674380000000  0.5116950000000 1.0
C      1  0.5066660000000  0.5502280000000  0.4545600000000 1.0
C      1  0.5086270000000  0.4933850000000  0.4353480000000 1.0
C      1  0.5079020000000  0.4460340000000  0.4591580000000 1.0
C      1  0.5070320000000  0.4324290000000  0.5155870000000 1.0
C      1  0.5074690000000  0.4725740000000  0.5628040000000 1.0
C      1  0.4470790000000  0.4996520000000  0.5009600000000 1.0
C      1  0.4254300000000  0.5059130000000  0.5132630000000 1.0
C      1  0.5322390000000  0.4970140000000  0.4903020000000 1.0
C      1  0.4663060000000  0.4903050000000  0.4830180000000 1.0
END
