TITL C-38197-8510-447 -5.67360141471884e-06 125000 -361.740137604053 0 0 60 (C5) n - 1
REM
REM in /home/bkarasulu/CARBON/AIRSS/Generating-Clusters/EDIP-Nigel-Params/Higher-Symm/Box-15A/Only-C60/SD-CG/FIRE-HFTN
REM
REM
REM
REM
REM
REM ./C.cell (414f73aa93bd7a1190c7fd0f31ff2f98)
REM
REM compiler GCC version 9.2.1 20190827 (Red Hat 9.2.1-1)
REM options -cpp -mtune=generic -march=x86-64 -g -O0 -fpre-include=/usr/include/finclude/math-vector-fortran.h
REM seed 831199591 1226157447 -360968925 -930487709 -1299037625 -791763659 -1246385634 1747746929 -202229170 1977711074 -1184748853 205449529 -1901868377 -1926637705 -947085549 -2054259925 1735584153 -431400012 -1849585850 -172740076 -1446120537 1545104921 1468756238 -489934584 1840844969 -141897790 1445759287 -1880984414 -1326794169 -333457016 1239776227 521168826 930255358
REM
CELL 1.54180   50.00000   50.00000   50.00000   90.00000   90.00000   90.00000
LATT -1
SFAC C  
C      1  0.4074540000000  0.5340370000000  0.4793910000000 1.0
C      1  0.5037730000000  0.5985350000000  0.4793910000000 1.0
C      1  0.5948780000000  0.5268610000000  0.4793910000000 1.0
C      1  0.5548650000000  0.4180660000000  0.4793910000000 1.0
C      1  0.4390310000000  0.4225010000000  0.4793910000000 1.0
C      1  0.5418870000000  0.5321560000000  0.5520860000000 1.0
C      1  0.5435260000000  0.4701000000000  0.5520860000000 1.0
C      1  0.4850140000000  0.4493650000000  0.5520860000000 1.0
C      1  0.4472120000000  0.4986060000000  0.5520860000000 1.0
C      1  0.4823620000000  0.5497730000000  0.5520860000000 1.0
C      1  0.4108490000000  0.5055480000000  0.5431280000000 1.0
C      1  0.4777270000000  0.5865020000000  0.5431280000000 1.0
C      1  0.5753860000000  0.5479130000000  0.5431280000000 1.0
C      1  0.5688640000000  0.4431100000000  0.5431280000000 1.0
C      1  0.4671740000000  0.4169270000000  0.5431280000000 1.0
C      1  0.5134760000000  0.5203140000000  0.4527440000000 1.0
C      1  0.5234840000000  0.4934600000000  0.4527440000000 1.0
C      1  0.5010370000000  0.4756450000000  0.4527440000000 1.0
C      1  0.4771570000000  0.4914870000000  0.4527440000000 1.0
C      1  0.4848450000000  0.5190940000000  0.4527440000000 1.0
C      1  0.4930130000000  0.4766400000000  0.5521240000000 1.0
C      1  0.4756250000000  0.4994260000000  0.5521240000000 1.0
C      1  0.4919220000000  0.5230050000000  0.5521240000000 1.0
C      1  0.5193830000000  0.5147920000000  0.5521240000000 1.0
C      1  0.5200570000000  0.4861370000000  0.5521240000000 1.0
C      1  0.5653960000000  0.5631220000000  0.4754170000000 1.0
C      1  0.5802410000000  0.4573100000000  0.4754170000000 1.0
C      1  0.4841960000000  0.4104940000000  0.4754170000000 1.0
C      1  0.4099910000000  0.4873720000000  0.4754170000000 1.0
C      1  0.4601760000000  0.5817020000000  0.4754170000000 1.0
C      1  0.5286500000000  0.5432280000000  0.4533990000000 1.0
C      1  0.5499660000000  0.4861100000000  0.4533990000000 1.0
C      1  0.5022300000000  0.4481880000000  0.4533990000000 1.0
C      1  0.4514130000000  0.4818680000000  0.4533990000000 1.0
C      1  0.4677410000000  0.5406060000000  0.4533990000000 1.0
C      1  0.5410530000000  0.5658020000000  0.4629690000000 1.0
C      1  0.5752680000000  0.4812900000000  0.4629690000000 1.0
C      1  0.5054650000000  0.4226340000000  0.4629690000000 1.0
C      1  0.4281090000000  0.4708950000000  0.4629690000000 1.0
C      1  0.4501040000000  0.5593780000000  0.4629690000000 1.0
C      1  0.4584520000000  0.4416020000000  0.5522330000000 1.0
C      1  0.4316210000000  0.5214690000000  0.5522330000000 1.0
C      1  0.4992880000000  0.5716670000000  0.5522330000000 1.0
C      1  0.5679390000000  0.5228240000000  0.5522330000000 1.0
C      1  0.5427010000000  0.4424390000000  0.5522330000000 1.0
C      1  0.4277550000000  0.4441310000000  0.4689170000000 1.0
C      1  0.4245410000000  0.5514450000000  0.4689170000000 1.0
C      1  0.5256090000000  0.5876630000000  0.4689170000000 1.0
C      1  0.5912860000000  0.5027340000000  0.4689170000000 1.0
C      1  0.5308090000000  0.4140270000000  0.4689170000000 1.0
C      1  0.5837950000000  0.5523290000000  0.5174680000000 1.0
C      1  0.5756620000000  0.4364770000000  0.5174680000000 1.0
C      1  0.4629660000000  0.4084120000000  0.5174680000000 1.0
C      1  0.4014500000000  0.5069190000000  0.5174680000000 1.0
C      1  0.4761260000000  0.5958640000000  0.5174680000000 1.0
C      1  0.5844350000000  0.5498470000000  0.4901240000000 1.0
C      1  0.5735000000000  0.4351010000000  0.4901240000000 1.0
C      1  0.4609900000000  0.4100430000000  0.4901240000000 1.0
C      1  0.4023910000000  0.5093020000000  0.4901240000000 1.0
C      1  0.4786840000000  0.5957060000000  0.4901240000000 1.0
END
