TITL C-38197-8510-65 -0.000979992066643364 125000 -369.113491447346 0 0 60 (C3) n - 1
REM
REM in /home/bkarasulu/CARBON/AIRSS/Generating-Clusters/EDIP-Nigel-Params/Higher-Symm/Box-15A/Only-C60/SD-CG/FIRE-HFTN
REM
REM
REM
REM
REM
REM ./C.cell (414f73aa93bd7a1190c7fd0f31ff2f98)
REM
REM compiler GCC version 9.2.1 20190827 (Red Hat 9.2.1-1)
REM options -cpp -mtune=generic -march=x86-64 -g -O0 -fpre-include=/usr/include/finclude/math-vector-fortran.h
REM seed -958400782 944819547 -1614599235 -275570362 -1944420586 1670326485 413208234 1296592336 2050810654 892267278 1526964078 407697318 -52326543 134059699 -1447834903 1591317640 596074047 981314730 543336229 1971480855 1510635006 -957706751 -1600212699 1228042874 824848547 289081155 -1756253670 876021252 -1298631014 1972434601 2045758187 -62203116 1761185099
REM
CELL 1.54180   50.00000   50.00000   50.00000   90.00000   90.00000   90.00000
LATT -1
SFAC C  
C      1  0.4746810000000  0.5272940000000  0.4301020000000 1.0
C      1  0.4746990000000  0.5473180000000  0.5597740000000 1.0
C      1  0.4747700000000  0.4250070000000  0.5122790000000 1.0
C      1  0.4744350000000  0.4678700000000  0.5501540000000 1.0
C      1  0.4744060000000  0.4730620000000  0.4482860000000 1.0
C      1  0.4743630000000  0.5586860000000  0.5037160000000 1.0
C      1  0.4745530000000  0.4958900000000  0.5580810000000 1.0
C      1  0.4745600000000  0.4521870000000  0.4685880000000 1.0
C      1  0.4744950000000  0.5515420000000  0.4754870000000 1.0
C      1  0.5341950000000  0.5253340000000  0.5159400000000 1.0
C      1  0.5342290000000  0.4740070000000  0.5151010000000 1.0
C      1  0.5342010000000  0.5003970000000  0.4710700000000 1.0
C      1  0.4495060000000  0.4623200000000  0.5343060000000 1.0
C      1  0.4494670000000  0.4895420000000  0.4514270000000 1.0
C      1  0.4494440000000  0.5477060000000  0.5164410000000 1.0
C      1  0.4968510000000  0.4531610000000  0.4866460000000 1.0
C      1  0.4967910000000  0.5354330000000  0.4672790000000 1.0
C      1  0.4968270000000  0.5110690000000  0.5482130000000 1.0
C      1  0.5207780000000  0.4643720000000  0.4386470000000 1.0
C      1  0.5207220000000  0.5714150000000  0.5009660000000 1.0
C      1  0.5208090000000  0.4639240000000  0.5625080000000 1.0
C      1  0.4348850000000  0.4888920000000  0.5290460000000 1.0
C      1  0.4348780000000  0.4807990000000  0.4770830000000 1.0
C      1  0.4348500000000  0.5298470000000  0.4960560000000 1.0
C      1  0.5057870000000  0.5178250000000  0.5217090000000 1.0
C      1  0.5058130000000  0.4727430000000  0.5057400000000 1.0
C      1  0.5057810000000  0.5091140000000  0.4746820000000 1.0
C      1  0.4986900000000  0.4943410000000  0.4108390000000 1.0
C      1  0.4986640000000  0.5804960000000  0.5408440000000 1.0
C      1  0.4987700000000  0.4248310000000  0.5504540000000 1.0
C      1  0.5470320000000  0.4526750000000  0.4761810000000 1.0
C      1  0.5469700000000  0.5447790000000  0.4720440000000 1.0
C      1  0.5470180000000  0.5023100000000  0.5538760000000 1.0
C      1  0.4999600000000  0.5206850000000  0.4196240000000 1.0
C      1  0.4999680000000  0.5597170000000  0.5592650000000 1.0
C      1  0.5000530000000  0.4192680000000  0.5232470000000 1.0
C      1  0.4482420000000  0.4535070000000  0.4830100000000 1.0
C      1  0.4481820000000  0.5383710000000  0.4694430000000 1.0
C      1  0.4482220000000  0.5076880000000  0.5497210000000 1.0
C      1  0.5429350000000  0.5284000000000  0.5444570000000 1.0
C      1  0.5429790000000  0.4477850000000  0.5034890000000 1.0
C      1  0.5429160000000  0.5235710000000  0.4541590000000 1.0
C      1  0.4963490000000  0.5756530000000  0.5135130000000 1.0
C      1  0.4964440000000  0.4509200000000  0.5599280000000 1.0
C      1  0.4963970000000  0.4730900000000  0.4286980000000 1.0
C      1  0.5238580000000  0.4277710000000  0.5102110000000 1.0
C      1  0.5237720000000  0.5277420000000  0.4334840000000 1.0
C      1  0.5237920000000  0.5442040000000  0.5584240000000 1.0
C      1  0.4527690000000  0.4432160000000  0.5111300000000 1.0
C      1  0.4527020000000  0.5191670000000  0.4464670000000 1.0
C      1  0.4527140000000  0.5371920000000  0.5445740000000 1.0
C      1  0.5383620000000  0.4770660000000  0.5453950000000 1.0
C      1  0.5383440000000  0.4726360000000  0.4585680000000 1.0
C      1  0.5383020000000  0.5500450000000  0.4981450000000 1.0
C      1  0.5741750000000  0.4999410000000  0.5006930000000 1.0
C      1  0.4685590000000  0.4998690000000  0.5007200000000 1.0
C      1  0.4962650000000  0.4998870000000  0.5007130000000 1.0
C      1  0.5997330000000  0.4987670000000  0.5011100000000 1.0
C      1  0.4405540000000  0.4998500000000  0.5007270000000 1.0
C      1  0.5458760000000  0.4999210000000  0.5007010000000 1.0
END
