TITL C-38187-2739-316 -3.49559482880181e-05 125000 -340.187564772515 0 0 60 (C1) n - 1
REM
REM in /home/bkarasulu/CARBON/AIRSS/Generating-Clusters/EDIP-Nigel-Params/Higher-Symm/Box-15A/Only-C60/SD-CG/FIRE-HFTN
REM
REM
REM
REM
REM
REM ./C.cell (414f73aa93bd7a1190c7fd0f31ff2f98)
REM
REM compiler GCC version 9.2.1 20190827 (Red Hat 9.2.1-1)
REM options -cpp -mtune=generic -march=x86-64 -g -O0 -fpre-include=/usr/include/finclude/math-vector-fortran.h
REM seed 1595676131 -1900250207 89515955 132446480 -1540466303 -1582399418 1377032655 1779909086 -87537670 -286981878 -1134013760 -1965315925 -725449935 1552294115 616495556 -1858550962 -869155637 -1495358428 -797831826 454814423 824923481 -1326945517 1444253290 600319119 332006154 -1511808097 -1798701952 -1311539950 -221434058 -227479370 1600704229 -212099556 -768825575
REM
CELL 1.54180   50.00000   50.00000   50.00000   90.00000   90.00000   90.00000
LATT -1
SFAC C  
C      1  0.4533230000000  0.4923690000000  0.4404910000000 1.0
C      1  0.5744260000000  0.4814070000000  0.4869710000000 1.0
C      1  0.4735150000000  0.4780730000000  0.5699330000000 1.0
C      1  0.4514640000000  0.5205960000000  0.4426090000000 1.0
C      1  0.5743130000000  0.5096800000000  0.4892920000000 1.0
C      1  0.4714570000000  0.5063450000000  0.5703430000000 1.0
C      1  0.5249210000000  0.5201710000000  0.5697330000000 1.0
C      1  0.4270430000000  0.5192530000000  0.4863000000000 1.0
C      1  0.5472610000000  0.5174690000000  0.4430860000000 1.0
C      1  0.5249430000000  0.4826000000000  0.5696980000000 1.0
C      1  0.4272420000000  0.4816640000000  0.4874680000000 1.0
C      1  0.5484360000000  0.4799490000000  0.4434230000000 1.0
C      1  0.5097830000000  0.5524550000000  0.4486600000000 1.0
C      1  0.5366840000000  0.5557470000000  0.5324500000000 1.0
C      1  0.4524930000000  0.5545110000000  0.5149850000000 1.0
C      1  0.5107710000000  0.4445380000000  0.4531230000000 1.0
C      1  0.5397730000000  0.4486140000000  0.5344690000000 1.0
C      1  0.4515230000000  0.4464810000000  0.5172020000000 1.0
C      1  0.5287060000000  0.5242920000000  0.5069680000000 1.0
C      1  0.4788230000000  0.5236290000000  0.5231840000000 1.0
C      1  0.4901630000000  0.5235860000000  0.4755460000000 1.0
C      1  0.5271930000000  0.4778110000000  0.5038840000000 1.0
C      1  0.4830570000000  0.4769280000000  0.5197840000000 1.0
C      1  0.4912670000000  0.4766430000000  0.4701560000000 1.0
C      1  0.4703990000000  0.4381150000000  0.5357680000000 1.0
C      1  0.4847190000000  0.4373590000000  0.4606690000000 1.0
C      1  0.5479310000000  0.4394830000000  0.5098200000000 1.0
C      1  0.4716180000000  0.5625160000000  0.5337350000000 1.0
C      1  0.4845790000000  0.5619230000000  0.4548340000000 1.0
C      1  0.5425310000000  0.5628660000000  0.5058350000000 1.0
C      1  0.5196580000000  0.4852150000000  0.4768170000000 1.0
C      1  0.5098310000000  0.4844640000000  0.5261850000000 1.0
C      1  0.4725430000000  0.4836020000000  0.4935960000000 1.0
C      1  0.5182100000000  0.5169470000000  0.4794200000000 1.0
C      1  0.5086100000000  0.5163910000000  0.5285180000000 1.0
C      1  0.4704970000000  0.5156060000000  0.4950780000000 1.0
C      1  0.5335250000000  0.4614450000000  0.4626280000000 1.0
C      1  0.5176630000000  0.4637550000000  0.5468230000000 1.0
C      1  0.4506430000000  0.4626320000000  0.4920730000000 1.0
C      1  0.5315800000000  0.5366460000000  0.4609950000000 1.0
C      1  0.5165570000000  0.5391740000000  0.5474410000000 1.0
C      1  0.4505440000000  0.5383650000000  0.4901370000000 1.0
C      1  0.4821820000000  0.4884010000000  0.4444760000000 1.0
C      1  0.5561490000000  0.4826950000000  0.5106110000000 1.0
C      1  0.4626620000000  0.4810650000000  0.5420810000000 1.0
C      1  0.4811750000000  0.5188510000000  0.4468100000000 1.0
C      1  0.5561050000000  0.5132680000000  0.5122110000000 1.0
C      1  0.4607470000000  0.5115690000000  0.5434710000000 1.0
C      1  0.4924300000000  0.5552320000000  0.5504230000000 1.0
C      1  0.4608080000000  0.5552040000000  0.4675460000000 1.0
C      1  0.5459350000000  0.5542830000000  0.4795780000000 1.0
C      1  0.4938320000000  0.4456170000000  0.5488810000000 1.0
C      1  0.4600000000000  0.4454940000000  0.4702870000000 1.0
C      1  0.5487680000000  0.4457880000000  0.4828960000000 1.0
C      1  0.4083590000000  0.4870990000000  0.5082870000000 1.0
C      1  0.5390690000000  0.4841640000000  0.4166780000000 1.0
C      1  0.5524560000000  0.4874660000000  0.5761140000000 1.0
C      1  0.4081640000000  0.5150060000000  0.5074080000000 1.0
C      1  0.5384380000000  0.5120870000000  0.4163550000000 1.0
C      1  0.5524990000000  0.5153970000000  0.5757570000000 1.0
END
