TITL C-38187-2739-359 2.7316981603984e-05 125000 -365.134250684112 0 0 60 (C1) n - 1
REM
REM in /home/bkarasulu/CARBON/AIRSS/Generating-Clusters/EDIP-Nigel-Params/Higher-Symm/Box-15A/Only-C60/SD-CG/FIRE-HFTN
REM
REM
REM
REM
REM
REM ./C.cell (414f73aa93bd7a1190c7fd0f31ff2f98)
REM
REM compiler GCC version 9.2.1 20190827 (Red Hat 9.2.1-1)
REM options -cpp -mtune=generic -march=x86-64 -g -O0 -fpre-include=/usr/include/finclude/math-vector-fortran.h
REM seed 810199891 -1793058167 -2127834778 -575776102 117239570 -1064466378 188640381 2020791815 1821134286 -2072056546 -1042238042 1056690094 -205782956 1677431910 480636993 1284101713 1748488649 1935048592 -262265525 -1669728763 -1484867377 -1690686635 -945720822 -999923146 -995678504 -533972830 -2117779984 -1407837909 -1100193057 -1504556498 -1956267659 428454697 1901782836
REM
CELL 1.54180   50.00000   50.00000   50.00000   90.00000   90.00000   90.00000
LATT -1
SFAC C  
C      1  0.5377660000000  0.4404650000000  0.4478250000000 1.0
C      1  0.4361330000000  0.4986190000000  0.4958980000000 1.0
C      1  0.5537380000000  0.4698950000000  0.4771000000000 1.0
C      1  0.5331170000000  0.5395200000000  0.5746900000000 1.0
C      1  0.4968830000000  0.4836600000000  0.5907510000000 1.0
C      1  0.4407630000000  0.5530870000000  0.5050810000000 1.0
C      1  0.5363020000000  0.4475490000000  0.4757600000000 1.0
C      1  0.5177380000000  0.4651180000000  0.5285080000000 1.0
C      1  0.5159880000000  0.5112780000000  0.5406440000000 1.0
C      1  0.4726260000000  0.4957520000000  0.5849240000000 1.0
C      1  0.5389260000000  0.5548550000000  0.5129790000000 1.0
C      1  0.5590980000000  0.4787720000000  0.5037070000000 1.0
C      1  0.4584970000000  0.4836850000000  0.5645150000000 1.0
C      1  0.5040370000000  0.5724160000000  0.4737450000000 1.0
C      1  0.4864680000000  0.5408760000000  0.5642940000000 1.0
C      1  0.4888500000000  0.5562060000000  0.4928760000000 1.0
C      1  0.4991260000000  0.5273380000000  0.4906160000000 1.0
C      1  0.5531090000000  0.5298150000000  0.4668740000000 1.0
C      1  0.4566430000000  0.4616880000000  0.5186980000000 1.0
C      1  0.4522360000000  0.5568090000000  0.4589750000000 1.0
C      1  0.4921450000000  0.5640470000000  0.5220460000000 1.0
C      1  0.4897310000000  0.4889440000000  0.4614960000000 1.0
C      1  0.4724670000000  0.5502340000000  0.5402070000000 1.0
C      1  0.4467390000000  0.5092480000000  0.4541290000000 1.0
C      1  0.5426600000000  0.4658580000000  0.4317990000000 1.0
C      1  0.4852420000000  0.4741760000000  0.4880340000000 1.0
C      1  0.5023630000000  0.4383320000000  0.5280390000000 1.0
C      1  0.5203170000000  0.4780790000000  0.5788720000000 1.0
C      1  0.4750670000000  0.4426220000000  0.4597630000000 1.0
C      1  0.5501660000000  0.5439070000000  0.4910380000000 1.0
C      1  0.5193270000000  0.5590340000000  0.5327880000000 1.0
C      1  0.4595990000000  0.5597380000000  0.4857770000000 1.0
C      1  0.5063930000000  0.4825820000000  0.5068350000000 1.0
C      1  0.5830380000000  0.4922790000000  0.5094980000000 1.0
C      1  0.4484910000000  0.5373750000000  0.5268990000000 1.0
C      1  0.4497810000000  0.4829760000000  0.4437090000000 1.0
C      1  0.4513670000000  0.4613880000000  0.4623750000000 1.0
C      1  0.5528230000000  0.4873960000000  0.4532510000000 1.0
C      1  0.4741810000000  0.5231640000000  0.5818980000000 1.0
C      1  0.5766800000000  0.5121360000000  0.4632760000000 1.0
C      1  0.5060740000000  0.5099840000000  0.5133270000000 1.0
C      1  0.5465980000000  0.4579330000000  0.5203970000000 1.0
C      1  0.5033490000000  0.5154460000000  0.4630560000000 1.0
C      1  0.5186840000000  0.4192440000000  0.5147950000000 1.0
C      1  0.4448760000000  0.5079660000000  0.5223270000000 1.0
C      1  0.4609820000000  0.5337710000000  0.4452790000000 1.0
C      1  0.4908000000000  0.5347720000000  0.4435870000000 1.0
C      1  0.4268800000000  0.5133520000000  0.4737530000000 1.0
C      1  0.5387100000000  0.4349870000000  0.5024990000000 1.0
C      1  0.5327320000000  0.5112650000000  0.4572180000000 1.0
C      1  0.5135220000000  0.4623090000000  0.4274960000000 1.0
C      1  0.5897550000000  0.5063010000000  0.4872710000000 1.0
C      1  0.4560910000000  0.4849900000000  0.5370110000000 1.0
C      1  0.4464280000000  0.4713050000000  0.4919500000000 1.0
C      1  0.5005710000000  0.5606650000000  0.4492710000000 1.0
C      1  0.4761230000000  0.4396040000000  0.5138050000000 1.0
C      1  0.5149340000000  0.5377380000000  0.5544330000000 1.0
C      1  0.4777040000000  0.4324970000000  0.4861970000000 1.0
C      1  0.5185750000000  0.4844440000000  0.5518300000000 1.0
C      1  0.4999870000000  0.4605130000000  0.4543040000000 1.0
END
