TITL C-38192-7909-571 3.82306746372124e-06 125000 -349.093352189157 0 0 60 (D4) n - 1
REM
REM in /home/bkarasulu/CARBON/AIRSS/Generating-Clusters/EDIP-Nigel-Params/Higher-Symm/Box-15A/Only-C60/SD-CG/FIRE-HFTN
REM
REM
REM
REM
REM
REM ./C.cell (414f73aa93bd7a1190c7fd0f31ff2f98)
REM
REM compiler GCC version 9.2.1 20190827 (Red Hat 9.2.1-1)
REM options -cpp -mtune=generic -march=x86-64 -g -O0 -fpre-include=/usr/include/finclude/math-vector-fortran.h
REM seed -1484596155 -1165788331 -247772945 -1097147316 -168310502 1445145281 -1736267718 -1498133819 1761459072 808630429 45291348 565606556 -697879488 -1912892015 -1316020490 -2065018178 -831304789 1103230072 1481722088 -977773972 -1774561070 387112896 -906972399 -1611621624 -128790388 -1617399156 1783371054 1983110980 -325138607 1898849064 -1190856014 1592037297 921347644
REM
CELL 1.54180   50.00000   50.00000   50.00000   90.00000   90.00000   90.00000
LATT -1
SFAC C  
C      1  0.4771220000000  0.4844420000000  0.4265820000000 1.0
C      1  0.4265820000000  0.4844420000000  0.5228780000000 1.0
C      1  0.5228780000000  0.4844420000000  0.5734180000000 1.0
C      1  0.5734180000000  0.4844420000000  0.4771220000000 1.0
C      1  0.4771220000000  0.5162120000000  0.5734180000000 1.0
C      1  0.4265820000000  0.5162120000000  0.4771220000000 1.0
C      1  0.5228780000000  0.5162120000000  0.4265820000000 1.0
C      1  0.5734180000000  0.5162120000000  0.5228780000000 1.0
C      1  0.5299980000000  0.4477980000000  0.5395310000000 1.0
C      1  0.5395310000000  0.4477980000000  0.4700020000000 1.0
C      1  0.4700020000000  0.4477980000000  0.4604690000000 1.0
C      1  0.4604690000000  0.4477980000000  0.5299980000000 1.0
C      1  0.5299980000000  0.5528560000000  0.4604690000000 1.0
C      1  0.5395310000000  0.5528560000000  0.5299980000000 1.0
C      1  0.4700020000000  0.5528560000000  0.5395310000000 1.0
C      1  0.4604690000000  0.5528560000000  0.4700020000000 1.0
C      1  0.4764890000000  0.4789530000000  0.5027890000000 1.0
C      1  0.5027890000000  0.4789530000000  0.5235110000000 1.0
C      1  0.5235110000000  0.4789530000000  0.4972110000000 1.0
C      1  0.4972110000000  0.4789530000000  0.4764890000000 1.0
C      1  0.4764890000000  0.5217010000000  0.4972110000000 1.0
C      1  0.5027890000000  0.5217010000000  0.4764890000000 1.0
C      1  0.5235110000000  0.5217010000000  0.5027890000000 1.0
C      1  0.4972110000000  0.5217010000000  0.5235110000000 1.0
C      1  0.4838260000000  0.4373980000000  0.5151100000000 1.0
C      1  0.5151100000000  0.4373980000000  0.5161740000000 1.0
C      1  0.5161740000000  0.4373980000000  0.4848900000000 1.0
C      1  0.4848900000000  0.4373980000000  0.4838260000000 1.0
C      1  0.4838260000000  0.5632560000000  0.4848900000000 1.0
C      1  0.5151100000000  0.5632560000000  0.4838260000000 1.0
C      1  0.5161740000000  0.5632560000000  0.5151100000000 1.0
C      1  0.4848900000000  0.5632560000000  0.5161740000000 1.0
C      1  0.4874400000000  0.5349260000000  0.4506650000000 1.0
C      1  0.4506650000000  0.5349260000000  0.5125600000000 1.0
C      1  0.5125600000000  0.5349260000000  0.5493350000000 1.0
C      1  0.5493350000000  0.5349260000000  0.4874400000000 1.0
C      1  0.4874400000000  0.4657280000000  0.5493350000000 1.0
C      1  0.4506650000000  0.4657280000000  0.4874400000000 1.0
C      1  0.5125600000000  0.4657280000000  0.4506650000000 1.0
C      1  0.5493350000000  0.4657280000000  0.5125600000000 1.0
C      1  0.4716350000000  0.4909130000000  0.5616410000000 1.0
C      1  0.5616410000000  0.4909130000000  0.5283650000000 1.0
C      1  0.5283650000000  0.4909130000000  0.4383590000000 1.0
C      1  0.4383590000000  0.4909130000000  0.4716350000000 1.0
C      1  0.4716350000000  0.5097410000000  0.4383590000000 1.0
C      1  0.5616410000000  0.5097410000000  0.4716350000000 1.0
C      1  0.5283650000000  0.5097410000000  0.5616410000000 1.0
C      1  0.4383590000000  0.5097410000000  0.5283650000000 1.0
C      1  0.4383070000000  0.5406370000000  0.4855160000000 1.0
C      1  0.4855160000000  0.5406370000000  0.5616930000000 1.0
C      1  0.5616930000000  0.5406370000000  0.5144840000000 1.0
C      1  0.5144840000000  0.5406370000000  0.4383070000000 1.0
C      1  0.4383070000000  0.4600170000000  0.5144840000000 1.0
C      1  0.4855160000000  0.4600170000000  0.4383070000000 1.0
C      1  0.5616930000000  0.4600170000000  0.4855160000000 1.0
C      1  0.5144840000000  0.4600170000000  0.5616930000000 1.0
C      1  0.5339570000000  0.5003270000000  0.4660430000000 1.0
C      1  0.5339570000000  0.5003270000000  0.5339570000000 1.0
C      1  0.4660430000000  0.5003270000000  0.4660430000000 1.0
C      1  0.4660430000000  0.5003270000000  0.5339570000000 1.0
END
