TITL C-38191-7580-290 -1.37174237485832e-06 125000 -381.296115369185 0 0 60 (C5v) n - 1
REM
REM in /home/bkarasulu/CARBON/AIRSS/Generating-Clusters/EDIP-Nigel-Params/Higher-Symm/Box-15A/Only-C60/SD-CG/FIRE-HFTN
REM
REM
REM
REM
REM
REM ./C.cell (414f73aa93bd7a1190c7fd0f31ff2f98)
REM
REM compiler GCC version 9.2.1 20190827 (Red Hat 9.2.1-1)
REM options -cpp -mtune=generic -march=x86-64 -g -O0 -fpre-include=/usr/include/finclude/math-vector-fortran.h
REM seed 989942302 949623893 1544228477 1927991884 1313491209 -131118178 -2054458723 -1271773307 -1044851738 1620823983 -1258966403 1792238720 1567595009 -389367937 -718809286 727465220 788359136 -288133275 582624153 -1938548972 -673288218 1532325989 1394143142 665074499 1458660194 1357101306 -434867488 -564107728 -2095290080 -1746861550 -35332722 246345536 -1661958438
REM
CELL 1.54180   50.00000   50.00000   50.00000   90.00000   90.00000   90.00000
LATT -1
SFAC C  
C      1  0.4554880000000  0.4775430000000  0.5477610000000 1.0
C      1  0.4408220000000  0.4775430000000  0.4724250000000 1.0
C      1  0.5079380000000  0.4775430000000  0.4351970000000 1.0
C      1  0.5640840000000  0.4775430000000  0.4875240000000 1.0
C      1  0.5316680000000  0.4775430000000  0.5570930000000 1.0
C      1  0.5205770000000  0.4222550000000  0.4862460000000 1.0
C      1  0.5194400000000  0.4222550000000  0.5153190000000 1.0
C      1  0.4914380000000  0.4222550000000  0.5232220000000 1.0
C      1  0.4752680000000  0.4222550000000  0.4990330000000 1.0
C      1  0.4932770000000  0.4222550000000  0.4761800000000 1.0
C      1  0.5572680000000  0.5468400000000  0.5451300000000 1.0
C      1  0.4747760000000  0.5468400000000  0.5684120000000 1.0
C      1  0.4271420000000  0.5468400000000  0.4971500000000 1.0
C      1  0.4801960000000  0.5468400000000  0.4298270000000 1.0
C      1  0.5606180000000  0.5468400000000  0.4594800000000 1.0
C      1  0.5731900000000  0.5045290000000  0.4807220000000 1.0
C      1  0.5409510000000  0.5045290000000  0.5636510000000 1.0
C      1  0.4521190000000  0.5045290000000  0.5586160000000 1.0
C      1  0.4294570000000  0.5045290000000  0.4725760000000 1.0
C      1  0.5042830000000  0.5045290000000  0.4244350000000 1.0
C      1  0.5192670000000  0.5660540000000  0.5151830000000 1.0
C      1  0.4915140000000  0.5660540000000  0.5230160000000 1.0
C      1  0.4754880000000  0.5660540000000  0.4990410000000 1.0
C      1  0.4933370000000  0.5660540000000  0.4763910000000 1.0
C      1  0.5203940000000  0.5660540000000  0.4863680000000 1.0
C      1  0.5629140000000  0.4775430000000  0.5174430000000 1.0
C      1  0.5028520000000  0.4775430000000  0.5652250000000 1.0
C      1  0.4388490000000  0.4775430000000  0.5228680000000 1.0
C      1  0.4593540000000  0.4775430000000  0.4489080000000 1.0
C      1  0.5360310000000  0.4775430000000  0.4455550000000 1.0
C      1  0.4448040000000  0.4632670000000  0.4978410000000 1.0
C      1  0.4849970000000  0.4632670000000  0.4468380000000 1.0
C      1  0.5459230000000  0.4632670000000  0.4693030000000 1.0
C      1  0.5433860000000  0.4632670000000  0.5341900000000 1.0
C      1  0.4808900000000  0.4632670000000  0.5518270000000 1.0
C      1  0.4305300000000  0.5182600000000  0.5464360000000 1.0
C      1  0.4343690000000  0.5182600000000  0.4482800000000 1.0
C      1  0.5289080000000  0.5182600000000  0.4215990000000 1.0
C      1  0.5834970000000  0.5182600000000  0.5032660000000 1.0
C      1  0.5226960000000  0.5182600000000  0.5804190000000 1.0
C      1  0.4513930000000  0.4363410000000  0.4980990000000 1.0
C      1  0.4867880000000  0.4363410000000  0.4531840000000 1.0
C      1  0.5404420000000  0.4363410000000  0.4729670000000 1.0
C      1  0.5382070000000  0.4363410000000  0.5301090000000 1.0
C      1  0.4831710000000  0.4363410000000  0.5456410000000 1.0
C      1  0.4747390000000  0.5190720000000  0.5685110000000 1.0
C      1  0.4270360000000  0.5190720000000  0.4971460000000 1.0
C      1  0.4801670000000  0.5190720000000  0.4297260000000 1.0
C      1  0.5607060000000  0.5190720000000  0.4594220000000 1.0
C      1  0.5573520000000  0.5190720000000  0.5451960000000 1.0
C      1  0.5714610000000  0.5045290000000  0.5249350000000 1.0
C      1  0.4983680000000  0.5045290000000  0.5756680000000 1.0
C      1  0.4275310000000  0.5045290000000  0.5218310000000 1.0
C      1  0.4568440000000  0.5045290000000  0.4378240000000 1.0
C      1  0.5457970000000  0.5045290000000  0.4397420000000 1.0
C      1  0.5433190000000  0.5637680000000  0.4710440000000 1.0
C      1  0.5409260000000  0.5637680000000  0.5322510000000 1.0
C      1  0.4819740000000  0.5637680000000  0.5488890000000 1.0
C      1  0.4479340000000  0.5637680000000  0.4979640000000 1.0
C      1  0.4858470000000  0.5637680000000  0.4498530000000 1.0
END
