TITL C-38195-9455-444 4.73167244219091e-06 125000 -382.383964043542 0 0 60 (C5) n - 1
REM
REM in /home/bkarasulu/CARBON/AIRSS/Generating-Clusters/EDIP-Nigel-Params/Higher-Symm/Box-15A/Only-C60/SD-CG/FIRE-HFTN
REM
REM
REM
REM
REM
REM ./C.cell (414f73aa93bd7a1190c7fd0f31ff2f98)
REM
REM compiler GCC version 9.2.1 20190827 (Red Hat 9.2.1-1)
REM options -cpp -mtune=generic -march=x86-64 -g -O0 -fpre-include=/usr/include/finclude/math-vector-fortran.h
REM seed 1741188340 -1633479248 619454247 -676846018 -708359586 198973940 377054038 -1669606491 1070141959 1864781607 -666914030 -1960944086 -671975051 -1312619084 -101872670 1931213563 192075172 1255204146 999784533 -1607483049 -784920045 221433024 494659733 -25103839 -166729929 222240297 -993179591 -1404692317 646293389 212518336 547178609 987395147 449997558
REM
CELL 1.54180   50.00000   50.00000   50.00000   90.00000   90.00000   90.00000
LATT -1
SFAC C  
C      1  0.4864380000000  0.4936070000000  0.4790000000000 1.0
C      1  0.5157810000000  0.4936070000000  0.4806120000000 1.0
C      1  0.5233150000000  0.4936070000000  0.5090180000000 1.0
C      1  0.4986280000000  0.4936070000000  0.5249610000000 1.0
C      1  0.4758370000000  0.4936070000000  0.5064090000000 1.0
C      1  0.5586700000000  0.5314610000000  0.5305470000000 1.0
C      1  0.4890780000000  0.5314610000000  0.5652380000000 1.0
C      1  0.4345800000000  0.5314610000000  0.5097720000000 1.0
C      1  0.4704900000000  0.5314610000000  0.4408020000000 1.0
C      1  0.5471820000000  0.5314610000000  0.4536410000000 1.0
C      1  0.5153200000000  0.4556290000000  0.4507780000000 1.0
C      1  0.5515470000000  0.4556290000000  0.4993600000000 1.0
C      1  0.5165370000000  0.4556290000000  0.5488260000000 1.0
C      1  0.4586740000000  0.4556290000000  0.5308160000000 1.0
C      1  0.4579220000000  0.4556290000000  0.4702190000000 1.0
C      1  0.5600240000000  0.5257300000000  0.4798380000000 1.0
C      1  0.5377240000000  0.5257300000000  0.5508560000000 1.0
C      1  0.4632900000000  0.5257300000000  0.5515930000000 1.0
C      1  0.4395890000000  0.5257300000000  0.4810300000000 1.0
C      1  0.4993730000000  0.5257300000000  0.4366830000000 1.0
C      1  0.4783760000000  0.4394010000000  0.4858190000000 1.0
C      1  0.5068050000000  0.4394010000000  0.4750520000000 1.0
C      1  0.5258300000000  0.4394010000000  0.4987620000000 1.0
C      1  0.5091590000000  0.4394010000000  0.5241830000000 1.0
C      1  0.4798310000000  0.4394010000000  0.5161840000000 1.0
C      1  0.5095020000000  0.4934910000000  0.5756630000000 1.0
C      1  0.4309760000000  0.4934910000000  0.5324180000000 1.0
C      1  0.4478390000000  0.4934910000000  0.4443720000000 1.0
C      1  0.5367870000000  0.4934910000000  0.4332020000000 1.0
C      1  0.5748960000000  0.4934910000000  0.5143440000000 1.0
C      1  0.5081600000000  0.4980730000000  0.4252990000000 1.0
C      1  0.5735660000000  0.4980730000000  0.4846760000000 1.0
C      1  0.5373070000000  0.4980730000000  0.5652310000000 1.0
C      1  0.4494910000000  0.4980730000000  0.5556380000000 1.0
C      1  0.4314760000000  0.4980730000000  0.4691560000000 1.0
C      1  0.5495150000000  0.5400640000000  0.5038710000000 1.0
C      1  0.5116190000000  0.5400640000000  0.5482880000000 1.0
C      1  0.4576660000000  0.5400640000000  0.5259720000000 1.0
C      1  0.4622170000000  0.5400640000000  0.4677640000000 1.0
C      1  0.5189830000000  0.5400640000000  0.4541050000000 1.0
C      1  0.4518530000000  0.5154950000000  0.4273720000000 1.0
C      1  0.5541950000000  0.5154950000000  0.4317660000000 1.0
C      1  0.5816420000000  0.5154950000000  0.5304570000000 1.0
C      1  0.4962620000000  0.5154950000000  0.5870570000000 1.0
C      1  0.4160480000000  0.5154950000000  0.5233470000000 1.0
C      1  0.4495520000000  0.4788910000000  0.5130500000000 1.0
C      1  0.4719990000000  0.4788910000000  0.4560540000000 1.0
C      1  0.5331430000000  0.4788910000000  0.4597890000000 1.0
C      1  0.5484840000000  0.4788910000000  0.5190950000000 1.0
C      1  0.4968220000000  0.4788910000000  0.5520120000000 1.0
C      1  0.5592230000000  0.4717960000000  0.4740230000000 1.0
C      1  0.5430070000000  0.4717960000000  0.5482970000000 1.0
C      1  0.4673570000000  0.4717960000000  0.5558260000000 1.0
C      1  0.4368190000000  0.4717960000000  0.4862060000000 1.0
C      1  0.4935950000000  0.4717960000000  0.4356480000000 1.0
C      1  0.5060010000000  0.5563620000000  0.5244400000000 1.0
C      1  0.4786100000000  0.5563620000000  0.5132600000000 1.0
C      1  0.4807800000000  0.5563620000000  0.4837550000000 1.0
C      1  0.5095110000000  0.5563620000000  0.4767000000000 1.0
C      1  0.5250980000000  0.5563620000000  0.5018450000000 1.0
END
