TITL C-38196-2854-412 3.36365101990254e-05 125000 -363.142041228336 0 0 60 (C2) n - 1
REM
REM in /home/bkarasulu/CARBON/AIRSS/Generating-Clusters/EDIP-Nigel-Params/Higher-Symm/Box-15A/Only-C60/SD-CG/FIRE-HFTN
REM
REM
REM
REM
REM
REM ./C.cell (414f73aa93bd7a1190c7fd0f31ff2f98)
REM
REM compiler GCC version 9.2.1 20190827 (Red Hat 9.2.1-1)
REM options -cpp -mtune=generic -march=x86-64 -g -O0 -fpre-include=/usr/include/finclude/math-vector-fortran.h
REM seed -2143726730 98809700 1702861048 -647116781 -727729779 -1600621641 113783525 -103275817 -717308971 -483075312 506504899 -459002681 -917615994 1705357309 -1843628609 -2081313779 1051895169 -1487140623 -2061088919 1494093733 1977873662 -689518191 -1348058596 -1675371567 667458723 -188796214 1541507174 -1161418632 -907123796 850498612 -764947332 -660335581 2017783585
REM
CELL 1.54180   50.00000   50.00000   50.00000   90.00000   90.00000   90.00000
LATT -1
SFAC C  
C      1  0.4657770000000  0.4204660000000  0.4864840000000 1.0
C      1  0.4604130000000  0.4822100000000  0.5790620000000 1.0
C      1  0.4657790000000  0.5795350000000  0.5135160000000 1.0
C      1  0.4604130000000  0.5177900000000  0.4209380000000 1.0
C      1  0.4700500000000  0.5746840000000  0.4767880000000 1.0
C      1  0.4790240000000  0.5150080000000  0.5717390000000 1.0
C      1  0.4700480000000  0.4253170000000  0.5232120000000 1.0
C      1  0.4790240000000  0.4849930000000  0.4282610000000 1.0
C      1  0.4644930000000  0.5123310000000  0.5467980000000 1.0
C      1  0.4608030000000  0.5475120000000  0.4834680000000 1.0
C      1  0.4644930000000  0.4876700000000  0.4532020000000 1.0
C      1  0.4608020000000  0.4524890000000  0.5165320000000 1.0
C      1  0.4488830000000  0.4886000000000  0.5529170000000 1.0
C      1  0.4532240000000  0.4474100000000  0.4887710000000 1.0
C      1  0.4488830000000  0.5114010000000  0.4470830000000 1.0
C      1  0.4532250000000  0.5525910000000  0.5112290000000 1.0
C      1  0.5441190000000  0.5042370000000  0.5499450000000 1.0
C      1  0.5410100000000  0.5609020000000  0.4871800000000 1.0
C      1  0.5441190000000  0.4957620000000  0.4500550000000 1.0
C      1  0.5410080000000  0.4390980000000  0.5128200000000 1.0
C      1  0.5409130000000  0.4768250000000  0.5591600000000 1.0
C      1  0.5448490000000  0.4521730000000  0.4871020000000 1.0
C      1  0.5409140000000  0.5231740000000  0.4408400000000 1.0
C      1  0.5448500000000  0.5478260000000  0.5128980000000 1.0
C      1  0.4994270000000  0.4482050000000  0.5732530000000 1.0
C      1  0.5054850000000  0.5668660000000  0.5438300000000 1.0
C      1  0.4994280000000  0.5517950000000  0.4267470000000 1.0
C      1  0.5054840000000  0.4331340000000  0.4561700000000 1.0
C      1  0.4948390000000  0.5589980000000  0.5684580000000 1.0
C      1  0.4962150000000  0.4222290000000  0.5631250000000 1.0
C      1  0.4948380000000  0.4410020000000  0.4315420000000 1.0
C      1  0.4962170000000  0.5777710000000  0.4368750000000 1.0
C      1  0.5148680000000  0.4648180000000  0.5554940000000 1.0
C      1  0.5244780000000  0.5474060000000  0.5337930000000 1.0
C      1  0.5148690000000  0.5351810000000  0.4445060000000 1.0
C      1  0.5244770000000  0.4525930000000  0.4662070000000 1.0
C      1  0.5233240000000  0.5247540000000  0.5513980000000 1.0
C      1  0.5147870000000  0.4422600000000  0.5246590000000 1.0
C      1  0.5233230000000  0.4752450000000  0.4486020000000 1.0
C      1  0.5147880000000  0.5577400000000  0.4753410000000 1.0
C      1  0.4965750000000  0.4221350000000  0.5348750000000 1.0
C      1  0.5025330000000  0.5317830000000  0.5713980000000 1.0
C      1  0.4965770000000  0.5778650000000  0.4651250000000 1.0
C      1  0.5025320000000  0.4682170000000  0.4286020000000 1.0
C      1  0.4894840000000  0.5822490000000  0.5274980000000 1.0
C      1  0.4764920000000  0.4602490000000  0.5828520000000 1.0
C      1  0.4894820000000  0.4177510000000  0.4725020000000 1.0
C      1  0.4764930000000  0.5397520000000  0.4171480000000 1.0
C      1  0.5617490000000  0.4429040000000  0.5311590000000 1.0
C      1  0.5663610000000  0.5106700000000  0.5343600000000 1.0
C      1  0.5617500000000  0.5570940000000  0.4688410000000 1.0
C      1  0.5663600000000  0.4893290000000  0.4656400000000 1.0
C      1  0.5667960000000  0.5308790000000  0.5165260000000 1.0
C      1  0.5619040000000  0.4596650000000  0.5523040000000 1.0
C      1  0.5667950000000  0.4691190000000  0.4834740000000 1.0
C      1  0.5619050000000  0.5403340000000  0.4476970000000 1.0
C      1  0.4556400000000  0.5339560000000  0.5318780000000 1.0
C      1  0.4466400000000  0.5321480000000  0.4654300000000 1.0
C      1  0.4556400000000  0.4660450000000  0.4681220000000 1.0
C      1  0.4466390000000  0.4678530000000  0.5345700000000 1.0
END
