TITL C-38194-9318-347 8.13829418872976e-05 125000 -366.767312713985 0 0 60 (C5) n - 1
REM
REM in /home/bkarasulu/CARBON/AIRSS/Generating-Clusters/EDIP-Nigel-Params/Higher-Symm/Box-15A/Only-C60/SD-CG/FIRE-HFTN
REM
REM
REM
REM
REM
REM ./C.cell (414f73aa93bd7a1190c7fd0f31ff2f98)
REM
REM compiler GCC version 9.2.1 20190827 (Red Hat 9.2.1-1)
REM options -cpp -mtune=generic -march=x86-64 -g -O0 -fpre-include=/usr/include/finclude/math-vector-fortran.h
REM seed 2112239222 -1060522021 -28726085 829439575 -2144517247 628196389 -786307602 1022627941 -1605282422 1527135671 -1066009067 -2006989581 -89456832 1771324919 -765761751 1839384474 259312472 686783923 -115996952 -1145063317 -435313456 465660543 262037577 1428260165 312826826 873610181 1412840768 1023887677 1860245898 2009952433 1532158832 525561539 -1700471529
REM
CELL 1.54180   50.00000   50.00000   50.00000   90.00000   90.00000   90.00000
LATT -1
SFAC C  
C      1  0.5258960000000  0.5162120000000  0.4954570000000 1.0
C      1  0.5123230000000  0.5162120000000  0.5232240000000 1.0
C      1  0.4817200000000  0.5162120000000  0.5188970000000 1.0
C      1  0.4763800000000  0.5162120000000  0.4884540000000 1.0
C      1  0.5036810000000  0.5162120000000  0.4739680000000 1.0
C      1  0.4965640000000  0.5573500000000  0.5253630000000 1.0
C      1  0.4748160000000  0.5573500000000  0.5045700000000 1.0
C      1  0.4878720000000  0.5573500000000  0.4774610000000 1.0
C      1  0.5176880000000  0.5573500000000  0.4815000000000 1.0
C      1  0.5230600000000  0.5573500000000  0.5111050000000 1.0
C      1  0.4848630000000  0.4500120000000  0.4505530000000 1.0
C      1  0.5423490000000  0.4500120000000  0.4703240000000 1.0
C      1  0.5413100000000  0.4500120000000  0.5311060000000 1.0
C      1  0.4831820000000  0.4500120000000  0.5489000000000 1.0
C      1  0.4482960000000  0.4500120000000  0.4991160000000 1.0
C      1  0.5271700000000  0.4812160000000  0.5003810000000 1.0
C      1  0.5080340000000  0.4812160000000  0.5259580000000 1.0
C      1  0.4777960000000  0.4812160000000  0.5156620000000 1.0
C      1  0.4782430000000  0.4812160000000  0.4837220000000 1.0
C      1  0.5087580000000  0.4812160000000  0.4742780000000 1.0
C      1  0.4316980000000  0.5016840000000  0.5274590000000 1.0
C      1  0.4527790000000  0.5016840000000  0.4435260000000 1.0
C      1  0.5391180000000  0.5016840000000  0.4376380000000 1.0
C      1  0.5713980000000  0.5016840000000  0.5179330000000 1.0
C      1  0.5050080000000  0.5016840000000  0.5734450000000 1.0
C      1  0.4667940000000  0.5260900000000  0.5539660000000 1.0
C      1  0.4384140000000  0.5260900000000  0.4850950000000 1.0
C      1  0.4951440000000  0.5260910000000  0.4368230000000 1.0
C      1  0.5585850000000  0.5260910000000  0.4758590000000 1.0
C      1  0.5410630000000  0.5260900000000  0.5482580000000 1.0
C      1  0.5368200000000  0.5434970000000  0.4627310000000 1.0
C      1  0.5468230000000  0.5434970000000  0.5235010000000 1.0
C      1  0.4921180000000  0.5434970000000  0.5517930000000 1.0
C      1  0.4483060000000  0.5434970000000  0.5085090000000 1.0
C      1  0.4759330000000  0.5434970000000  0.4534660000000 1.0
C      1  0.4919100000000  0.4400650000000  0.5238900000000 1.0
C      1  0.4747790000000  0.4400650000000  0.4996880000000 1.0
C      1  0.4925030000000  0.4400650000000  0.4759170000000 1.0
C      1  0.5205870000000  0.4400650000000  0.4854280000000 1.0
C      1  0.5202210000000  0.4400650000000  0.5150770000000 1.0
C      1  0.4511360000000  0.4867140000000  0.4703120000000 1.0
C      1  0.5131350000000  0.4867150000000  0.4443530000000 1.0
C      1  0.5569820000000  0.4867140000000  0.4952970000000 1.0
C      1  0.5220820000000  0.4867140000000  0.5527400000000 1.0
C      1  0.4566650000000  0.4867140000000  0.5372980000000 1.0
C      1  0.5262280000000  0.5286690000000  0.4386880000000 1.0
C      1  0.5664160000000  0.5286690000000  0.5059980000000 1.0
C      1  0.5148190000000  0.5286680000000  0.5650190000000 1.0
C      1  0.4427430000000  0.5286680000000  0.5341860000000 1.0
C      1  0.4497940000000  0.5286690000000  0.4561090000000 1.0
C      1  0.5469530000000  0.4693270000000  0.5509730000000 1.0
C      1  0.4660310000000  0.4693260000000  0.5604070000000 1.0
C      1  0.4320530000000  0.4693270000000  0.4863610000000 1.0
C      1  0.4919750000000  0.4693270000000  0.4311640000000 1.0
C      1  0.5629870000000  0.4693270000000  0.4710960000000 1.0
C      1  0.5615650000000  0.4991650000000  0.4582630000000 1.0
C      1  0.5587190000000  0.4991650000000  0.5456550000000 1.0
C      1  0.4747250000000  0.4991650000000  0.5699530000000 1.0
C      1  0.4256600000000  0.4991650000000  0.4975790000000 1.0
C      1  0.4793310000000  0.4991650000000  0.4285510000000 1.0
END
