TITL C-38184-643-405 2.05127054548915e-06 125000 -358.779182056923 0 0 60 (C1) n - 1
REM
REM in /home/bkarasulu/CARBON/AIRSS/Generating-Clusters/EDIP-Nigel-Params/Higher-Symm/Box-15A/Only-C60/SD-CG/FIRE-HFTN
REM
REM
REM
REM
REM
REM ./C.cell (414f73aa93bd7a1190c7fd0f31ff2f98)
REM
REM compiler GCC version 9.2.1 20190827 (Red Hat 9.2.1-1)
REM options -cpp -mtune=generic -march=x86-64 -g -O0 -fpre-include=/usr/include/finclude/math-vector-fortran.h
REM seed 1845449476 950798951 372532237 2066123324 -1260526236 295958265 -1470630709 1896246043 -1572844596 -659236855 1440281688 -303677718 1889506459 1339113526 -1354214015 -1923161907 525298548 1689015049 2015060455 -656657019 -1903994203 1043849830 -1043268709 -612102185 -731276421 -369576557 1225840624 1389993326 -1194576582 274430820 -1382834790 271568453 -870888204
REM
CELL 1.54180   50.00000   50.00000   50.00000   90.00000   90.00000   90.00000
LATT -1
SFAC C  
C      1  0.4960620000000  0.5567160000000  0.5195370000000 1.0
C      1  0.5383940000000  0.5737950000000  0.4977420000000 1.0
C      1  0.4938370000000  0.5663070000000  0.4706310000000 1.0
C      1  0.4812240000000  0.4345020000000  0.4782330000000 1.0
C      1  0.5285750000000  0.4315500000000  0.4993560000000 1.0
C      1  0.4887770000000  0.4406470000000  0.5261700000000 1.0
C      1  0.5094180000000  0.4419430000000  0.4786380000000 1.0
C      1  0.4710800000000  0.4281440000000  0.5052860000000 1.0
C      1  0.5161670000000  0.4296880000000  0.5278760000000 1.0
C      1  0.5235820000000  0.5647710000000  0.5224340000000 1.0
C      1  0.4807590000000  0.5669050000000  0.4967140000000 1.0
C      1  0.5224730000000  0.5734220000000  0.4699700000000 1.0
C      1  0.5143540000000  0.4849000000000  0.5241470000000 1.0
C      1  0.5140600000000  0.4878900000000  0.4755790000000 1.0
C      1  0.4721860000000  0.4719730000000  0.4996400000000 1.0
C      1  0.5152390000000  0.5183360000000  0.4762700000000 1.0
C      1  0.5149210000000  0.5156960000000  0.5250820000000 1.0
C      1  0.4598020000000  0.5241160000000  0.4988980000000 1.0
C      1  0.4776350000000  0.5144690000000  0.4763080000000 1.0
C      1  0.4781580000000  0.5162270000000  0.5228870000000 1.0
C      1  0.5282060000000  0.5264560000000  0.5010880000000 1.0
C      1  0.4830420000000  0.4848630000000  0.5239640000000 1.0
C      1  0.4830690000000  0.4850230000000  0.4754620000000 1.0
C      1  0.5289850000000  0.4753150000000  0.4995330000000 1.0
C      1  0.4648610000000  0.4488580000000  0.5439440000000 1.0
C      1  0.5529030000000  0.4468290000000  0.5112020000000 1.0
C      1  0.4842510000000  0.4509700000000  0.4435580000000 1.0
C      1  0.4608410000000  0.5519310000000  0.4598450000000 1.0
C      1  0.5593750000000  0.5541690000000  0.4851070000000 1.0
C      1  0.4893650000000  0.5508180000000  0.5479560000000 1.0
C      1  0.5432570000000  0.5534700000000  0.4584450000000 1.0
C      1  0.4564440000000  0.5526630000000  0.4897300000000 1.0
C      1  0.5179120000000  0.5485810000000  0.5568420000000 1.0
C      1  0.5393370000000  0.4471360000000  0.5394410000000 1.0
C      1  0.4454090000000  0.4421030000000  0.5185430000000 1.0
C      1  0.5130370000000  0.4511650000000  0.4504190000000 1.0
C      1  0.4425420000000  0.4681230000000  0.5017430000000 1.0
C      1  0.5290180000000  0.4748790000000  0.5489930000000 1.0
C      1  0.5253790000000  0.4798980000000  0.4483210000000 1.0
C      1  0.4328570000000  0.5103410000000  0.4987600000000 1.0
C      1  0.5318920000000  0.5247770000000  0.4517300000000 1.0
C      1  0.5268560000000  0.5199630000000  0.5529900000000 1.0
C      1  0.5576870000000  0.5270780000000  0.4992270000000 1.0
C      1  0.4649630000000  0.5217640000000  0.4499140000000 1.0
C      1  0.4700890000000  0.5252700000000  0.5514720000000 1.0
C      1  0.5602280000000  0.4836990000000  0.5011090000000 1.0
C      1  0.4678690000000  0.4798280000000  0.5505270000000 1.0
C      1  0.4712410000000  0.4775230000000  0.4481310000000 1.0
C      1  0.4832230000000  0.5003510000000  0.4302210000000 1.0
C      1  0.4440750000000  0.4967940000000  0.5451390000000 1.0
C      1  0.5658320000000  0.5006460000000  0.5253450000000 1.0
C      1  0.4821720000000  0.5019050000000  0.5690710000000 1.0
C      1  0.4416100000000  0.5025050000000  0.4511770000000 1.0
C      1  0.5670260000000  0.5044600000000  0.4792690000000 1.0
C      1  0.5107400000000  0.5015100000000  0.5702760000000 1.0
C      1  0.5539470000000  0.5043320000000  0.4537280000000 1.0
C      1  0.4303110000000  0.4933550000000  0.4755090000000 1.0
C      1  0.5119620000000  0.5003730000000  0.4302900000000 1.0
C      1  0.5511130000000  0.4976670000000  0.5499030000000 1.0
C      1  0.4303660000000  0.4906150000000  0.5206780000000 1.0
END
