TITL C-38196-2854-500 5.95849669839059e-06 125000 -363.12529247507 0 0 60 (C5) n - 1
REM
REM in /home/bkarasulu/CARBON/AIRSS/Generating-Clusters/EDIP-Nigel-Params/Higher-Symm/Box-15A/Only-C60/SD-CG/FIRE-HFTN
REM
REM
REM
REM
REM
REM ./C.cell (414f73aa93bd7a1190c7fd0f31ff2f98)
REM
REM compiler GCC version 9.2.1 20190827 (Red Hat 9.2.1-1)
REM options -cpp -mtune=generic -march=x86-64 -g -O0 -fpre-include=/usr/include/finclude/math-vector-fortran.h
REM seed 1509884098 -310948192 1746077098 483009934 49810557 -859487776 -388181352 -148188489 -2062172933 -872781828 1782029811 1061064883 -2075976506 -1789012814 425570732 -2008572017 -861576460 -499451988 -491331248 -1957041658 213855062 2132180529 2013926497 -930187930 970602944 245390056 902097096 -1853574422 163552020 -1969894859 1213839512 -1790768378 1259711658
REM
CELL 1.54180   50.00000   50.00000   50.00000   90.00000   90.00000   90.00000
LATT -1
SFAC C  
C      1  0.4453580000000  0.4495070000000  0.5264010000000 1.0
C      1  0.5311360000000  0.4324300000000  0.5264010000000 1.0
C      1  0.5738850000000  0.5087320000000  0.5264010000000 1.0
C      1  0.5145270000000  0.5729670000000  0.5264000000000 1.0
C      1  0.4350930000000  0.5363640000000  0.5264000000000 1.0
C      1  0.5061890000000  0.4732800000000  0.4839050000000 1.0
C      1  0.5273250000000  0.4976290000000  0.4839050000000 1.0
C      1  0.5106980000000  0.5252550000000  0.4839050000000 1.0
C      1  0.4792870000000  0.5179790000000  0.4839050000000 1.0
C      1  0.4765010000000  0.4858570000000  0.4839050000000 1.0
C      1  0.5151110000000  0.4449590000000  0.4682760000000 1.0
C      1  0.5570160000000  0.4973630000000  0.4682760000000 1.0
C      1  0.5201270000000  0.5534110000000  0.4682760000000 1.0
C      1  0.4554230000000  0.5356460000000  0.4682750000000 1.0
C      1  0.4523230000000  0.4686200000000  0.4682760000000 1.0
C      1  0.4350490000000  0.5508140000000  0.4814360000000 1.0
C      1  0.4316030000000  0.4539300000000  0.4814370000000 1.0
C      1  0.5226790000000  0.4207140000000  0.4814370000000 1.0
C      1  0.5824140000000  0.4970680000000  0.4814370000000 1.0
C      1  0.5282560000000  0.5774740000000  0.4814370000000 1.0
C      1  0.4448310000000  0.5539280000000  0.5073510000000 1.0
C      1  0.4316630000000  0.4641950000000  0.5073520000000 1.0
C      1  0.5129350000000  0.4239440000000  0.5073520000000 1.0
C      1  0.5763310000000  0.4887990000000  0.5073520000000 1.0
C      1  0.5342400000000  0.5691340000000  0.5073520000000 1.0
C      1  0.4438240000000  0.5107900000000  0.4581330000000 1.0
C      1  0.4723780000000  0.4499070000000  0.4581340000000 1.0
C      1  0.5391060000000  0.4582500000000  0.4581340000000 1.0
C      1  0.5517900000000  0.5242900000000  0.4581340000000 1.0
C      1  0.4929030000000  0.5567610000000  0.4581330000000 1.0
C      1  0.4342350000000  0.5090050000000  0.5304230000000 1.0
C      1  0.4711130000000  0.4402360000000  0.5304240000000 1.0
C      1  0.5479120000000  0.4540590000000  0.5304240000000 1.0
C      1  0.5584980000000  0.5313710000000  0.5304240000000 1.0
C      1  0.4882410000000  0.5653290000000  0.5304230000000 1.0
C      1  0.4927680000000  0.4765770000000  0.5581460000000 1.0
C      1  0.5200410000000  0.4858840000000  0.5581460000000 1.0
C      1  0.5196180000000  0.5146990000000  0.5581460000000 1.0
C      1  0.4920830000000  0.5232010000000  0.5581450000000 1.0
C      1  0.4754880000000  0.4996400000000  0.5581450000000 1.0
C      1  0.4723390000000  0.5014400000000  0.4459280000000 1.0
C      1  0.4900830000000  0.4741370000000  0.4459290000000 1.0
C      1  0.5215320000000  0.4825760000000  0.4459290000000 1.0
C      1  0.5232250000000  0.5150940000000  0.4459290000000 1.0
C      1  0.4928220000000  0.5267520000000  0.4459280000000 1.0
C      1  0.5598030000000  0.5398160000000  0.4809030000000 1.0
C      1  0.4806130000000  0.5691800000000  0.4809020000000 1.0
C      1  0.4282150000000  0.5029400000000  0.4809020000000 1.0
C      1  0.4750220000000  0.4326370000000  0.4809030000000 1.0
C      1  0.5563470000000  0.4554280000000  0.4809030000000 1.0
C      1  0.5581550000000  0.4667810000000  0.5066150000000 1.0
C      1  0.5495640000000  0.5450430000000  0.5066150000000 1.0
C      1  0.4724780000000  0.5610580000000  0.5066140000000 1.0
C      1  0.4334260000000  0.4926920000000  0.5066150000000 1.0
C      1  0.4863770000000  0.4344260000000  0.5066150000000 1.0
C      1  0.4837040000000  0.5490950000000  0.5524810000000 1.0
C      1  0.4482720000000  0.4996730000000  0.5524810000000 1.0
C      1  0.4843260000000  0.4507030000000  0.5524810000000 1.0
C      1  0.5420410000000  0.4698600000000  0.5524810000000 1.0
C      1  0.5416560000000  0.5306700000000  0.5524810000000 1.0
END
