TITL C-38197-8510-495 3.71609390697776e-06 125000 -361.602350574187 0 0 60 (C1) n - 1
REM
REM in /home/bkarasulu/CARBON/AIRSS/Generating-Clusters/EDIP-Nigel-Params/Higher-Symm/Box-15A/Only-C60/SD-CG/FIRE-HFTN
REM
REM
REM
REM
REM
REM ./C.cell (414f73aa93bd7a1190c7fd0f31ff2f98)
REM
REM compiler GCC version 9.2.1 20190827 (Red Hat 9.2.1-1)
REM options -cpp -mtune=generic -march=x86-64 -g -O0 -fpre-include=/usr/include/finclude/math-vector-fortran.h
REM seed -991281253 372884453 -1614811993 1428953410 537451927 -276585564 370271823 -522786598 1415328229 -1821285818 628151498 -272580753 20215243 -1197007685 1404307560 -1695253883 1346565553 727614120 1093880397 -1208022401 -1401151805 1682956386 1791463463 -1123135551 -603289767 335512132 1749132398 -1384094657 -1318893612 -216377537 904215900 -2078095157 -273400338
REM
CELL 1.54180   50.00000   50.00000   50.00000   90.00000   90.00000   90.00000
LATT -1
SFAC C  
C      1  0.4396930000000  0.5370080000000  0.5151220000000 1.0
C      1  0.4371400000000  0.4923520000000  0.4579550000000 1.0
C      1  0.4334940000000  0.4660410000000  0.5245810000000 1.0
C      1  0.4821650000000  0.4807250000000  0.5054480000000 1.0
C      1  0.4811680000000  0.5138880000000  0.5161700000000 1.0
C      1  0.4794350000000  0.5011140000000  0.4776560000000 1.0
C      1  0.4555260000000  0.5289770000000  0.4909870000000 1.0
C      1  0.4514420000000  0.4735440000000  0.4764330000000 1.0
C      1  0.4509550000000  0.4894340000000  0.5269520000000 1.0
C      1  0.5484730000000  0.5471410000000  0.4979860000000 1.0
C      1  0.5334350000000  0.4892400000000  0.4699350000000 1.0
C      1  0.5353230000000  0.4786090000000  0.5347220000000 1.0
C      1  0.5537230000000  0.4856150000000  0.4913840000000 1.0
C      1  0.5605400000000  0.4943990000000  0.5337610000000 1.0
C      1  0.5706620000000  0.5420200000000  0.4809770000000 1.0
C      1  0.4427990000000  0.4463970000000  0.5431590000000 1.0
C      1  0.4494530000000  0.5621510000000  0.5245120000000 1.0
C      1  0.4472670000000  0.4880290000000  0.4316600000000 1.0
C      1  0.4996510000000  0.4670780000000  0.4450050000000 1.0
C      1  0.4983150000000  0.4623330000000  0.5612760000000 1.0
C      1  0.5022530000000  0.5619960000000  0.4978670000000 1.0
C      1  0.4925440000000  0.4500130000000  0.5349660000000 1.0
C      1  0.4989300000000  0.5523790000000  0.5258700000000 1.0
C      1  0.4967680000000  0.4958710000000  0.4377640000000 1.0
C      1  0.4869930000000  0.5103500000000  0.5596380000000 1.0
C      1  0.4864790000000  0.5435130000000  0.4592140000000 1.0
C      1  0.4826330000000  0.4429100000000  0.4828300000000 1.0
C      1  0.5210930000000  0.4824500000000  0.5613150000000 1.0
C      1  0.5233680000000  0.5481930000000  0.4832350000000 1.0
C      1  0.5214900000000  0.4625670000000  0.4635330000000 1.0
C      1  0.5686310000000  0.5472150000000  0.4537710000000 1.0
C      1  0.5756130000000  0.4686320000000  0.4924580000000 1.0
C      1  0.5727430000000  0.5081950000000  0.5547230000000 1.0
C      1  0.5677180000000  0.5198830000000  0.4493210000000 1.0
C      1  0.5590110000000  0.4492200000000  0.5031810000000 1.0
C      1  0.5701390000000  0.5311210000000  0.5394010000000 1.0
C      1  0.5104890000000  0.4392930000000  0.4901100000000 1.0
C      1  0.5141230000000  0.5200590000000  0.5609190000000 1.0
C      1  0.5131570000000  0.5411300000000  0.4468660000000 1.0
C      1  0.4765350000000  0.4536450000000  0.4565110000000 1.0
C      1  0.4818540000000  0.4841720000000  0.5696880000000 1.0
C      1  0.4810330000000  0.5628830000000  0.4794120000000 1.0
C      1  0.4723220000000  0.5541290000000  0.5396560000000 1.0
C      1  0.4697270000000  0.5056630000000  0.4308650000000 1.0
C      1  0.4664410000000  0.4370260000000  0.5300690000000 1.0
C      1  0.4425620000000  0.5166090000000  0.5371310000000 1.0
C      1  0.4420670000000  0.5212910000000  0.4653150000000 1.0
C      1  0.4371360000000  0.4552960000000  0.4966410000000 1.0
C      1  0.5151460000000  0.4387260000000  0.5194220000000 1.0
C      1  0.5217900000000  0.5405010000000  0.5410140000000 1.0
C      1  0.5197810000000  0.5150120000000  0.4344790000000 1.0
C      1  0.4638050000000  0.5293980000000  0.4471550000000 1.0
C      1  0.4602000000000  0.4366180000000  0.5009530000000 1.0
C      1  0.4647100000000  0.5288520000000  0.5541020000000 1.0
C      1  0.5449730000000  0.5021840000000  0.4450310000000 1.0
C      1  0.5415230000000  0.4502450000000  0.5265170000000 1.0
C      1  0.5459910000000  0.5353750000000  0.5246400000000 1.0
C      1  0.5112630000000  0.5139250000000  0.5075800000000 1.0
C      1  0.5109040000000  0.5115270000000  0.4776050000000 1.0
C      1  0.5154020000000  0.4858370000000  0.5135490000000 1.0
END
