TITL C-38187-2739-259 0.000391562450797262 125000 -347.134806062412 0 0 60 (D2d) n - 1
REM
REM in /home/bkarasulu/CARBON/AIRSS/Generating-Clusters/EDIP-Nigel-Params/Higher-Symm/Box-15A/Only-C60/SD-CG/FIRE-HFTN
REM
REM
REM
REM
REM
REM ./C.cell (414f73aa93bd7a1190c7fd0f31ff2f98)
REM
REM compiler GCC version 9.2.1 20190827 (Red Hat 9.2.1-1)
REM options -cpp -mtune=generic -march=x86-64 -g -O0 -fpre-include=/usr/include/finclude/math-vector-fortran.h
REM seed -668030475 1600521793 -806943277 -849074324 -1500930816 -970165798 -446200833 -1622552115 205153218 1070247812 -1814314372 1673462746 1588106993 -103019868 1326209422 -401465157 -617612823 1657959802 402719555 -676359462 -3326053 -1599640889 -1601596858 2040511961 609267473 -821605471 1686265473 -984481387 -1650138894 862941732 1117112776 1124471908 -811971066
REM
CELL 1.54180   50.00000   50.00000   50.00000   90.00000   90.00000   90.00000
LATT -1
SFAC C  
C      1  0.5442370000000  0.5080200000000  0.5774990000000 1.0
C      1  0.5442370000000  0.4919800000000  0.4225010000000 1.0
C      1  0.4557630000000  0.4919800000000  0.5774990000000 1.0
C      1  0.4557630000000  0.5080200000000  0.4225010000000 1.0
C      1  0.5442370000000  0.5774990000000  0.5080200000000 1.0
C      1  0.5442370000000  0.4225010000000  0.4919800000000 1.0
C      1  0.4557630000000  0.5774990000000  0.4919800000000 1.0
C      1  0.4557630000000  0.4225010000000  0.5080200000000 1.0
C      1  0.4320920000000  0.5000800000000  0.5341330000000 1.0
C      1  0.4320920000000  0.4999200000000  0.4658670000000 1.0
C      1  0.5679080000000  0.4999200000000  0.5341330000000 1.0
C      1  0.5679080000000  0.5000800000000  0.4658670000000 1.0
C      1  0.4320920000000  0.5341330000000  0.5000800000000 1.0
C      1  0.4320920000000  0.4658670000000  0.4999200000000 1.0
C      1  0.5679080000000  0.5341330000000  0.4999200000000 1.0
C      1  0.5679080000000  0.4658670000000  0.5000800000000 1.0
C      1  0.5039090000000  0.4595690000000  0.5137260000000 1.0
C      1  0.5039090000000  0.5404310000000  0.4862740000000 1.0
C      1  0.4960910000000  0.5404310000000  0.5137260000000 1.0
C      1  0.4960910000000  0.4595690000000  0.4862740000000 1.0
C      1  0.5039090000000  0.5137260000000  0.4595690000000 1.0
C      1  0.5039090000000  0.4862740000000  0.5404310000000 1.0
C      1  0.4960910000000  0.5137260000000  0.5404310000000 1.0
C      1  0.4960910000000  0.4862740000000  0.4595690000000 1.0
C      1  0.5648890000000  0.4404050000000  0.4869520000000 1.0
C      1  0.5648890000000  0.5595950000000  0.5130480000000 1.0
C      1  0.4351110000000  0.5595950000000  0.4869520000000 1.0
C      1  0.4351110000000  0.4404050000000  0.5130480000000 1.0
C      1  0.5648890000000  0.4869520000000  0.4404050000000 1.0
C      1  0.5648890000000  0.5130480000000  0.5595950000000 1.0
C      1  0.4351110000000  0.4869520000000  0.5595950000000 1.0
C      1  0.4351110000000  0.5130480000000  0.4404050000000 1.0
C      1  0.4667500000000  0.4296760000000  0.5323740000000 1.0
C      1  0.4667500000000  0.5703240000000  0.4676260000000 1.0
C      1  0.5332500000000  0.5703240000000  0.5323740000000 1.0
C      1  0.5332500000000  0.4296760000000  0.4676260000000 1.0
C      1  0.4667500000000  0.5323740000000  0.4296760000000 1.0
C      1  0.4667500000000  0.4676260000000  0.5703240000000 1.0
C      1  0.5332500000000  0.5323740000000  0.5703240000000 1.0
C      1  0.5332500000000  0.4676260000000  0.4296760000000 1.0
C      1  0.5082530000000  0.5561510000000  0.5354020000000 1.0
C      1  0.5082530000000  0.4438490000000  0.4645980000000 1.0
C      1  0.4917470000000  0.4438490000000  0.5354020000000 1.0
C      1  0.4917470000000  0.5561510000000  0.4645980000000 1.0
C      1  0.5082530000000  0.5354020000000  0.5561510000000 1.0
C      1  0.5082530000000  0.4645980000000  0.4438490000000 1.0
C      1  0.4917470000000  0.5354020000000  0.4438490000000 1.0
C      1  0.4917470000000  0.4645980000000  0.5561510000000 1.0
C      1  0.5955210000000  0.5220940000000  0.4998660000000 1.0
C      1  0.5955210000000  0.4779060000000  0.5001340000000 1.0
C      1  0.4044790000000  0.4779060000000  0.4998660000000 1.0
C      1  0.4044790000000  0.5220940000000  0.5001340000000 1.0
C      1  0.5955210000000  0.4998660000000  0.5220940000000 1.0
C      1  0.5955210000000  0.5001340000000  0.4779060000000 1.0
C      1  0.4044790000000  0.4998660000000  0.4779060000000 1.0
C      1  0.4044790000000  0.5001340000000  0.5220940000000 1.0
C      1  0.5514160000000  0.4890200000000  0.4890200000000 1.0
C      1  0.4485840000000  0.4890200000000  0.5109800000000 1.0
C      1  0.4485840000000  0.5109800000000  0.4890200000000 1.0
C      1  0.5514160000000  0.5109800000000  0.5109800000000 1.0
END
