TITL C-38195-9455-240 -1.37147233696049e-05 125000 -357.375371041164 0 0 60 (S10) n - 1
REM
REM in /home/bkarasulu/CARBON/AIRSS/Generating-Clusters/EDIP-Nigel-Params/Higher-Symm/Box-15A/Only-C60/SD-CG/FIRE-HFTN
REM
REM
REM
REM
REM
REM ./C.cell (414f73aa93bd7a1190c7fd0f31ff2f98)
REM
REM compiler GCC version 9.2.1 20190827 (Red Hat 9.2.1-1)
REM options -cpp -mtune=generic -march=x86-64 -g -O0 -fpre-include=/usr/include/finclude/math-vector-fortran.h
REM seed -1514588284 1227350362 476563080 -441952845 505979577 1401824786 -548228735 1539156819 1303806198 1123452609 799813965 -2080016686 -467026456 1429081244 170337723 -1910899301 927965351 -1418382089 1064864201 -750471423 -484416231 1274490396 -540712374 1539443372 1455941807 -438825552 -1850077759 1202181381 -1954081458 180584708 1548844719 -289591947 1746573523
REM
CELL 1.54180   50.00000   50.00000   50.00000   90.00000   90.00000   90.00000
LATT -1
SFAC C  
C      1  0.5131650000000  0.5642460000000  0.4872860000000 1.0
C      1  0.4868350000000  0.5594490000000  0.5274770000000 1.0
C      1  0.5131650000000  0.5319450000000  0.5571720000000 1.0
C      1  0.4868350000000  0.4922390000000  0.5650300000000 1.0
C      1  0.5131650000000  0.4554970000000  0.5480480000000 1.0
C      1  0.4868350000000  0.4357540000000  0.5127140000000 1.0
C      1  0.5131650000000  0.4405510000000  0.4725230000000 1.0
C      1  0.4868350000000  0.4680550000000  0.4428280000000 1.0
C      1  0.5131650000000  0.5077610000000  0.4349700000000 1.0
C      1  0.4868350000000  0.5445030000000  0.4519520000000 1.0
C      1  0.4861310000000  0.4466420000000  0.5408880000000 1.0
C      1  0.5138690000000  0.4327990000000  0.5017160000000 1.0
C      1  0.4861310000000  0.4446240000000  0.4618880000000 1.0
C      1  0.5138690000000  0.4776020000000  0.4366180000000 1.0
C      1  0.4861310000000  0.5191340000000  0.4355580000000 1.0
C      1  0.5138690000000  0.5533580000000  0.4591120000000 1.0
C      1  0.4861310000000  0.5672010000000  0.4982840000000 1.0
C      1  0.5138690000000  0.5553760000000  0.5381120000000 1.0
C      1  0.4861310000000  0.5223980000000  0.5633820000000 1.0
C      1  0.5138690000000  0.4808660000000  0.5644420000000 1.0
C      1  0.5724600000000  0.4974810000000  0.4750290000000 1.0
C      1  0.4275400000000  0.5126390000000  0.4783170000000 1.0
C      1  0.5724600000000  0.5229700000000  0.4898880000000 1.0
C      1  0.4275400000000  0.5245270000000  0.5053200000000 1.0
C      1  0.5724600000000  0.5167160000000  0.5187210000000 1.0
C      1  0.4275400000000  0.5025190000000  0.5249710000000 1.0
C      1  0.5724600000000  0.4873610000000  0.5216830000000 1.0
C      1  0.4275400000000  0.4770300000000  0.5101120000000 1.0
C      1  0.5724600000000  0.4754730000000  0.4946800000000 1.0
C      1  0.4275400000000  0.4832840000000  0.4812790000000 1.0
C      1  0.5361800000000  0.5562700000000  0.5168970000000 1.0
C      1  0.4638200000000  0.5355920000000  0.5467450000000 1.0
C      1  0.5361800000000  0.5013190000000  0.5587380000000 1.0
C      1  0.4638200000000  0.4665420000000  0.5482950000000 1.0
C      1  0.5361800000000  0.4445450000000  0.5194050000000 1.0
C      1  0.4638200000000  0.4437300000000  0.4831030000000 1.0
C      1  0.5361800000000  0.4644080000000  0.4532550000000 1.0
C      1  0.4638200000000  0.4986810000000  0.4412620000000 1.0
C      1  0.5361800000000  0.5334580000000  0.4517050000000 1.0
C      1  0.4638200000000  0.5554550000000  0.4805950000000 1.0
C      1  0.4798650000000  0.5148170000000  0.4789140000000 1.0
C      1  0.5201350000000  0.5243810000000  0.4916500000000 1.0
C      1  0.4798650000000  0.5246320000000  0.5075760000000 1.0
C      1  0.5201350000000  0.5154750000000  0.5206070000000 1.0
C      1  0.4798650000000  0.5004070000000  0.5257680000000 1.0
C      1  0.5201350000000  0.4851830000000  0.5210860000000 1.0
C      1  0.4798650000000  0.4756190000000  0.5083500000000 1.0
C      1  0.5201350000000  0.4753680000000  0.4924240000000 1.0
C      1  0.4798650000000  0.4845250000000  0.4793930000000 1.0
C      1  0.5201350000000  0.4995930000000  0.4742320000000 1.0
C      1  0.4517420000000  0.5221250000000  0.4633310000000 1.0
C      1  0.5482580000000  0.5394530000000  0.4833390000000 1.0
C      1  0.4517420000000  0.5417120000000  0.5097110000000 1.0
C      1  0.5482580000000  0.5280380000000  0.5323740000000 1.0
C      1  0.4517420000000  0.5036540000000  0.5426710000000 1.0
C      1  0.5482580000000  0.4778750000000  0.5366690000000 1.0
C      1  0.4517420000000  0.4605470000000  0.5166610000000 1.0
C      1  0.5482580000000  0.4582880000000  0.4902890000000 1.0
C      1  0.4517420000000  0.4719620000000  0.4676260000000 1.0
C      1  0.5482580000000  0.4963460000000  0.4573290000000 1.0
END
