TITL C-38187-2739-465 -3.25711310832021e-05 125000 -365.279379883358 0 0 60 (C1) n - 1
REM
REM in /home/bkarasulu/CARBON/AIRSS/Generating-Clusters/EDIP-Nigel-Params/Higher-Symm/Box-15A/Only-C60/SD-CG/FIRE-HFTN
REM
REM
REM
REM
REM
REM ./C.cell (414f73aa93bd7a1190c7fd0f31ff2f98)
REM
REM compiler GCC version 9.2.1 20190827 (Red Hat 9.2.1-1)
REM options -cpp -mtune=generic -march=x86-64 -g -O0 -fpre-include=/usr/include/finclude/math-vector-fortran.h
REM seed 450753283 -840450925 84104532 -782839474 -1784113048 -1572420376 397566413 166799148 -137964066 -305964472 -2042811666 -1442265460 -752341441 1697913333 614174489 275407924 582014739 1260751281 1305500294 -160169315 1628650196 1950663577 -1123299126 -54059474 435015592 47075793 -1684729625 1911448200 -1763151039 216581502 855288467 173004159 1922725144
REM
CELL 1.54180   50.00000   50.00000   50.00000   90.00000   90.00000   90.00000
LATT -1
SFAC C  
C      1  0.4373660000000  0.5064150000000  0.4789550000000 1.0
C      1  0.4733920000000  0.5496430000000  0.5513380000000 1.0
C      1  0.4577460000000  0.4454230000000  0.4699040000000 1.0
C      1  0.5243070000000  0.5696730000000  0.5189550000000 1.0
C      1  0.5469170000000  0.4750520000000  0.4660140000000 1.0
C      1  0.5508710000000  0.5570390000000  0.5153640000000 1.0
C      1  0.4622200000000  0.5497610000000  0.4790640000000 1.0
C      1  0.5391480000000  0.5178210000000  0.4432400000000 1.0
C      1  0.5048680000000  0.5677640000000  0.4966520000000 1.0
C      1  0.4391620000000  0.5343190000000  0.4828980000000 1.0
C      1  0.5151670000000  0.5680890000000  0.4700690000000 1.0
C      1  0.5173630000000  0.5618010000000  0.5458220000000 1.0
C      1  0.4940770000000  0.5247860000000  0.4961130000000 1.0
C      1  0.4723100000000  0.5146400000000  0.4442870000000 1.0
C      1  0.5720860000000  0.5057920000000  0.5088150000000 1.0
C      1  0.5024960000000  0.5541540000000  0.4485260000000 1.0
C      1  0.5197210000000  0.4971600000000  0.4919010000000 1.0
C      1  0.4659650000000  0.5621690000000  0.5273730000000 1.0
C      1  0.4304920000000  0.5091280000000  0.5271540000000 1.0
C      1  0.5578900000000  0.4865400000000  0.5229470000000 1.0
C      1  0.4390220000000  0.4654090000000  0.5117670000000 1.0
C      1  0.5558620000000  0.5464310000000  0.4889590000000 1.0
C      1  0.4677810000000  0.4528610000000  0.5435940000000 1.0
C      1  0.4876080000000  0.4339270000000  0.4498930000000 1.0
C      1  0.4292700000000  0.4923930000000  0.5040140000000 1.0
C      1  0.4978990000000  0.5350400000000  0.5254640000000 1.0
C      1  0.5093080000000  0.4583850000000  0.5742170000000 1.0
C      1  0.4805380000000  0.4577650000000  0.4339710000000 1.0
C      1  0.5246340000000  0.4528510000000  0.5516730000000 1.0
C      1  0.4783860000000  0.4416540000000  0.5176160000000 1.0
C      1  0.5114040000000  0.4687540000000  0.5295190000000 1.0
C      1  0.5212060000000  0.5371120000000  0.4367220000000 1.0
C      1  0.5335980000000  0.5379780000000  0.5515660000000 1.0
C      1  0.4874310000000  0.4736940000000  0.5624030000000 1.0
C      1  0.4936310000000  0.5043530000000  0.5599540000000 1.0
C      1  0.5640370000000  0.4609420000000  0.5133670000000 1.0
C      1  0.5157500000000  0.5152590000000  0.5412800000000 1.0
C      1  0.5224240000000  0.5309120000000  0.4795930000000 1.0
C      1  0.4587150000000  0.5083610000000  0.5327770000000 1.0
C      1  0.4890360000000  0.4942340000000  0.4969460000000 1.0
C      1  0.5526330000000  0.5035970000000  0.4634150000000 1.0
C      1  0.5284950000000  0.4926470000000  0.5216000000000 1.0
C      1  0.4609880000000  0.4532330000000  0.4974490000000 1.0
C      1  0.4566720000000  0.4953350000000  0.4596030000000 1.0
C      1  0.5040220000000  0.4284270000000  0.5137060000000 1.0
C      1  0.5149700000000  0.4266320000000  0.4882350000000 1.0
C      1  0.5198010000000  0.4669160000000  0.4595880000000 1.0
C      1  0.5583060000000  0.5412490000000  0.5379800000000 1.0
C      1  0.5124710000000  0.4389810000000  0.4635330000000 1.0
C      1  0.5598770000000  0.4612870000000  0.4865960000000 1.0
C      1  0.5646530000000  0.5191600000000  0.4854550000000 1.0
C      1  0.4768390000000  0.4852470000000  0.5235290000000 1.0
C      1  0.4692870000000  0.5212210000000  0.5560790000000 1.0
C      1  0.4789750000000  0.5396070000000  0.4576090000000 1.0
C      1  0.4565220000000  0.4670820000000  0.4498930000000 1.0
C      1  0.5036000000000  0.4765140000000  0.4365030000000 1.0
C      1  0.4402680000000  0.4608580000000  0.5399290000000 1.0
C      1  0.4940370000000  0.5026110000000  0.4313580000000 1.0
C      1  0.4757210000000  0.5645760000000  0.5008330000000 1.0
C      1  0.5207610000000  0.4293350000000  0.5364210000000 1.0
END
