TITL C-38196-2854-353 6.39696678467604e-07 125000 -357.119463374314 0 0 60 (C2) n - 1
REM
REM in /home/bkarasulu/CARBON/AIRSS/Generating-Clusters/EDIP-Nigel-Params/Higher-Symm/Box-15A/Only-C60/SD-CG/FIRE-HFTN
REM
REM
REM
REM
REM
REM ./C.cell (414f73aa93bd7a1190c7fd0f31ff2f98)
REM
REM compiler GCC version 9.2.1 20190827 (Red Hat 9.2.1-1)
REM options -cpp -mtune=generic -march=x86-64 -g -O0 -fpre-include=/usr/include/finclude/math-vector-fortran.h
REM seed -692709676 383322892 9095930 93813976 -274030642 -1825144877 -732454222 2124247445 -545246140 885493557 -524481568 -852234019 652466485 -1967048607 1299074286 -117941716 -1099454683 1877404088 -2135056788 1168373513 1510340832 -1021304416 1972542652 -2141633282 703710562 -1198484690 2001996213 -1346588317 528694340 -2141346823 -434815832 379402744 -1229568486
REM
CELL 1.54180   50.00000   50.00000   50.00000   90.00000   90.00000   90.00000
LATT -1
SFAC C  
C      1  0.4578540000000  0.5415100000000  0.4822960000000 1.0
C      1  0.4545410000000  0.4530470000000  0.5194660000000 1.0
C      1  0.5421450000000  0.4584890000000  0.4822960000000 1.0
C      1  0.5454600000000  0.5469530000000  0.5194630000000 1.0
C      1  0.5724890000000  0.5108800000000  0.4798840000000 1.0
C      1  0.5697820000000  0.4910310000000  0.5193710000000 1.0
C      1  0.4275110000000  0.4891190000000  0.4798870000000 1.0
C      1  0.4302180000000  0.5089700000000  0.5193730000000 1.0
C      1  0.5029520000000  0.5272650000000  0.5774670000000 1.0
C      1  0.5031840000000  0.4728100000000  0.4221550000000 1.0
C      1  0.4970500000000  0.4727390000000  0.5774680000000 1.0
C      1  0.4968140000000  0.5271870000000  0.4221540000000 1.0
C      1  0.5237250000000  0.5147640000000  0.4920980000000 1.0
C      1  0.5172300000000  0.4917380000000  0.5089500000000 1.0
C      1  0.4762750000000  0.4852360000000  0.4920990000000 1.0
C      1  0.4827700000000  0.5082620000000  0.5089510000000 1.0
C      1  0.4462400000000  0.4382380000000  0.4785470000000 1.0
C      1  0.4491980000000  0.5597950000000  0.5215850000000 1.0
C      1  0.5537600000000  0.5617610000000  0.4785430000000 1.0
C      1  0.5508030000000  0.4402050000000  0.5215860000000 1.0
C      1  0.5376470000000  0.4646750000000  0.4535160000000 1.0
C      1  0.5390520000000  0.5375040000000  0.5477950000000 1.0
C      1  0.4623520000000  0.5353230000000  0.4535160000000 1.0
C      1  0.4609490000000  0.4624980000000  0.5477970000000 1.0
C      1  0.4928450000000  0.5457530000000  0.5331200000000 1.0
C      1  0.4905230000000  0.4524500000000  0.4661150000000 1.0
C      1  0.5071560000000  0.4542490000000  0.5331210000000 1.0
C      1  0.5094770000000  0.5475480000000  0.4661130000000 1.0
C      1  0.5443160000000  0.5150510000000  0.4693400000000 1.0
C      1  0.5413770000000  0.4877160000000  0.5302670000000 1.0
C      1  0.4556840000000  0.4849480000000  0.4693420000000 1.0
C      1  0.4586240000000  0.5122850000000  0.5302680000000 1.0
C      1  0.4621090000000  0.5058820000000  0.4470830000000 1.0
C      1  0.4614160000000  0.4925110000000  0.5536060000000 1.0
C      1  0.5378890000000  0.4941160000000  0.4470820000000 1.0
C      1  0.5385850000000  0.5074910000000  0.5536050000000 1.0
C      1  0.5357100000000  0.4585490000000  0.5366450000000 1.0
C      1  0.5385660000000  0.5442400000000  0.4624800000000 1.0
C      1  0.4642910000000  0.5414530000000  0.5366450000000 1.0
C      1  0.4614330000000  0.4557580000000  0.4624830000000 1.0
C      1  0.4801130000000  0.4967730000000  0.5759910000000 1.0
C      1  0.4800330000000  0.5027360000000  0.4237770000000 1.0
C      1  0.5198890000000  0.5032300000000  0.5759900000000 1.0
C      1  0.5199650000000  0.4972610000000  0.4237760000000 1.0
C      1  0.4463680000000  0.5644930000000  0.4947380000000 1.0
C      1  0.4395160000000  0.4335700000000  0.5047250000000 1.0
C      1  0.5536320000000  0.4355060000000  0.4947390000000 1.0
C      1  0.5604840000000  0.5664300000000  0.5047200000000 1.0
C      1  0.4898250000000  0.5446930000000  0.4443350000000 1.0
C      1  0.4891510000000  0.4548530000000  0.5559240000000 1.0
C      1  0.5101740000000  0.4553050000000  0.4443370000000 1.0
C      1  0.5108500000000  0.5451500000000  0.5559220000000 1.0
C      1  0.4842450000000  0.5340690000000  0.4919930000000 1.0
C      1  0.4802230000000  0.4588030000000  0.5067880000000 1.0
C      1  0.5157550000000  0.4659310000000  0.4919940000000 1.0
C      1  0.5197770000000  0.5411970000000  0.5067860000000 1.0
C      1  0.5770530000000  0.5180610000000  0.5086920000000 1.0
C      1  0.5772200000000  0.4835850000000  0.4912500000000 1.0
C      1  0.4229470000000  0.4819390000000  0.5086950000000 1.0
C      1  0.4227800000000  0.5164150000000  0.4912520000000 1.0
END
