TITL C-38189-4514-49 -8.91194330192025e-07 125000 -379.063369058059 0 0 60 (C1) n - 1
REM
REM in /home/bkarasulu/CARBON/AIRSS/Generating-Clusters/EDIP-Nigel-Params/Higher-Symm/Box-15A/Only-C60/SD-CG/FIRE-HFTN
REM
REM
REM
REM
REM
REM ./C.cell (414f73aa93bd7a1190c7fd0f31ff2f98)
REM
REM compiler GCC version 9.2.1 20190827 (Red Hat 9.2.1-1)
REM options -cpp -mtune=generic -march=x86-64 -g -O0 -fpre-include=/usr/include/finclude/math-vector-fortran.h
REM seed 557457260 1262673418 -613081511 -971296441 1611829885 1168001746 855442661 -503596962 -380123449 2140129043 -1283962793 -833390107 -1544960202 -1408740382 -1148926351 1552859481 -2002109684 1127026922 123441658 1488034664 216052392 -1691254429 737989796 -1822690575 1334210809 -1703280985 -43043058 1795448853 118248224 -462053039 1836395086 928446448 -1131170937
REM
CELL 1.54180   50.00000   50.00000   50.00000   90.00000   90.00000   90.00000
LATT -1
SFAC C  
C      1  0.4700920000000  0.4500310000000  0.5093430000000 1.0
C      1  0.4493550000000  0.5095550000000  0.4693390000000 1.0
C      1  0.5092820000000  0.4700970000000  0.4498180000000 1.0
C      1  0.4700920000000  0.5499690000000  0.4906570000000 1.0
C      1  0.5302460000000  0.4491860000000  0.4902460000000 1.0
C      1  0.5302450000000  0.5508140000000  0.5097550000000 1.0
C      1  0.4493550000000  0.4904450000000  0.5306600000000 1.0
C      1  0.5501900000000  0.5095990000000  0.5295450000000 1.0
C      1  0.5501910000000  0.4904010000000  0.4704560000000 1.0
C      1  0.5092820000000  0.5299030000000  0.5501820000000 1.0
C      1  0.4901360000000  0.4696640000000  0.5506750000000 1.0
C      1  0.4901370000000  0.5303360000000  0.4493250000000 1.0
C      1  0.4697550000000  0.5097550000000  0.4491860000000 1.0
C      1  0.4498090000000  0.4704560000000  0.5095990000000 1.0
C      1  0.5098640000000  0.4493250000000  0.4696640000000 1.0
C      1  0.4697540000000  0.4902450000000  0.5508140000000 1.0
C      1  0.5299080000000  0.4906570000000  0.4500310000000 1.0
C      1  0.5299080000000  0.5093430000000  0.5499690000000 1.0
C      1  0.4498090000000  0.5295440000000  0.4904010000000 1.0
C      1  0.5506450000000  0.5306610000000  0.5095550000000 1.0
C      1  0.5506450000000  0.4693390000000  0.4904450000000 1.0
C      1  0.5098630000000  0.5506750000000  0.5303360000000 1.0
C      1  0.4907180000000  0.5501820000000  0.4700970000000 1.0
C      1  0.4907180000000  0.4498180000000  0.5299030000000 1.0
C      1  0.5340100000000  0.4307630000000  0.5129080000000 1.0
C      1  0.4318920000000  0.5138250000000  0.5347520000000 1.0
C      1  0.5128890000000  0.5340290000000  0.4309810000000 1.0
C      1  0.5340100000000  0.5692370000000  0.4870920000000 1.0
C      1  0.4656600000000  0.4323860000000  0.4861240000000 1.0
C      1  0.4656600000000  0.5676130000000  0.5138760000000 1.0
C      1  0.4318920000000  0.4861740000000  0.4652480000000 1.0
C      1  0.5688300000000  0.5128760000000  0.4663750000000 1.0
C      1  0.5688300000000  0.4871250000000  0.5336250000000 1.0
C      1  0.5128890000000  0.4659710000000  0.5690200000000 1.0
C      1  0.4861080000000  0.5343730000000  0.5678770000000 1.0
C      1  0.4861080000000  0.4656270000000  0.4321230000000 1.0
C      1  0.5343400000000  0.5138760000000  0.4323870000000 1.0
C      1  0.4311700000000  0.5336250000000  0.5128750000000 1.0
C      1  0.5138920000000  0.4321230000000  0.5343730000000 1.0
C      1  0.5343400000000  0.4861240000000  0.5676140000000 1.0
C      1  0.4659900000000  0.4870920000000  0.4307630000000 1.0
C      1  0.4659900000000  0.5129080000000  0.5692370000000 1.0
C      1  0.4311700000000  0.4663750000000  0.4871240000000 1.0
C      1  0.5681080000000  0.4652480000000  0.5138260000000 1.0
C      1  0.5681080000000  0.5347520000000  0.4861750000000 1.0
C      1  0.5138920000000  0.5678770000000  0.4656270000000 1.0
C      1  0.4871110000000  0.5690200000000  0.5340290000000 1.0
C      1  0.4871110000000  0.4309800000000  0.4659710000000 1.0
C      1  0.4421890000000  0.4434460000000  0.4703540000000 1.0
C      1  0.4431460000000  0.4702720000000  0.4418510000000 1.0
C      1  0.4703230000000  0.4421240000000  0.4431620000000 1.0
C      1  0.4421890000000  0.5565540000000  0.5296450000000 1.0
C      1  0.5568540000000  0.4418510000000  0.5297280000000 1.0
C      1  0.5568540000000  0.5581490000000  0.4702720000000 1.0
C      1  0.4431460000000  0.5297280000000  0.5581490000000 1.0
C      1  0.5578110000000  0.4703550000000  0.5565540000000 1.0
C      1  0.5578110000000  0.5296460000000  0.4434470000000 1.0
C      1  0.4703230000000  0.5578760000000  0.5568370000000 1.0
C      1  0.5296770000000  0.4431630000000  0.5578760000000 1.0
C      1  0.5296770000000  0.5568380000000  0.4421240000000 1.0
END
