TITL C-38192-7909-275 8.54443387923199e-05 125000 -359.655439269818 0 0 60 (S10) n - 1
REM
REM in /home/bkarasulu/CARBON/AIRSS/Generating-Clusters/EDIP-Nigel-Params/Higher-Symm/Box-15A/Only-C60/SD-CG/FIRE-HFTN
REM
REM
REM
REM
REM
REM ./C.cell (414f73aa93bd7a1190c7fd0f31ff2f98)
REM
REM compiler GCC version 9.2.1 20190827 (Red Hat 9.2.1-1)
REM options -cpp -mtune=generic -march=x86-64 -g -O0 -fpre-include=/usr/include/finclude/math-vector-fortran.h
REM seed -1875060146 43984983 627253983 -1984424613 168795801 1151303431 -1847269605 100111466 -682589984 -461767852 426451796 504820487 -2064672125 -450697163 -1385823763 -1272405254 -82249472 1424563769 1284592519 -852972055 1797350954 -235476097 -2116708950 1136188062 -1630329607 1491720985 -1780944828 1521623101 -30548488 813887193 -959716315 -1642489989 2088337163
REM
CELL 1.54180   50.00000   50.00000   50.00000   90.00000   90.00000   90.00000
LATT -1
SFAC C  
C      1  0.4546790000000  0.4771940000000  0.4459420000000 1.0
C      1  0.4767390000000  0.4549110000000  0.5540590000000 1.0
C      1  0.5076840000000  0.4498500000000  0.4459410000000 1.0
C      1  0.5356950000000  0.4639440000000  0.5540580000000 1.0
C      1  0.5500700000000  0.4918110000000  0.4459410000000 1.0
C      1  0.5453210000000  0.5228060000000  0.5540580000000 1.0
C      1  0.5232610000000  0.5450890000000  0.4459410000000 1.0
C      1  0.4923160000000  0.5501500000000  0.5540590000000 1.0
C      1  0.4643050000000  0.5360560000000  0.4459420000000 1.0
C      1  0.4499300000000  0.5081890000000  0.5540590000000 1.0
C      1  0.5566730000000  0.5313770000000  0.4865200000000 1.0
C      1  0.5274070000000  0.5586960000000  0.5134800000000 1.0
C      1  0.4876720000000  0.5635950000000  0.4865200000000 1.0
C      1  0.4526460000000  0.5442030000000  0.5134800000000 1.0
C      1  0.4357080000000  0.5079270000000  0.4865200000000 1.0
C      1  0.4433270000000  0.4686230000000  0.5134800000000 1.0
C      1  0.4725930000000  0.4413040000000  0.4865200000000 1.0
C      1  0.5123280000000  0.4364050000000  0.5134800000000 1.0
C      1  0.5473540000000  0.4557970000000  0.4865200000000 1.0
C      1  0.5642920000000  0.4920730000000  0.5134800000000 1.0
C      1  0.4798140000000  0.4613180000000  0.4549110000000 1.0
C      1  0.5064060000000  0.4568410000000  0.5450890000000 1.0
C      1  0.5305510000000  0.4688490000000  0.4549110000000 1.0
C      1  0.5430260000000  0.4927560000000  0.5450890000000 1.0
C      1  0.5390670000000  0.5194300000000  0.4549110000000 1.0
C      1  0.5201860000000  0.5386820000000  0.5450890000000 1.0
C      1  0.4935940000000  0.5431590000000  0.4549110000000 1.0
C      1  0.4694490000000  0.5311510000000  0.5450890000000 1.0
C      1  0.4569740000000  0.5072440000000  0.4549110000000 1.0
C      1  0.4609330000000  0.4805700000000  0.5450890000000 1.0
C      1  0.4744790000000  0.5043630000000  0.4796430000000 1.0
C      1  0.4767890000000  0.4885290000000  0.5203580000000 1.0
C      1  0.4879640000000  0.4770760000000  0.4796430000000 1.0
C      1  0.5037370000000  0.4743800000000  0.5203570000000 1.0
C      1  0.5180820000000  0.4814700000000  0.4796420000000 1.0
C      1  0.5255210000000  0.4956370000000  0.5203570000000 1.0
C      1  0.5232110000000  0.5114710000000  0.4796420000000 1.0
C      1  0.5120360000000  0.5229240000000  0.5203570000000 1.0
C      1  0.4962630000000  0.5256200000000  0.4796430000000 1.0
C      1  0.4819180000000  0.5185300000000  0.5203580000000 1.0
C      1  0.5410280000000  0.4399510000000  0.5108970000000 1.0
C      1  0.5684880000000  0.4755360000000  0.4891030000000 1.0
C      1  0.5697880000000  0.5204640000000  0.5108970000000 1.0
C      1  0.5444310000000  0.5575760000000  0.4891030000000 1.0
C      1  0.5021030000000  0.5726960000000  0.5108970000000 1.0
C      1  0.4589720000000  0.5600490000000  0.4891030000000 1.0
C      1  0.4315120000000  0.5244640000000  0.5108970000000 1.0
C      1  0.4302120000000  0.4795360000000  0.4891030000000 1.0
C      1  0.4555690000000  0.4424240000000  0.5108970000000 1.0
C      1  0.4978970000000  0.4273040000000  0.4891030000000 1.0
C      1  0.4662290000000  0.4356040000000  0.5361120000000 1.0
C      1  0.5105300000000  0.4280520000000  0.4638880000000 1.0
C      1  0.5508090000000  0.4479820000000  0.5361120000000 1.0
C      1  0.5716810000000  0.4877810000000  0.4638880000000 1.0
C      1  0.5651730000000  0.5322480000000  0.5361120000000 1.0
C      1  0.5337710000000  0.5643960000000  0.4638880000000 1.0
C      1  0.4894700000000  0.5719480000000  0.5361120000000 1.0
C      1  0.4491910000000  0.5520180000000  0.4638880000000 1.0
C      1  0.4283190000000  0.5122190000000  0.5361120000000 1.0
C      1  0.4348270000000  0.4677520000000  0.4638880000000 1.0
END
