TITL C-38195-9455-136 2.0189280881523e-05 125000 -372.957703852552 0 0 60 (C1) n - 1
REM
REM in /home/bkarasulu/CARBON/AIRSS/Generating-Clusters/EDIP-Nigel-Params/Higher-Symm/Box-15A/Only-C60/SD-CG/FIRE-HFTN
REM
REM
REM
REM
REM
REM ./C.cell (414f73aa93bd7a1190c7fd0f31ff2f98)
REM
REM compiler GCC version 9.2.1 20190827 (Red Hat 9.2.1-1)
REM options -cpp -mtune=generic -march=x86-64 -g -O0 -fpre-include=/usr/include/finclude/math-vector-fortran.h
REM seed -1146036639 -1789006843 1115825760 -2136663169 1699332999 40970372 -269972440 -147855734 493719489 2033849214 -1379347071 -1079052660 1333539047 198992541 1307942112 -1389730605 -1261492012 894612962 -1497888797 115989228 2137290454 1402321626 -1555743771 1840959341 -1644993404 -1987501447 -2078697096 26219236 -678366136 1793985696 35636684 335982815 -2086044015
REM
CELL 1.54180   50.00000   50.00000   50.00000   90.00000   90.00000   90.00000
LATT -1
SFAC C  
C      1  0.4283990000000  0.5086040000000  0.4746660000000 1.0
C      1  0.5145250000000  0.4848600000000  0.4386650000000 1.0
C      1  0.4706810000000  0.4254090000000  0.5199530000000 1.0
C      1  0.5738820000000  0.4897840000000  0.4786590000000 1.0
C      1  0.4218010000000  0.4785070000000  0.5190650000000 1.0
C      1  0.5827310000000  0.5181730000000  0.5227030000000 1.0
C      1  0.4833190000000  0.5253970000000  0.4334140000000 1.0
C      1  0.5097280000000  0.5260660000000  0.5666180000000 1.0
C      1  0.4888850000000  0.4738470000000  0.5676390000000 1.0
C      1  0.5323030000000  0.5699530000000  0.5145010000000 1.0
C      1  0.4863680000000  0.5732570000000  0.4852980000000 1.0
C      1  0.5093040000000  0.4301610000000  0.4865850000000 1.0
C      1  0.4261790000000  0.5072260000000  0.5190910000000 1.0
C      1  0.5169560000000  0.4798560000000  0.5631540000000 1.0
C      1  0.4658900000000  0.4217170000000  0.4913560000000 1.0
C      1  0.5757940000000  0.4899610000000  0.5230020000000 1.0
C      1  0.4276890000000  0.4794680000000  0.4751030000000 1.0
C      1  0.5811490000000  0.5178490000000  0.4783110000000 1.0
C      1  0.4819040000000  0.5197440000000  0.5612570000000 1.0
C      1  0.5122000000000  0.5287460000000  0.4314700000000 1.0
C      1  0.4860850000000  0.4810770000000  0.4338450000000 1.0
C      1  0.5306360000000  0.5697800000000  0.4848660000000 1.0
C      1  0.4860860000000  0.5719790000000  0.5142190000000 1.0
C      1  0.5146490000000  0.4278340000000  0.5150080000000 1.0
C      1  0.5606580000000  0.4783590000000  0.5431040000000 1.0
C      1  0.4627250000000  0.5343550000000  0.5453720000000 1.0
C      1  0.5424830000000  0.5527580000000  0.4645620000000 1.0
C      1  0.4392730000000  0.5209580000000  0.5393110000000 1.0
C      1  0.5649390000000  0.5369680000000  0.4668830000000 1.0
C      1  0.4469210000000  0.4603280000000  0.4649740000000 1.0
C      1  0.5365390000000  0.4655820000000  0.5473680000000 1.0
C      1  0.4690390000000  0.4662060000000  0.4495250000000 1.0
C      1  0.5267640000000  0.5498490000000  0.4419890000000 1.0
C      1  0.4463130000000  0.4357190000000  0.4776060000000 1.0
C      1  0.5299940000000  0.4453930000000  0.5297520000000 1.0
C      1  0.4695940000000  0.5560440000000  0.5296830000000 1.0
C      1  0.5572090000000  0.4781370000000  0.4598440000000 1.0
C      1  0.4642770000000  0.5382520000000  0.4510460000000 1.0
C      1  0.5408530000000  0.5488680000000  0.5325340000000 1.0
C      1  0.4411120000000  0.5239370000000  0.4554730000000 1.0
C      1  0.5658240000000  0.5370840000000  0.5337080000000 1.0
C      1  0.4366680000000  0.4603000000000  0.5336560000000 1.0
C      1  0.5320110000000  0.4681980000000  0.4544360000000 1.0
C      1  0.4755230000000  0.4511580000000  0.5592550000000 1.0
C      1  0.5239110000000  0.5462980000000  0.5542750000000 1.0
C      1  0.4587260000000  0.4442880000000  0.5384320000000 1.0
C      1  0.5231300000000  0.4469630000000  0.4695970000000 1.0
C      1  0.4700700000000  0.5591270000000  0.4681180000000 1.0
C      1  0.4738240000000  0.5023090000000  0.4203600000000 1.0
C      1  0.4108240000000  0.4688960000000  0.4951190000000 1.0
C      1  0.5262840000000  0.5057410000000  0.4239420000000 1.0
C      1  0.4732710000000  0.4961800000000  0.5737110000000 1.0
C      1  0.5249280000000  0.5040840000000  0.5747810000000 1.0
C      1  0.5968830000000  0.5263530000000  0.4999020000000 1.0
C      1  0.4165470000000  0.5212710000000  0.4967230000000 1.0
C      1  0.5835660000000  0.4749110000000  0.5004930000000 1.0
C      1  0.4885600000000  0.4139870000000  0.4766020000000 1.0
C      1  0.5093250000000  0.5854620000000  0.4747960000000 1.0
C      1  0.5094620000000  0.5826760000000  0.5255890000000 1.0
C      1  0.4948250000000  0.4137470000000  0.5290310000000 1.0
END
