TITL C-38196-2854-29 7.62656927709164e-07 125000 -360.782992532096 0 0 60 (S4) n - 1
REM
REM in /home/bkarasulu/CARBON/AIRSS/Generating-Clusters/EDIP-Nigel-Params/Higher-Symm/Box-15A/Only-C60/SD-CG/FIRE-HFTN
REM
REM
REM
REM
REM
REM ./C.cell (414f73aa93bd7a1190c7fd0f31ff2f98)
REM
REM compiler GCC version 9.2.1 20190827 (Red Hat 9.2.1-1)
REM options -cpp -mtune=generic -march=x86-64 -g -O0 -fpre-include=/usr/include/finclude/math-vector-fortran.h
REM seed 1439656794 -856275830 2057186949 -1321165072 608192328 942691079 -1839891247 -1687109341 1821431421 -1519922264 796056020 -124644133 -819763732 1449324168 1671955262 -699818627 873770895 2048935226 2063479174 390848517 94832592 -455209851 -1051040254 -1331315504 -661900809 466348702 -1762909880 -801912994 -1950595191 733916272 -2049673202 1941432531 799986428
REM
CELL 1.54180   50.00000   50.00000   50.00000   90.00000   90.00000   90.00000
LATT -1
SFAC C  
C      1  0.4420990000000  0.4674930000000  0.5301250000000 1.0
C      1  0.5579010000000  0.4674930000000  0.4698750000000 1.0
C      1  0.4348640000000  0.5321940000000  0.4759490000000 1.0
C      1  0.5651360000000  0.5321940000000  0.5240510000000 1.0
C      1  0.5240510000000  0.4678060000000  0.4348640000000 1.0
C      1  0.4759490000000  0.4678060000000  0.5651360000000 1.0
C      1  0.4698750000000  0.5325070000000  0.4420990000000 1.0
C      1  0.5301250000000  0.5325070000000  0.5579010000000 1.0
C      1  0.5042830000000  0.5281140000000  0.4808890000000 1.0
C      1  0.4957170000000  0.5281140000000  0.5191110000000 1.0
C      1  0.4953090000000  0.4704730000000  0.5262290000000 1.0
C      1  0.5046910000000  0.4704730000000  0.4737710000000 1.0
C      1  0.4737710000000  0.5295270000000  0.4953090000000 1.0
C      1  0.5262290000000  0.5295270000000  0.5046910000000 1.0
C      1  0.5191110000000  0.4718860000000  0.5042830000000 1.0
C      1  0.4808890000000  0.4718860000000  0.4957170000000 1.0
C      1  0.4904140000000  0.4349290000000  0.4525030000000 1.0
C      1  0.5095860000000  0.4349290000000  0.5474970000000 1.0
C      1  0.4667640000000  0.5646080000000  0.5338900000000 1.0
C      1  0.5332360000000  0.5646080000000  0.4661100000000 1.0
C      1  0.4661100000000  0.4353920000000  0.4667640000000 1.0
C      1  0.5338900000000  0.4353920000000  0.5332360000000 1.0
C      1  0.5474970000000  0.5650710000000  0.4904140000000 1.0
C      1  0.4525030000000  0.5650710000000  0.5095860000000 1.0
C      1  0.4505760000000  0.4952350000000  0.5363520000000 1.0
C      1  0.5494240000000  0.4952350000000  0.4636480000000 1.0
C      1  0.4450920000000  0.5050350000000  0.4723910000000 1.0
C      1  0.5549080000000  0.5050350000000  0.5276090000000 1.0
C      1  0.5276090000000  0.4949650000000  0.4450920000000 1.0
C      1  0.4723910000000  0.4949650000000  0.5549080000000 1.0
C      1  0.4636480000000  0.5047650000000  0.4505760000000 1.0
C      1  0.5363520000000  0.5047650000000  0.5494240000000 1.0
C      1  0.5664820000000  0.4826050000000  0.5154780000000 1.0
C      1  0.4335180000000  0.4826050000000  0.4845220000000 1.0
C      1  0.5570620000000  0.5177780000000  0.4780390000000 1.0
C      1  0.4429380000000  0.5177780000000  0.5219610000000 1.0
C      1  0.5219610000000  0.4822220000000  0.5570620000000 1.0
C      1  0.4780390000000  0.4822220000000  0.4429380000000 1.0
C      1  0.4845220000000  0.5173950000000  0.5664820000000 1.0
C      1  0.5154780000000  0.5173950000000  0.4335180000000 1.0
C      1  0.4692400000000  0.5598070000000  0.4851730000000 1.0
C      1  0.5307600000000  0.5598070000000  0.5148270000000 1.0
C      1  0.4641910000000  0.4469840000000  0.4923740000000 1.0
C      1  0.5358090000000  0.4469840000000  0.5076260000000 1.0
C      1  0.5076260000000  0.5530160000000  0.4641910000000 1.0
C      1  0.4923740000000  0.5530160000000  0.5358090000000 1.0
C      1  0.5148270000000  0.4401930000000  0.4692400000000 1.0
C      1  0.4851730000000  0.4401930000000  0.5307600000000 1.0
C      1  0.5643500000000  0.5397940000000  0.4946220000000 1.0
C      1  0.4356500000000  0.5397940000000  0.5053780000000 1.0
C      1  0.5613670000000  0.4599240000000  0.4993250000000 1.0
C      1  0.4386330000000  0.4599240000000  0.5006750000000 1.0
C      1  0.5006750000000  0.5400760000000  0.5613670000000 1.0
C      1  0.4993250000000  0.5400760000000  0.4386330000000 1.0
C      1  0.5053780000000  0.4602060000000  0.5643500000000 1.0
C      1  0.4946220000000  0.4602060000000  0.4356500000000 1.0
C      1  0.5390160000000  0.4491260000000  0.4536730000000 1.0
C      1  0.4536730000000  0.5508740000000  0.4609840000000 1.0
C      1  0.4609840000000  0.4491260000000  0.5463270000000 1.0
C      1  0.5463270000000  0.5508740000000  0.5390160000000 1.0
END
