TITL C-38198-1686-22 1.00060127418507e-07 125000 -368.442070089005 0 0 60 (C1) n - 1
REM
REM in /home/bkarasulu/CARBON/AIRSS/Generating-Clusters/EDIP-Nigel-Params/Higher-Symm/Box-15A/Only-C60/SD-CG/FIRE-HFTN
REM
REM
REM
REM
REM
REM ./C.cell (414f73aa93bd7a1190c7fd0f31ff2f98)
REM
REM compiler GCC version 9.2.1 20190827 (Red Hat 9.2.1-1)
REM options -cpp -mtune=generic -march=x86-64 -g -O0 -fpre-include=/usr/include/finclude/math-vector-fortran.h
REM seed -2009677914 -2137637508 1092643797 -933465097 1723998786 1535205726 -323291028 2113633757 -112392619 801750595 1484328264 1144974266 -359885913 -1040895853 1673839644 884290981 250539483 -1139573905 -34804946 34501115 -1099857481 -1651249791 1569791833 1337031226 1105414879 975604019 1377402792 1425525265 -344839468 -1689010093 -1157179186 -975660323 1120137700
REM
CELL 1.54180   50.00000   50.00000   50.00000   90.00000   90.00000   90.00000
LATT -1
SFAC C  
C      1  0.4381630000000  0.5008170000000  0.4825120000000 1.0
C      1  0.4550570000000  0.5678120000000  0.4779850000000 1.0
C      1  0.4975320000000  0.4446130000000  0.4702230000000 1.0
C      1  0.5667960000000  0.4493810000000  0.5250170000000 1.0
C      1  0.5420870000000  0.5650870000000  0.5011130000000 1.0
C      1  0.4562070000000  0.4735460000000  0.5434780000000 1.0
C      1  0.5200840000000  0.5633930000000  0.5198480000000 1.0
C      1  0.4933960000000  0.5046340000000  0.4822010000000 1.0
C      1  0.5307260000000  0.5075790000000  0.4455560000000 1.0
C      1  0.5278250000000  0.5268510000000  0.5550950000000 1.0
C      1  0.5382190000000  0.4762410000000  0.4818120000000 1.0
C      1  0.4672770000000  0.5083800000000  0.4373370000000 1.0
C      1  0.4981580000000  0.4272980000000  0.5195470000000 1.0
C      1  0.5395440000000  0.4462980000000  0.4838090000000 1.0
C      1  0.4846070000000  0.4332500000000  0.5435550000000 1.0
C      1  0.4473040000000  0.5358300000000  0.5326140000000 1.0
C      1  0.4406330000000  0.4934530000000  0.5564000000000 1.0
C      1  0.4777440000000  0.5227720000000  0.5526520000000 1.0
C      1  0.4684150000000  0.5400720000000  0.5100220000000 1.0
C      1  0.4679740000000  0.4814140000000  0.4462190000000 1.0
C      1  0.5143060000000  0.4895460000000  0.4644840000000 1.0
C      1  0.5453460000000  0.4995980000000  0.5565330000000 1.0
C      1  0.4260760000000  0.4975760000000  0.5084480000000 1.0
C      1  0.4799510000000  0.4587710000000  0.5553350000000 1.0
C      1  0.5843990000000  0.4825090000000  0.4905660000000 1.0
C      1  0.5517430000000  0.5385800000000  0.4952010000000 1.0
C      1  0.4332850000000  0.5103500000000  0.5341550000000 1.0
C      1  0.4629850000000  0.4547710000000  0.5019990000000 1.0
C      1  0.5339460000000  0.4894580000000  0.5093310000000 1.0
C      1  0.5462810000000  0.4356810000000  0.5099000000000 1.0
C      1  0.5588180000000  0.5091530000000  0.4559550000000 1.0
C      1  0.5050260000000  0.4726730000000  0.5476660000000 1.0
C      1  0.4922620000000  0.4500100000000  0.5005520000000 1.0
C      1  0.5041600000000  0.5722660000000  0.4946740000000 1.0
C      1  0.5070480000000  0.4768140000000  0.5178100000000 1.0
C      1  0.4473140000000  0.4770920000000  0.4671410000000 1.0
C      1  0.5132020000000  0.5559280000000  0.4470940000000 1.0
C      1  0.5642370000000  0.5323290000000  0.4711040000000 1.0
C      1  0.5051930000000  0.5509440000000  0.4737050000000 1.0
C      1  0.5253620000000  0.4209010000000  0.5213460000000 1.0
C      1  0.5009780000000  0.5190890000000  0.5698860000000 1.0
C      1  0.5219420000000  0.4311610000000  0.4679750000000 1.0
C      1  0.4892380000000  0.5233740000000  0.5255990000000 1.0
C      1  0.5642180000000  0.4846530000000  0.4713460000000 1.0
C      1  0.4532120000000  0.5313100000000  0.4459890000000 1.0
C      1  0.4960610000000  0.4685790000000  0.4515850000000 1.0
C      1  0.4384060000000  0.5272960000000  0.4707530000000 1.0
C      1  0.5208890000000  0.5321780000000  0.4368440000000 1.0
C      1  0.4818210000000  0.5323530000000  0.4783810000000 1.0
C      1  0.4869110000000  0.4966810000000  0.5103480000000 1.0
C      1  0.4664990000000  0.5564630000000  0.4528830000000 1.0
C      1  0.4325620000000  0.5513650000000  0.4845570000000 1.0
C      1  0.4742710000000  0.5696370000000  0.5022460000000 1.0
C      1  0.5850380000000  0.4696200000000  0.5151930000000 1.0
C      1  0.4474790000000  0.4516650000000  0.4790880000000 1.0
C      1  0.5331120000000  0.5194540000000  0.5066480000000 1.0
C      1  0.5538540000000  0.4851070000000  0.5312080000000 1.0
C      1  0.5178080000000  0.5339200000000  0.5268420000000 1.0
C      1  0.4599360000000  0.4808700000000  0.5147820000000 1.0
C      1  0.5170770000000  0.4915490000000  0.5678520000000 1.0
END
