TITL C-38184-643-453 2.38653588764479e-07 125000 -366.435282571265 0 0 60 (C5) n - 1
REM
REM in /home/bkarasulu/CARBON/AIRSS/Generating-Clusters/EDIP-Nigel-Params/Higher-Symm/Box-15A/Only-C60/SD-CG/FIRE-HFTN
REM
REM
REM
REM
REM
REM ./C.cell (414f73aa93bd7a1190c7fd0f31ff2f98)
REM
REM compiler GCC version 9.2.1 20190827 (Red Hat 9.2.1-1)
REM options -cpp -mtune=generic -march=x86-64 -g -O0 -fpre-include=/usr/include/finclude/math-vector-fortran.h
REM seed 1983933238 840420422 1065565952 -760042690 1084778725 357691457 -1103153821 -1191693453 2118564454 -482378495 -1485849976 -1528527230 -343456027 1621871096 -1169233490 1227475938 -177118564 1278411412 -1115175207 -1620056444 311359927 -944529310 1621009168 478231209 1012954336 1801558959 410358784 -1718080305 -460126431 -1023406036 838990802 -512399971 -76909826
REM
CELL 1.54180   50.00000   50.00000   50.00000   90.00000   90.00000   90.00000
LATT -1
SFAC C  
C      1  0.4639160000000  0.5544270000000  0.4851580000000 1.0
C      1  0.4639160000000  0.5309340000000  0.5471770000000 1.0
C      1  0.4639160000000  0.4646910000000  0.5439990000000 1.0
C      1  0.4639160000000  0.4472440000000  0.4800160000000 1.0
C      1  0.4639160000000  0.5027040000000  0.4436500000000 1.0
C      1  0.5570770000000  0.5067680000000  0.4754380000000 1.0
C      1  0.5570770000000  0.5254510000000  0.4988470000000 1.0
C      1  0.5570760000000  0.5089610000000  0.5238490000000 1.0
C      1  0.5570760000000  0.4800870000000  0.5158930000000 1.0
C      1  0.5570760000000  0.4787320000000  0.4859730000000 1.0
C      1  0.5067250000000  0.4810220000000  0.4842480000000 1.0
C      1  0.5067250000000  0.5091170000000  0.4770830000000 1.0
C      1  0.5067250000000  0.5246130000000  0.5015890000000 1.0
C      1  0.5067250000000  0.5060950000000  0.5238990000000 1.0
C      1  0.5067250000000  0.4791540000000  0.5131820000000 1.0
C      1  0.4593940000000  0.4393680000000  0.5078710000000 1.0
C      1  0.4593940000000  0.4737780000000  0.4447670000000 1.0
C      1  0.4593940000000  0.5444260000000  0.4579940000000 1.0
C      1  0.4593940000000  0.5536790000000  0.5292710000000 1.0
C      1  0.4593940000000  0.4887490000000  0.5600970000000 1.0
C      1  0.5169910000000  0.5071150000000  0.4304680000000 1.0
C      1  0.5169910000000  0.5683280000000  0.4852810000000 1.0
C      1  0.5169910000000  0.5351130000000  0.5604350000000 1.0
C      1  0.5169910000000  0.4533740000000  0.5520700000000 1.0
C      1  0.5169910000000  0.4360700000000  0.4717460000000 1.0
C      1  0.5198070000000  0.5622250000000  0.5457670000000 1.0
C      1  0.5198070000000  0.4757020000000  0.5733230000000 1.0
C      1  0.5198070000000  0.4227570000000  0.4995490000000 1.0
C      1  0.5198070000000  0.4765600000000  0.4263990000000 1.0
C      1  0.5198070000000  0.5627560000000  0.4549630000000 1.0
C      1  0.5308030000000  0.5424950000000  0.4998370000000 1.0
C      1  0.5308030000000  0.5132860000000  0.5403650000000 1.0
C      1  0.5308030000000  0.4657160000000  0.5251100000000 1.0
C      1  0.5308030000000  0.4655250000000  0.4751540000000 1.0
C      1  0.5308030000000  0.5129770000000  0.4595350000000 1.0
C      1  0.4445210000000  0.5206010000000  0.4539090000000 1.0
C      1  0.4445210000000  0.5502010000000  0.5053500000000 1.0
C      1  0.4445210000000  0.5104250000000  0.5493970000000 1.0
C      1  0.4445210000000  0.4562420000000  0.5251790000000 1.0
C      1  0.4445210000000  0.4625310000000  0.4661640000000 1.0
C      1  0.4979760000000  0.5679710000000  0.4382150000000 1.0
C      1  0.4979760000000  0.5797650000000  0.5455520000000 1.0
C      1  0.4979760000000  0.4813270000000  0.5899370000000 1.0
C      1  0.4979760000000  0.4086940000000  0.5100330000000 1.0
C      1  0.4979760000000  0.4622430000000  0.4162630000000 1.0
C      1  0.4822650000000  0.5706240000000  0.5237770000000 1.0
C      1  0.4822650000000  0.4992110000000  0.5745150000000 1.0
C      1  0.4822650000000  0.4288880000000  0.5222760000000 1.0
C      1  0.4822650000000  0.4568390000000  0.4392520000000 1.0
C      1  0.4822650000000  0.5444370000000  0.4401800000000 1.0
C      1  0.5333370000000  0.5388270000000  0.4464540000000 1.0
C      1  0.5333370000000  0.5629230000000  0.5203800000000 1.0
C      1  0.5333370000000  0.5000610000000  0.5661410000000 1.0
C      1  0.5333370000000  0.4371150000000  0.5204970000000 1.0
C      1  0.5333370000000  0.4610730000000  0.4465270000000 1.0
C      1  0.4871880000000  0.5708060000000  0.4942890000000 1.0
C      1  0.4871880000000  0.5273120000000  0.5655750000000 1.0
C      1  0.4871880000000  0.4460740000000  0.5462390000000 1.0
C      1  0.4871880000000  0.4393600000000  0.4630020000000 1.0
C      1  0.4871880000000  0.5164480000000  0.4308950000000 1.0
END
