TITL C-38184-643-366 -1.90954427448795e-06 125000 -378.964989248435 0 0 60 (C1) n - 1
REM
REM in /home/bkarasulu/CARBON/AIRSS/Generating-Clusters/EDIP-Nigel-Params/Higher-Symm/Box-15A/Only-C60/SD-CG/FIRE-HFTN
REM
REM
REM
REM
REM
REM ./C.cell (414f73aa93bd7a1190c7fd0f31ff2f98)
REM
REM compiler GCC version 9.2.1 20190827 (Red Hat 9.2.1-1)
REM options -cpp -mtune=generic -march=x86-64 -g -O0 -fpre-include=/usr/include/finclude/math-vector-fortran.h
REM seed 1789365310 101288981 -1786495903 176481207 -589928664 -1078976736 -1333613144 -1952999048 -2051218735 -957041113 801807178 1209613637 68920656 -907911848 1543776806 567190341 254189617 -1556541230 -702240027 -878076494 227262678 1567633991 -1880381781 1872909469 1013768819 367684681 -1013235668 -1477644896 -1949441670 -1795249412 -1072479485 1788198488 126493027
REM
CELL 1.54180   50.00000   50.00000   50.00000   90.00000   90.00000   90.00000
LATT -1
SFAC C  
C      1  0.4644300000000  0.5146270000000  0.5209290000000 1.0
C      1  0.4558580000000  0.4838140000000  0.5201470000000 1.0
C      1  0.4651610000000  0.4731590000000  0.4929130000000 1.0
C      1  0.4638600000000  0.5026020000000  0.4720730000000 1.0
C      1  0.4553420000000  0.5247600000000  0.4927610000000 1.0
C      1  0.5391050000000  0.4530220000000  0.4490020000000 1.0
C      1  0.5402550000000  0.5332530000000  0.4396790000000 1.0
C      1  0.5403930000000  0.5687320000000  0.5143580000000 1.0
C      1  0.5408750000000  0.5091310000000  0.5698990000000 1.0
C      1  0.5408070000000  0.4366480000000  0.5292850000000 1.0
C      1  0.4570340000000  0.5297010000000  0.5463630000000 1.0
C      1  0.4568280000000  0.4645650000000  0.5428130000000 1.0
C      1  0.4573860000000  0.4463890000000  0.4809290000000 1.0
C      1  0.4570340000000  0.5050680000000  0.4424970000000 1.0
C      1  0.4567600000000  0.5537050000000  0.4861440000000 1.0
C      1  0.4927010000000  0.5750920000000  0.5164130000000 1.0
C      1  0.4929790000000  0.5082890000000  0.5768000000000 1.0
C      1  0.4931440000000  0.4297370000000  0.5313320000000 1.0
C      1  0.4914670000000  0.4490570000000  0.4434590000000 1.0
C      1  0.4936420000000  0.5389670000000  0.4323250000000 1.0
C      1  0.4668450000000  0.5558600000000  0.5473150000000 1.0
C      1  0.4673760000000  0.4731430000000  0.5670760000000 1.0
C      1  0.4681910000000  0.4244320000000  0.4943010000000 1.0
C      1  0.4662990000000  0.4835460000000  0.4274280000000 1.0
C      1  0.4677590000000  0.5607260000000  0.4615740000000 1.0
C      1  0.5377190000000  0.4807760000000  0.4526530000000 1.0
C      1  0.5413070000000  0.5408650000000  0.4667140000000 1.0
C      1  0.5390920000000  0.5439490000000  0.5275550000000 1.0
C      1  0.5406260000000  0.4879600000000  0.5515000000000 1.0
C      1  0.5392120000000  0.4484690000000  0.5038440000000 1.0
C      1  0.5136000000000  0.4743490000000  0.5470180000000 1.0
C      1  0.5119930000000  0.4468170000000  0.4898310000000 1.0
C      1  0.5110630000000  0.4940050000000  0.4462040000000 1.0
C      1  0.5138210000000  0.5484190000000  0.4777970000000 1.0
C      1  0.5117510000000  0.5361730000000  0.5393550000000 1.0
C      1  0.5519700000000  0.4750510000000  0.5018580000000 1.0
C      1  0.5505090000000  0.4910420000000  0.4771520000000 1.0
C      1  0.5538550000000  0.5198820000000  0.4840360000000 1.0
C      1  0.5539200000000  0.5218680000000  0.5141840000000 1.0
C      1  0.5539930000000  0.4938330000000  0.5252800000000 1.0
C      1  0.4678300000000  0.5278040000000  0.4306530000000 1.0
C      1  0.4670980000000  0.5709210000000  0.5053790000000 1.0
C      1  0.4674130000000  0.5176010000000  0.5692940000000 1.0
C      1  0.4673550000000  0.4394050000000  0.5373530000000 1.0
C      1  0.4660570000000  0.4444120000000  0.4546460000000 1.0
C      1  0.4949840000000  0.4251150000000  0.5026160000000 1.0
C      1  0.4928950000000  0.4751700000000  0.4305810000000 1.0
C      1  0.4948500000000  0.5571570000000  0.4551120000000 1.0
C      1  0.4940010000000  0.5608230000000  0.5417990000000 1.0
C      1  0.4944390000000  0.4799700000000  0.5704940000000 1.0
C      1  0.5152980000000  0.4431650000000  0.4599470000000 1.0
C      1  0.5164780000000  0.5203420000000  0.4320170000000 1.0
C      1  0.5165950000000  0.5698350000000  0.4994530000000 1.0
C      1  0.5164330000000  0.5224430000000  0.5659770000000 1.0
C      1  0.5168810000000  0.4443270000000  0.5419200000000 1.0
C      1  0.5033920000000  0.5227080000000  0.4903900000000 1.0
C      1  0.4962650000000  0.5162570000000  0.5191150000000 1.0
C      1  0.5033840000000  0.4874210000000  0.5214430000000 1.0
C      1  0.4966760000000  0.4744070000000  0.4950700000000 1.0
C      1  0.4957130000000  0.4992350000000  0.4739440000000 1.0
END
