TITL C-38194-9318-163 7.87050603262907e-06 125000 -343.925657485175 0 0 60 (S4) n - 1
REM
REM in /home/bkarasulu/CARBON/AIRSS/Generating-Clusters/EDIP-Nigel-Params/Higher-Symm/Box-15A/Only-C60/SD-CG/FIRE-HFTN
REM
REM
REM
REM
REM
REM ./C.cell (414f73aa93bd7a1190c7fd0f31ff2f98)
REM
REM compiler GCC version 9.2.1 20190827 (Red Hat 9.2.1-1)
REM options -cpp -mtune=generic -march=x86-64 -g -O0 -fpre-include=/usr/include/finclude/math-vector-fortran.h
REM seed -1752299211 816702007 1214822443 -14925279 -1675622179 1328637726 1906656003 -497725302 -417997775 2005395932 384740879 -1489953996 2095855679 1441222839 1365282636 1224406788 -1054800089 2030071520 -1192270882 227535801 1830107944 753455090 -1658121352 -2136824933 -1883493169 886834406 -1674621250 -261773982 1432481566 1590507226 794236414 -1879985871 -1094933990
REM
CELL 1.54180   50.00000   50.00000   50.00000   90.00000   90.00000   90.00000
LATT -1
SFAC C  
C      1  0.5061910000000  0.4664350000000  0.5639470000000 1.0
C      1  0.4664350000000  0.4938090000000  0.4360530000000 1.0
C      1  0.4938090000000  0.5335650000000  0.5639470000000 1.0
C      1  0.5335650000000  0.5061910000000  0.4360530000000 1.0
C      1  0.3995520000000  0.5245530000000  0.5021070000000 1.0
C      1  0.5245530000000  0.6004480000000  0.4978930000000 1.0
C      1  0.6004480000000  0.4754470000000  0.5021070000000 1.0
C      1  0.4754470000000  0.3995520000000  0.4978930000000 1.0
C      1  0.5205010000000  0.5169630000000  0.4769220000000 1.0
C      1  0.5169630000000  0.4794990000000  0.5230780000000 1.0
C      1  0.4794990000000  0.4830370000000  0.4769220000000 1.0
C      1  0.4830370000000  0.5205010000000  0.5230780000000 1.0
C      1  0.4416560000000  0.4632630000000  0.5026870000000 1.0
C      1  0.4632630000000  0.5583440000000  0.4973130000000 1.0
C      1  0.5583440000000  0.5367370000000  0.5026870000000 1.0
C      1  0.5367370000000  0.4416560000000  0.4973130000000 1.0
C      1  0.4784410000000  0.5565310000000  0.4369090000000 1.0
C      1  0.5565310000000  0.5215590000000  0.5630910000000 1.0
C      1  0.5215590000000  0.4434690000000  0.4369090000000 1.0
C      1  0.4434690000000  0.4784410000000  0.5630910000000 1.0
C      1  0.4847250000000  0.5761800000000  0.4970870000000 1.0
C      1  0.5761800000000  0.5152750000000  0.5029130000000 1.0
C      1  0.5152750000000  0.4238200000000  0.4970870000000 1.0
C      1  0.4238200000000  0.4847250000000  0.5029130000000 1.0
C      1  0.4673830000000  0.4930370000000  0.5609140000000 1.0
C      1  0.4930370000000  0.5326170000000  0.4390860000000 1.0
C      1  0.5326170000000  0.5069630000000  0.5609140000000 1.0
C      1  0.5069630000000  0.4673830000000  0.4390860000000 1.0
C      1  0.5556700000000  0.4446770000000  0.4742180000000 1.0
C      1  0.4446770000000  0.4443300000000  0.5257820000000 1.0
C      1  0.4443300000000  0.5553230000000  0.4742180000000 1.0
C      1  0.5553230000000  0.5556700000000  0.5257820000000 1.0
C      1  0.4695220000000  0.5202950000000  0.5498880000000 1.0
C      1  0.5202950000000  0.5304780000000  0.4501120000000 1.0
C      1  0.5304780000000  0.4797050000000  0.5498880000000 1.0
C      1  0.4797050000000  0.4695220000000  0.4501120000000 1.0
C      1  0.4711000000000  0.5301690000000  0.4981660000000 1.0
C      1  0.5301690000000  0.5289000000000  0.5018340000000 1.0
C      1  0.5289000000000  0.4698310000000  0.4981660000000 1.0
C      1  0.4698310000000  0.4711000000000  0.5018340000000 1.0
C      1  0.5112430000000  0.5787780000000  0.5050660000000 1.0
C      1  0.5787780000000  0.4887570000000  0.4949340000000 1.0
C      1  0.4887570000000  0.4212220000000  0.5050660000000 1.0
C      1  0.4212220000000  0.5112430000000  0.4949340000000 1.0
C      1  0.4356900000000  0.4567720000000  0.5492630000000 1.0
C      1  0.4567720000000  0.5643100000000  0.4507370000000 1.0
C      1  0.5643100000000  0.5432280000000  0.5492630000000 1.0
C      1  0.5432280000000  0.4356900000000  0.4507370000000 1.0
C      1  0.4674680000000  0.5091760000000  0.4658880000000 1.0
C      1  0.5091760000000  0.5325320000000  0.5341120000000 1.0
C      1  0.5325320000000  0.4908240000000  0.4658880000000 1.0
C      1  0.4908240000000  0.4674680000000  0.5341120000000 1.0
C      1  0.4399680000000  0.5239650000000  0.4750320000000 1.0
C      1  0.5239650000000  0.5600320000000  0.5249680000000 1.0
C      1  0.5600320000000  0.4760350000000  0.4750320000000 1.0
C      1  0.4760350000000  0.4399680000000  0.5249680000000 1.0
C      1  0.4876690000000  0.5090360000000  0.4217240000000 1.0
C      1  0.5090360000000  0.5123310000000  0.5782760000000 1.0
C      1  0.5123310000000  0.4909640000000  0.4217240000000 1.0
C      1  0.4909640000000  0.4876690000000  0.5782760000000 1.0
END
