TITL C-38194-9318-523 2.81325442594067e-06 125000 -370.675703930257 0 0 60 (C1) n - 1
REM
REM in /home/bkarasulu/CARBON/AIRSS/Generating-Clusters/EDIP-Nigel-Params/Higher-Symm/Box-15A/Only-C60/SD-CG/FIRE-HFTN
REM
REM
REM
REM
REM
REM ./C.cell (414f73aa93bd7a1190c7fd0f31ff2f98)
REM
REM compiler GCC version 9.2.1 20190827 (Red Hat 9.2.1-1)
REM options -cpp -mtune=generic -march=x86-64 -g -O0 -fpre-include=/usr/include/finclude/math-vector-fortran.h
REM seed -239375397 691029226 -1495450345 128543882 -992617780 478452295 -854684363 2103964661 -356784515 -259480923 1764324861 1454747510 995975580 1076827250 -1692240983 -484803918 -258656908 2006564895 -580176808 -2108159094 -771792361 1867037101 -895310610 -29847558 237433357 -950942651 -1794574136 269865992 1352335033 1687364841 1857589732 -718266048 -40282717
REM
CELL 1.54180   50.00000   50.00000   50.00000   90.00000   90.00000   90.00000
LATT -1
SFAC C  
C      1  0.4866560000000  0.5337960000000  0.5330290000000 1.0
C      1  0.5160110000000  0.5235800000000  0.5322800000000 1.0
C      1  0.5347860000000  0.5310000000000  0.5092360000000 1.0
C      1  0.5260820000000  0.5144280000000  0.4835570000000 1.0
C      1  0.4981060000000  0.5231460000000  0.4707920000000 1.0
C      1  0.4725320000000  0.5088090000000  0.4844510000000 1.0
C      1  0.4672870000000  0.5208370000000  0.5120810000000 1.0
C      1  0.5330380000000  0.5609010000000  0.5049530000000 1.0
C      1  0.5148350000000  0.5708910000000  0.4828030000000 1.0
C      1  0.4930260000000  0.5525120000000  0.4751920000000 1.0
C      1  0.4674410000000  0.5618480000000  0.4828850000000 1.0
C      1  0.4723580000000  0.5781220000000  0.5051860000000 1.0
C      1  0.4876070000000  0.5656990000000  0.5302350000000 1.0
C      1  0.5176050000000  0.5760200000000  0.5267350000000 1.0
C      1  0.4927500000000  0.4421970000000  0.4600690000000 1.0
C      1  0.4499470000000  0.4661890000000  0.5026050000000 1.0
C      1  0.4552670000000  0.4540680000000  0.5268110000000 1.0
C      1  0.5103610000000  0.4443720000000  0.5307920000000 1.0
C      1  0.5365680000000  0.4466780000000  0.5176170000000 1.0
C      1  0.5350190000000  0.4387190000000  0.4878690000000 1.0
C      1  0.5114280000000  0.4398000000000  0.4391340000000 1.0
C      1  0.4548160000000  0.4719210000000  0.4425140000000 1.0
C      1  0.4271650000000  0.4817160000000  0.5018910000000 1.0
C      1  0.4563480000000  0.4847130000000  0.5623390000000 1.0
C      1  0.5109920000000  0.4792940000000  0.5651750000000 1.0
C      1  0.5680210000000  0.4829010000000  0.5268340000000 1.0
C      1  0.5676910000000  0.4753420000000  0.4689460000000 1.0
C      1  0.5266350000000  0.4829330000000  0.4258370000000 1.0
C      1  0.5721220000000  0.5087720000000  0.5365130000000 1.0
C      1  0.5721370000000  0.5032720000000  0.4687090000000 1.0
C      1  0.5225060000000  0.5104560000000  0.4270620000000 1.0
C      1  0.4520330000000  0.4998260000000  0.4393860000000 1.0
C      1  0.4211910000000  0.5089500000000  0.4995310000000 1.0
C      1  0.4504410000000  0.5121900000000  0.5625370000000 1.0
C      1  0.5151290000000  0.5045360000000  0.5768500000000 1.0
C      1  0.5569890000000  0.5161710000000  0.5583730000000 1.0
C      1  0.5804310000000  0.5150840000000  0.4925030000000 1.0
C      1  0.5443640000000  0.5253450000000  0.4355560000000 1.0
C      1  0.4743950000000  0.5107830000000  0.4272310000000 1.0
C      1  0.4221990000000  0.5183610000000  0.4732620000000 1.0
C      1  0.4314330000000  0.5218020000000  0.5445060000000 1.0
C      1  0.4919900000000  0.5189930000000  0.5817970000000 1.0
C      1  0.5427090000000  0.4756420000000  0.5169520000000 1.0
C      1  0.5407820000000  0.4647110000000  0.4706130000000 1.0
C      1  0.5289170000000  0.4613250000000  0.4429330000000 1.0
C      1  0.4744910000000  0.4649840000000  0.4610070000000 1.0
C      1  0.4737050000000  0.4771250000000  0.4878570000000 1.0
C      1  0.4689880000000  0.4641570000000  0.5484820000000 1.0
C      1  0.4974260000000  0.4654620000000  0.5452070000000 1.0
C      1  0.4487780000000  0.5141350000000  0.4650350000000 1.0
C      1  0.4386000000000  0.5245360000000  0.5176590000000 1.0
C      1  0.4749290000000  0.5280720000000  0.5615530000000 1.0
C      1  0.5297210000000  0.5215860000000  0.5582960000000 1.0
C      1  0.5655750000000  0.5255240000000  0.5138970000000 1.0
C      1  0.5479630000000  0.5186360000000  0.4625260000000 1.0
C      1  0.4977760000000  0.5182360000000  0.4404070000000 1.0
C      1  0.5260580000000  0.4832820000000  0.4917230000000 1.0
C      1  0.5003170000000  0.5904140000000  0.5019510000000 1.0
C      1  0.5048040000000  0.4400810000000  0.4871840000000 1.0
C      1  0.4998960000000  0.4673010000000  0.5013000000000 1.0
END
