TITL C-38194-9318-189 -2.21609016158359e-06 125000 -354.856237525953 0 0 60 (Ci) n - 1
REM
REM in /home/bkarasulu/CARBON/AIRSS/Generating-Clusters/EDIP-Nigel-Params/Higher-Symm/Box-15A/Only-C60/SD-CG/FIRE-HFTN
REM
REM
REM
REM
REM
REM ./C.cell (414f73aa93bd7a1190c7fd0f31ff2f98)
REM
REM compiler GCC version 9.2.1 20190827 (Red Hat 9.2.1-1)
REM options -cpp -mtune=generic -march=x86-64 -g -O0 -fpre-include=/usr/include/finclude/math-vector-fortran.h
REM seed 577981069 -2060900265 -985949873 -1326085321 1006712692 -955631210 1215375238 6264596 -1721527269 -250197814 129708164 -879736496 -1981893785 1599138163 -205041489 1371142136 1569991673 1823649391 527349091 -589501140 -1982317232 -1670752769 -77212008 -2054281338 -1997510230 55460812 1300885976 1891266416 -1202908465 1891046359 -14882784 -750858656 -330601211
REM
CELL 1.54180   50.00000   50.00000   50.00000   90.00000   90.00000   90.00000
LATT -1
SFAC C  
C      1  0.4169370000000  0.4950160000000  0.5120220000000 1.0
C      1  0.5830630000000  0.5049840000000  0.4879780000000 1.0
C      1  0.4794780000000  0.4657630000000  0.4554570000000 1.0
C      1  0.5205220000000  0.5342370000000  0.5445430000000 1.0
C      1  0.6255080000000  0.4911220000000  0.5668500000000 1.0
C      1  0.3744920000000  0.5088780000000  0.4331500000000 1.0
C      1  0.5429860000000  0.5026820000000  0.4589080000000 1.0
C      1  0.4570140000000  0.4973180000000  0.5410920000000 1.0
C      1  0.4424940000000  0.4927460000000  0.4146570000000 1.0
C      1  0.5575060000000  0.5072540000000  0.5853430000000 1.0
C      1  0.4270960000000  0.5058460000000  0.4877870000000 1.0
C      1  0.5729040000000  0.4941540000000  0.5122130000000 1.0
C      1  0.4961010000000  0.5454670000000  0.4642880000000 1.0
C      1  0.5038990000000  0.4545330000000  0.5357120000000 1.0
C      1  0.5022970000000  0.4794800000000  0.5206530000000 1.0
C      1  0.4977030000000  0.5205200000000  0.4793470000000 1.0
C      1  0.5239110000000  0.5549660000000  0.5236090000000 1.0
C      1  0.4760890000000  0.4450340000000  0.4763910000000 1.0
C      1  0.4956300000000  0.4256940000000  0.4804240000000 1.0
C      1  0.5043700000000  0.5743060000000  0.5195760000000 1.0
C      1  0.5330430000000  0.5094830000000  0.5963440000000 1.0
C      1  0.4669570000000  0.4905170000000  0.4036560000000 1.0
C      1  0.5471430000000  0.5538940000000  0.5074390000000 1.0
C      1  0.4528570000000  0.4461060000000  0.4925610000000 1.0
C      1  0.4618200000000  0.4896130000000  0.4587260000000 1.0
C      1  0.5381800000000  0.5103870000000  0.5412740000000 1.0
C      1  0.6321590000000  0.4845830000000  0.5415420000000 1.0
C      1  0.3678410000000  0.5154170000000  0.4584580000000 1.0
C      1  0.5065620000000  0.5116330000000  0.5925340000000 1.0
C      1  0.4934380000000  0.4883670000000  0.4074660000000 1.0
C      1  0.5447780000000  0.5283330000000  0.4952020000000 1.0
C      1  0.4552220000000  0.4716670000000  0.5047980000000 1.0
C      1  0.5137980000000  0.5508400000000  0.4454050000000 1.0
C      1  0.4862020000000  0.4491600000000  0.5545950000000 1.0
C      1  0.4857650000000  0.5140640000000  0.5740210000000 1.0
C      1  0.5142350000000  0.4859360000000  0.4259790000000 1.0
C      1  0.4553490000000  0.4959560000000  0.4870880000000 1.0
C      1  0.5446510000000  0.5040440000000  0.5129120000000 1.0
C      1  0.4828950000000  0.5040860000000  0.5257970000000 1.0
C      1  0.5171050000000  0.4959140000000  0.4742030000000 1.0
C      1  0.5072850000000  0.4755010000000  0.4526520000000 1.0
C      1  0.4927150000000  0.5244990000000  0.5473480000000 1.0
C      1  0.5130870000000  0.4206770000000  0.5000610000000 1.0
C      1  0.4869130000000  0.5793230000000  0.4999390000000 1.0
C      1  0.4833760000000  0.5667900000000  0.4765260000000 1.0
C      1  0.5166240000000  0.4332100000000  0.5234740000000 1.0
C      1  0.5246540000000  0.4842070000000  0.5014760000000 1.0
C      1  0.4753460000000  0.5157930000000  0.4985240000000 1.0
C      1  0.5627760000000  0.5193510000000  0.4735680000000 1.0
C      1  0.4372240000000  0.4806490000000  0.5264320000000 1.0
C      1  0.3949830000000  0.5178720000000  0.4505850000000 1.0
C      1  0.6050170000000  0.4821280000000  0.5494150000000 1.0
C      1  0.4441740000000  0.4921790000000  0.5878400000000 1.0
C      1  0.5558260000000  0.5078210000000  0.4121600000000 1.0
C      1  0.5833370000000  0.4983330000000  0.5395300000000 1.0
C      1  0.4166630000000  0.5016670000000  0.4604700000000 1.0
C      1  0.5613830000000  0.5058690000000  0.5577420000000 1.0
C      1  0.4386170000000  0.4941310000000  0.4422580000000 1.0
C      1  0.5370420000000  0.5036930000000  0.4303600000000 1.0
C      1  0.4629580000000  0.4963070000000  0.5696400000000 1.0
END
