TITL C-38194-9318-64 1.81062483493168e-05 125000 -349.290362466628 0 0 60 (C2h) n - 1
REM
REM in /home/bkarasulu/CARBON/AIRSS/Generating-Clusters/EDIP-Nigel-Params/Higher-Symm/Box-15A/Only-C60/SD-CG/FIRE-HFTN
REM
REM
REM
REM
REM
REM ./C.cell (414f73aa93bd7a1190c7fd0f31ff2f98)
REM
REM compiler GCC version 9.2.1 20190827 (Red Hat 9.2.1-1)
REM options -cpp -mtune=generic -march=x86-64 -g -O0 -fpre-include=/usr/include/finclude/math-vector-fortran.h
REM seed 905782524 -882807743 -836932446 -324561463 -1440736006 -2006000404 -175077358 2054741010 -905883586 -1558215331 1174967819 -2100316712 1214499246 -1819458475 -316456182 -242849958 63444662 864887814 820974524 2052728293 823196623 1268936595 -1352923558 1721940794 -376766641 1501777073 283162734 -1767525858 1262003711 354071877 724169613 -1614521536 -2063551681
REM
CELL 1.54180   50.00000   50.00000   50.00000   90.00000   90.00000   90.00000
LATT -1
SFAC C  
C      1  0.4856660000000  0.5610470000000  0.5299880000000 1.0
C      1  0.4856660000000  0.4389530000000  0.4700120000000 1.0
C      1  0.5143340000000  0.5610470000000  0.5299880000000 1.0
C      1  0.5143340000000  0.4389530000000  0.4700120000000 1.0
C      1  0.5295470000000  0.5555690000000  0.5045730000000 1.0
C      1  0.5295470000000  0.4444310000000  0.4954270000000 1.0
C      1  0.4704530000000  0.5555690000000  0.5045730000000 1.0
C      1  0.4704530000000  0.4444310000000  0.4954270000000 1.0
C      1  0.5239230000000  0.4719960000000  0.5092710000000 1.0
C      1  0.5239230000000  0.5280040000000  0.4907290000000 1.0
C      1  0.4760770000000  0.4719960000000  0.5092710000000 1.0
C      1  0.4760770000000  0.5280040000000  0.4907290000000 1.0
C      1  0.5585160000000  0.5576070000000  0.5070540000000 1.0
C      1  0.5585160000000  0.4423930000000  0.4929460000000 1.0
C      1  0.4414840000000  0.5576070000000  0.5070540000000 1.0
C      1  0.4414840000000  0.4423930000000  0.4929460000000 1.0
C      1  0.5495440000000  0.5127850000000  0.4911710000000 1.0
C      1  0.5495440000000  0.4872150000000  0.5088290000000 1.0
C      1  0.4504560000000  0.5127850000000  0.4911710000000 1.0
C      1  0.4504560000000  0.4872150000000  0.5088290000000 1.0
C      1  0.4399350000000  0.4974270000000  0.5365450000000 1.0
C      1  0.4399350000000  0.5025730000000  0.4634550000000 1.0
C      1  0.5600650000000  0.4974270000000  0.5365450000000 1.0
C      1  0.5600650000000  0.5025730000000  0.4634550000000 1.0
C      1  0.5773480000000  0.4804050000000  0.4706970000000 1.0
C      1  0.5773480000000  0.5195950000000  0.5293030000000 1.0
C      1  0.4226520000000  0.4804050000000  0.4706970000000 1.0
C      1  0.4226520000000  0.5195950000000  0.5293030000000 1.0
C      1  0.5192380000000  0.5532210000000  0.5575820000000 1.0
C      1  0.5192380000000  0.4467790000000  0.4424180000000 1.0
C      1  0.4807620000000  0.5532210000000  0.5575820000000 1.0
C      1  0.4807620000000  0.4467790000000  0.4424180000000 1.0
C      1  0.5148720000000  0.5415110000000  0.4652370000000 1.0
C      1  0.5148720000000  0.4584890000000  0.5347630000000 1.0
C      1  0.4851280000000  0.5415110000000  0.4652370000000 1.0
C      1  0.4851280000000  0.4584890000000  0.5347630000000 1.0
C      1  0.4864910000000  0.4957870000000  0.5581080000000 1.0
C      1  0.4864910000000  0.5042130000000  0.4418920000000 1.0
C      1  0.5135090000000  0.4957870000000  0.5581080000000 1.0
C      1  0.5135090000000  0.5042130000000  0.4418920000000 1.0
C      1  0.5744810000000  0.4778870000000  0.5488680000000 1.0
C      1  0.5744810000000  0.5221130000000  0.4511320000000 1.0
C      1  0.4255190000000  0.4778870000000  0.5488680000000 1.0
C      1  0.4255190000000  0.5221130000000  0.4511320000000 1.0
C      1  0.4317140000000  0.5312830000000  0.5055160000000 1.0
C      1  0.4317140000000  0.4687170000000  0.4944840000000 1.0
C      1  0.5682860000000  0.5312830000000  0.5055160000000 1.0
C      1  0.5682860000000  0.4687170000000  0.4944840000000 1.0
C      1  0.5383380000000  0.4922240000000  0.4451420000000 1.0
C      1  0.5383380000000  0.5077760000000  0.5548580000000 1.0
C      1  0.4616620000000  0.4922240000000  0.4451420000000 1.0
C      1  0.4616620000000  0.5077760000000  0.5548580000000 1.0
C      1  0.4843730000000  0.4298510000000  0.5205720000000 1.0
C      1  0.4843730000000  0.5701490000000  0.4794280000000 1.0
C      1  0.5156270000000  0.4298510000000  0.5205720000000 1.0
C      1  0.5156270000000  0.5701490000000  0.4794280000000 1.0
C      1  0.5387540000000  0.5344240000000  0.5620790000000 1.0
C      1  0.5387540000000  0.4655760000000  0.4379210000000 1.0
C      1  0.4612460000000  0.5344240000000  0.5620790000000 1.0
C      1  0.4612460000000  0.4655760000000  0.4379210000000 1.0
END
