TITL C-38189-4514-539 2.52749106981483e-06 125000 -366.49949521881 0 0 60 (C2) n - 1
REM
REM in /home/bkarasulu/CARBON/AIRSS/Generating-Clusters/EDIP-Nigel-Params/Higher-Symm/Box-15A/Only-C60/SD-CG/FIRE-HFTN
REM
REM
REM
REM
REM
REM ./C.cell (414f73aa93bd7a1190c7fd0f31ff2f98)
REM
REM compiler GCC version 9.2.1 20190827 (Red Hat 9.2.1-1)
REM options -cpp -mtune=generic -march=x86-64 -g -O0 -fpre-include=/usr/include/finclude/math-vector-fortran.h
REM seed 1899166189 -734329452 1318625666 -1096507972 -248579822 1287285211 -1969436676 -378775339 1020195023 802690593 525406162 -1768139226 669337457 -2061026552 -1903479292 1172777551 79881592 -930863024 -1527560319 425739208 -321053719 -889219243 -1968298969 -1329388581 1748659222 1323455187 -1501021759 -192166438 322388763 -174497261 -1383517483 -424948626 519699807
REM
CELL 1.54180   50.00000   50.00000   50.00000   90.00000   90.00000   90.00000
LATT -1
SFAC C  
C      1  0.4996320000000  0.5327450000000  0.5641160000000 1.0
C      1  0.5491630000000  0.4834610000000  0.5576910000000 1.0
C      1  0.4580030000000  0.4718950000000  0.5521600000000 1.0
C      1  0.4996320000000  0.4672550000000  0.4358840000000 1.0
C      1  0.5491630000000  0.5165390000000  0.4423090000000 1.0
C      1  0.4580030000000  0.5281050000000  0.4478400000000 1.0
C      1  0.4353690000000  0.4716290000000  0.4761170000000 1.0
C      1  0.5171000000000  0.5643990000000  0.4781710000000 1.0
C      1  0.5436380000000  0.4467640000000  0.4635630000000 1.0
C      1  0.4353690000000  0.5283710000000  0.5238830000000 1.0
C      1  0.5171000000000  0.4356010000000  0.5218290000000 1.0
C      1  0.5436380000000  0.5532360000000  0.5364370000000 1.0
C      1  0.5055520000000  0.5621490000000  0.5047660000000 1.0
C      1  0.5288250000000  0.4761400000000  0.5087350000000 1.0
C      1  0.4779370000000  0.4829120000000  0.5142820000000 1.0
C      1  0.5055520000000  0.4378510000000  0.4952340000000 1.0
C      1  0.5288250000000  0.5238600000000  0.4912650000000 1.0
C      1  0.4779370000000  0.5170880000000  0.4857180000000 1.0
C      1  0.4392690000000  0.4820740000000  0.5333800000000 1.0
C      1  0.4969900000000  0.5580560000000  0.5507350000000 1.0
C      1  0.5520510000000  0.4581720000000  0.5457300000000 1.0
C      1  0.4392690000000  0.5179260000000  0.4666200000000 1.0
C      1  0.4969900000000  0.4419440000000  0.4492650000000 1.0
C      1  0.5520510000000  0.5418280000000  0.4542700000000 1.0
C      1  0.5059710000000  0.5194350000000  0.4701550000000 1.0
C      1  0.5169280000000  0.4837060000000  0.4804130000000 1.0
C      1  0.4831710000000  0.4838270000000  0.4831260000000 1.0
C      1  0.5059710000000  0.4805650000000  0.5298450000000 1.0
C      1  0.5169280000000  0.5162940000000  0.5195870000000 1.0
C      1  0.4831710000000  0.5161730000000  0.5168740000000 1.0
C      1  0.4710260000000  0.5588730000000  0.5353450000000 1.0
C      1  0.5570250000000  0.5046750000000  0.5386530000000 1.0
C      1  0.4714650000000  0.4480880000000  0.5406270000000 1.0
C      1  0.4710260000000  0.4411270000000  0.4646550000000 1.0
C      1  0.5570250000000  0.4953250000000  0.4613470000000 1.0
C      1  0.4714650000000  0.5519120000000  0.4593730000000 1.0
C      1  0.4340440000000  0.5022080000000  0.5143710000000 1.0
C      1  0.5184820000000  0.5653970000000  0.5308660000000 1.0
C      1  0.5443540000000  0.4442970000000  0.5228900000000 1.0
C      1  0.4340440000000  0.4977920000000  0.4856290000000 1.0
C      1  0.5184820000000  0.4346030000000  0.4691340000000 1.0
C      1  0.5443540000000  0.5557030000000  0.4771100000000 1.0
C      1  0.5238350000000  0.4905460000000  0.5679890000000 1.0
C      1  0.4760230000000  0.4898810000000  0.5640780000000 1.0
C      1  0.4996230000000  0.5045470000000  0.5663660000000 1.0
C      1  0.5238350000000  0.5094540000000  0.4320110000000 1.0
C      1  0.4760230000000  0.5101190000000  0.4359220000000 1.0
C      1  0.4996230000000  0.4954530000000  0.4336340000000 1.0
C      1  0.5015370000000  0.5481960000000  0.4579370000000 1.0
C      1  0.5363400000000  0.4738780000000  0.4594850000000 1.0
C      1  0.4616870000000  0.4691030000000  0.4662330000000 1.0
C      1  0.5015370000000  0.4518040000000  0.5420630000000 1.0
C      1  0.5363400000000  0.5261220000000  0.5405150000000 1.0
C      1  0.4616870000000  0.5308970000000  0.5337670000000 1.0
C      1  0.4622870000000  0.4476900000000  0.5131280000000 1.0
C      1  0.4773800000000  0.5660450000000  0.5069660000000 1.0
C      1  0.5552930000000  0.4909710000000  0.5116670000000 1.0
C      1  0.4622870000000  0.5523100000000  0.4868720000000 1.0
C      1  0.4773800000000  0.4339550000000  0.4930340000000 1.0
C      1  0.5552930000000  0.5090290000000  0.4883330000000 1.0
END
