TITL C-38187-2739-524 3.06089742589141e-06 125000 -356.881704989383 0 0 60 (C1) n - 1
REM
REM in /home/bkarasulu/CARBON/AIRSS/Generating-Clusters/EDIP-Nigel-Params/Higher-Symm/Box-15A/Only-C60/SD-CG/FIRE-HFTN
REM
REM
REM
REM
REM
REM ./C.cell (414f73aa93bd7a1190c7fd0f31ff2f98)
REM
REM compiler GCC version 9.2.1 20190827 (Red Hat 9.2.1-1)
REM options -cpp -mtune=generic -march=x86-64 -g -O0 -fpre-include=/usr/include/finclude/math-vector-fortran.h
REM seed 1644480838 -210604400 99702705 5504994 1212168654 -1550631401 703703567 -1534830983 -881619633 1576465990 -2095027434 -1045911324 1470175121 -1853446506 -740298872 -220550465 470546082 396131015 -1419791604 -1219926322 709714066 445898612 -141093025 -1451163540 -1850463637 46048079 997671574 -815872557 1265021375 1282943019 396649967 -653459033 375447288
REM
CELL 1.54180   50.00000   50.00000   50.00000   90.00000   90.00000   90.00000
LATT -1
SFAC C  
C      1  0.4443220000000  0.5269280000000  0.5022150000000 1.0
C      1  0.4693310000000  0.5182080000000  0.4630830000000 1.0
C      1  0.5095990000000  0.5286800000000  0.4402550000000 1.0
C      1  0.5567440000000  0.5184580000000  0.4849060000000 1.0
C      1  0.5567570000000  0.5170020000000  0.5323090000000 1.0
C      1  0.5132750000000  0.5137200000000  0.5562470000000 1.0
C      1  0.4678350000000  0.5171660000000  0.5437800000000 1.0
C      1  0.4411870000000  0.4762470000000  0.5068580000000 1.0
C      1  0.4503280000000  0.4760270000000  0.4584850000000 1.0
C      1  0.4934670000000  0.4620560000000  0.4351000000000 1.0
C      1  0.5462630000000  0.4712080000000  0.4687800000000 1.0
C      1  0.5685480000000  0.4686080000000  0.5178480000000 1.0
C      1  0.5212910000000  0.4687640000000  0.5497300000000 1.0
C      1  0.4715750000000  0.4693940000000  0.5478040000000 1.0
C      1  0.4275340000000  0.4915100000000  0.4675110000000 1.0
C      1  0.4861480000000  0.4886230000000  0.4279210000000 1.0
C      1  0.5330930000000  0.4794460000000  0.4441970000000 1.0
C      1  0.5874600000000  0.4850490000000  0.5032960000000 1.0
C      1  0.5449540000000  0.4776270000000  0.5629060000000 1.0
C      1  0.4788480000000  0.4799360000000  0.5735860000000 1.0
C      1  0.4285220000000  0.4874030000000  0.5296390000000 1.0
C      1  0.5384090000000  0.5401360000000  0.5232300000000 1.0
C      1  0.5110280000000  0.5367820000000  0.5369520000000 1.0
C      1  0.4814850000000  0.5406430000000  0.5305800000000 1.0
C      1  0.4686670000000  0.5464260000000  0.5038160000000 1.0
C      1  0.4867200000000  0.5354020000000  0.4818920000000 1.0
C      1  0.5098170000000  0.5474790000000  0.4646090000000 1.0
C      1  0.5355320000000  0.5386170000000  0.4929010000000 1.0
C      1  0.4831960000000  0.5160450000000  0.4360130000000 1.0
C      1  0.5270200000000  0.5064690000000  0.4406910000000 1.0
C      1  0.5791670000000  0.5125740000000  0.5044980000000 1.0
C      1  0.5437900000000  0.5059190000000  0.5601240000000 1.0
C      1  0.4848730000000  0.5078120000000  0.5708010000000 1.0
C      1  0.4388020000000  0.5138840000000  0.5305800000000 1.0
C      1  0.4383220000000  0.5178810000000  0.4723520000000 1.0
C      1  0.4651070000000  0.4934020000000  0.5018720000000 1.0
C      1  0.4733310000000  0.4902920000000  0.4725200000000 1.0
C      1  0.5025450000000  0.4823560000000  0.4672250000000 1.0
C      1  0.5419070000000  0.4926130000000  0.4898750000000 1.0
C      1  0.5461810000000  0.4885980000000  0.5197770000000 1.0
C      1  0.5102020000000  0.4924970000000  0.5347300000000 1.0
C      1  0.4799310000000  0.4918340000000  0.5295360000000 1.0
C      1  0.4821130000000  0.4463750000000  0.5311510000000 1.0
C      1  0.4588100000000  0.4506360000000  0.4999060000000 1.0
C      1  0.4578300000000  0.4487290000000  0.4686370000000 1.0
C      1  0.4857470000000  0.4430410000000  0.4570450000000 1.0
C      1  0.5372680000000  0.4452040000000  0.4810340000000 1.0
C      1  0.5463140000000  0.4456950000000  0.5104080000000 1.0
C      1  0.5205110000000  0.4481600000000  0.5278700000000 1.0
C      1  0.4745140000000  0.5941260000000  0.5141650000000 1.0
C      1  0.4648760000000  0.5750610000000  0.4964020000000 1.0
C      1  0.4751800000000  0.5784070000000  0.4706630000000 1.0
C      1  0.5011240000000  0.5755640000000  0.4607790000000 1.0
C      1  0.5182230000000  0.5951410000000  0.4705920000000 1.0
C      1  0.5156770000000  0.6096290000000  0.4930880000000 1.0
C      1  0.4967020000000  0.6091610000000  0.5120690000000 1.0
C      1  0.5052810000000  0.4409780000000  0.4812490000000 1.0
C      1  0.4925330000000  0.4582270000000  0.5029290000000 1.0
C      1  0.5072840000000  0.5221650000000  0.4998950000000 1.0
C      1  0.5134980000000  0.4951190000000  0.4911990000000 1.0
END
