TITL C-38185-7677-141 -1.69589467790635e-07 125000 -359.210449064072 0 0 60 (C1) n - 1
REM
REM in /home/bkarasulu/CARBON/AIRSS/Generating-Clusters/EDIP-Nigel-Params/Higher-Symm/Box-15A/Only-C60/SD-CG/FIRE-HFTN
REM
REM
REM
REM
REM
REM ./C.cell (414f73aa93bd7a1190c7fd0f31ff2f98)
REM
REM compiler GCC version 9.2.1 20190827 (Red Hat 9.2.1-1)
REM options -cpp -mtune=generic -march=x86-64 -g -O0 -fpre-include=/usr/include/finclude/math-vector-fortran.h
REM seed -1307074927 872790941 237870682 -1142324670 -545604001 -1218675963 -154652080 -112075318 -1284592331 -1386950897 1103021039 1753093713 -222563175 1352877347 -647926414 -1721461708 51194468 -1516889330 -687180688 -2068944721 841903466 -1960837968 -37984385 -1611150787 -1438107336 -228842590 528948395 -154811468 244845230 -574242760 1132206172 -1036924806 -1346777883
REM
CELL 1.54180   50.00000   50.00000   50.00000   90.00000   90.00000   90.00000
LATT -1
SFAC C  
C      1  0.4835720000000  0.4313590000000  0.5262490000000 1.0
C      1  0.5300530000000  0.4308740000000  0.5012190000000 1.0
C      1  0.4849840000000  0.4319190000000  0.4733280000000 1.0
C      1  0.5148360000000  0.4702550000000  0.4765830000000 1.0
C      1  0.4717820000000  0.4709750000000  0.4999080000000 1.0
C      1  0.5135560000000  0.4706830000000  0.5251470000000 1.0
C      1  0.5438010000000  0.5026510000000  0.5174580000000 1.0
C      1  0.4929950000000  0.5045790000000  0.4527690000000 1.0
C      1  0.4607960000000  0.5013280000000  0.5303660000000 1.0
C      1  0.4718200000000  0.5492530000000  0.5292780000000 1.0
C      1  0.5405810000000  0.5507080000000  0.5095950000000 1.0
C      1  0.4879760000000  0.5523090000000  0.4598450000000 1.0
C      1  0.4825880000000  0.5129620000000  0.5012790000000 1.0
C      1  0.5128510000000  0.5130270000000  0.5181480000000 1.0
C      1  0.5080000000000  0.5131290000000  0.4793670000000 1.0
C      1  0.5751290000000  0.5183060000000  0.4843940000000 1.0
C      1  0.4480110000000  0.5186290000000  0.4429380000000 1.0
C      1  0.4771070000000  0.5185170000000  0.5716430000000 1.0
C      1  0.4767200000000  0.4177980000000  0.4994580000000 1.0
C      1  0.5100410000000  0.4170200000000  0.5200300000000 1.0
C      1  0.5111710000000  0.4174060000000  0.4808960000000 1.0
C      1  0.5196240000000  0.5420850000000  0.5294090000000 1.0
C      1  0.5153590000000  0.5425990000000  0.4686720000000 1.0
C      1  0.4665220000000  0.5408280000000  0.5013720000000 1.0
C      1  0.5350270000000  0.5424500000000  0.4475440000000 1.0
C      1  0.4383530000000  0.5389320000000  0.4955160000000 1.0
C      1  0.5293300000000  0.5421310000000  0.5565280000000 1.0
C      1  0.4147370000000  0.4981670000000  0.4832680000000 1.0
C      1  0.5285310000000  0.4994120000000  0.5806890000000 1.0
C      1  0.5556820000000  0.4995010000000  0.4355990000000 1.0
C      1  0.4210110000000  0.5266300000000  0.4772470000000 1.0
C      1  0.5199900000000  0.5277310000000  0.5785760000000 1.0
C      1  0.5586240000000  0.5276680000000  0.4442520000000 1.0
C      1  0.4245590000000  0.4882980000000  0.5084980000000 1.0
C      1  0.5451800000000  0.4889110000000  0.5596320000000 1.0
C      1  0.5290140000000  0.4891740000000  0.4320190000000 1.0
C      1  0.4814000000000  0.5638610000000  0.4875110000000 1.0
C      1  0.4980550000000  0.5632330000000  0.5230320000000 1.0
C      1  0.5203620000000  0.5636930000000  0.4907940000000 1.0
C      1  0.4765860000000  0.4795720000000  0.4515430000000 1.0
C      1  0.4685840000000  0.4778660000000  0.5458210000000 1.0
C      1  0.5544690000000  0.4779380000000  0.5042090000000 1.0
C      1  0.5296980000000  0.4682300000000  0.4519060000000 1.0
C      1  0.4429460000000  0.4683710000000  0.4986820000000 1.0
C      1  0.5276940000000  0.4679790000000  0.5502040000000 1.0
C      1  0.4744020000000  0.5269620000000  0.4529280000000 1.0
C      1  0.4731610000000  0.5237630000000  0.5433310000000 1.0
C      1  0.5519950000000  0.5251420000000  0.5008540000000 1.0
C      1  0.4479160000000  0.4886470000000  0.4461750000000 1.0
C      1  0.4797710000000  0.4886060000000  0.5721740000000 1.0
C      1  0.5732440000000  0.4881690000000  0.4818700000000 1.0
C      1  0.4861150000000  0.4623160000000  0.4750750000000 1.0
C      1  0.4848190000000  0.4617370000000  0.5254010000000 1.0
C      1  0.5289020000000  0.4612890000000  0.5011050000000 1.0
C      1  0.5809790000000  0.5325950000000  0.4607370000000 1.0
C      1  0.4241720000000  0.5321790000000  0.4497010000000 1.0
C      1  0.4942840000000  0.5332200000000  0.5885210000000 1.0
C      1  0.5656850000000  0.4789660000000  0.4547510000000 1.0
C      1  0.4280900000000  0.4783810000000  0.4654350000000 1.0
C      1  0.5067560000000  0.4790840000000  0.5795220000000 1.0
END
