TITL C-38189-4514-262 1.31340928468441e-05 125000 -361.76178305936 0 0 60 (S12) n - 1
REM
REM in /home/bkarasulu/CARBON/AIRSS/Generating-Clusters/EDIP-Nigel-Params/Higher-Symm/Box-15A/Only-C60/SD-CG/FIRE-HFTN
REM
REM
REM
REM
REM
REM ./C.cell (414f73aa93bd7a1190c7fd0f31ff2f98)
REM
REM compiler GCC version 9.2.1 20190827 (Red Hat 9.2.1-1)
REM options -cpp -mtune=generic -march=x86-64 -g -O0 -fpre-include=/usr/include/finclude/math-vector-fortran.h
REM seed 439979911 759760446 1384752895 -1263294059 -1414317008 -146698490 1977790458 -1795901356 -1719490350 -1886781751 585641151 893516297 939659149 506365112 478500748 -1856366052 -787695952 514209246 39374435 -703303508 250478607 2062512255 2135061494 412801887 141092604 794043890 -914905607 -683641931 -2138557822 1188868710 -1610396776 2068385547 731908150
REM
CELL 1.54180   50.00000   50.00000   50.00000   90.00000   90.00000   90.00000
LATT -1
SFAC C  
C      1  0.5046780000000  0.5274620000000  0.5883550000000 1.0
C      1  0.5046780000000  0.5902490000000  0.5203950000000 1.0
C      1  0.5046780000000  0.5627870000000  0.4320390000000 1.0
C      1  0.5046780000000  0.4725380000000  0.4116450000000 1.0
C      1  0.5046780000000  0.4097510000000  0.4796050000000 1.0
C      1  0.5046780000000  0.4372130000000  0.5679610000000 1.0
C      1  0.4953220000000  0.4796050000000  0.5902490000000 1.0
C      1  0.4953220000000  0.4116450000000  0.5274620000000 1.0
C      1  0.4953220000000  0.4320390000000  0.4372130000000 1.0
C      1  0.4953220000000  0.5203950000000  0.4097510000000 1.0
C      1  0.4953220000000  0.5883550000000  0.4725380000000 1.0
C      1  0.4953220000000  0.5679610000000  0.5627870000000 1.0
C      1  0.4730780000000  0.4607230000000  0.5366980000000 1.0
C      1  0.4730780000000  0.5121430000000  0.5523640000000 1.0
C      1  0.4730780000000  0.5514200000000  0.5156660000000 1.0
C      1  0.4730780000000  0.5392770000000  0.4633020000000 1.0
C      1  0.4730780000000  0.4878570000000  0.4476360000000 1.0
C      1  0.4730780000000  0.4485800000000  0.4843340000000 1.0
C      1  0.4620750000000  0.5384610000000  0.5394210000000 1.0
C      1  0.4620750000000  0.4850900000000  0.5530190000000 1.0
C      1  0.4620750000000  0.4466300000000  0.5135970000000 1.0
C      1  0.4620750000000  0.4615390000000  0.4605790000000 1.0
C      1  0.4620750000000  0.5149100000000  0.4469810000000 1.0
C      1  0.4620750000000  0.5533700000000  0.4864030000000 1.0
C      1  0.4782510000000  0.4453660000000  0.5627250000000 1.0
C      1  0.4782510000000  0.5270050000000  0.5786770000000 1.0
C      1  0.4782510000000  0.5816390000000  0.5159520000000 1.0
C      1  0.4782510000000  0.5546340000000  0.4372750000000 1.0
C      1  0.4782510000000  0.4729950000000  0.4213230000000 1.0
C      1  0.4782510000000  0.4183610000000  0.4840480000000 1.0
C      1  0.4709520000000  0.5539340000000  0.5656260000000 1.0
C      1  0.4709520000000  0.4701340000000  0.5795210000000 1.0
C      1  0.4709520000000  0.4162000000000  0.5138960000000 1.0
C      1  0.4709520000000  0.4460660000000  0.4343740000000 1.0
C      1  0.4709520000000  0.5298660000000  0.4204790000000 1.0
C      1  0.4709520000000  0.5838000000000  0.4861040000000 1.0
C      1  0.5290480000000  0.4861040000000  0.4162000000000 1.0
C      1  0.5290480000000  0.4204790000000  0.4701340000000 1.0
C      1  0.5290480000000  0.4343740000000  0.5539340000000 1.0
C      1  0.5290480000000  0.5138960000000  0.5838000000000 1.0
C      1  0.5290480000000  0.5795210000000  0.5298660000000 1.0
C      1  0.5290480000000  0.5656260000000  0.4460660000000 1.0
C      1  0.5217490000000  0.5159520000000  0.4183610000000 1.0
C      1  0.5217490000000  0.5786770000000  0.4729950000000 1.0
C      1  0.5217490000000  0.5627250000000  0.5546340000000 1.0
C      1  0.5217490000000  0.4840480000000  0.5816390000000 1.0
C      1  0.5217490000000  0.4213230000000  0.5270050000000 1.0
C      1  0.5217490000000  0.4372750000000  0.4453660000000 1.0
C      1  0.5269220000000  0.4633020000000  0.4607230000000 1.0
C      1  0.5269220000000  0.4476360000000  0.5121430000000 1.0
C      1  0.5269220000000  0.4843340000000  0.5514200000000 1.0
C      1  0.5269220000000  0.5366980000000  0.5392770000000 1.0
C      1  0.5269220000000  0.5523640000000  0.4878570000000 1.0
C      1  0.5269220000000  0.5156660000000  0.4485800000000 1.0
C      1  0.5379250000000  0.5394210000000  0.4615390000000 1.0
C      1  0.5379250000000  0.5530190000000  0.5149100000000 1.0
C      1  0.5379250000000  0.5135970000000  0.5533700000000 1.0
C      1  0.5379250000000  0.4605790000000  0.5384610000000 1.0
C      1  0.5379250000000  0.4469810000000  0.4850900000000 1.0
C      1  0.5379250000000  0.4864030000000  0.4466300000000 1.0
END
