TITL C-38192-7909-463 1.07363981881353e-06 125000 -376.018935878846 0 0 60 (C5) n - 1
REM
REM in /home/bkarasulu/CARBON/AIRSS/Generating-Clusters/EDIP-Nigel-Params/Higher-Symm/Box-15A/Only-C60/SD-CG/FIRE-HFTN
REM
REM
REM
REM
REM
REM ./C.cell (414f73aa93bd7a1190c7fd0f31ff2f98)
REM
REM compiler GCC version 9.2.1 20190827 (Red Hat 9.2.1-1)
REM options -cpp -mtune=generic -march=x86-64 -g -O0 -fpre-include=/usr/include/finclude/math-vector-fortran.h
REM seed -117570881 1216468272 95398020 1331662369 2146601115 -3573011 -1297187370 1048101578 -109829483 -957329460 -1272970756 841108198 -244757101 1695913755 1638241434 100575212 868983789 306760570 -470135563 -585560221 1974751250 1654557107 -1106228679 96613263 373515535 -785257371 351275953 218915312 -1628144690 991336361 666880459 1759760222 -57922417
REM
CELL 1.54180   50.00000   50.00000   50.00000   90.00000   90.00000   90.00000
LATT -1
SFAC C  
C      1  0.5688320000000  0.5191940000000  0.4786650000000 1.0
C      1  0.5009790000000  0.5191940000000  0.4279440000000 1.0
C      1  0.4317730000000  0.5191940000000  0.4768020000000 1.0
C      1  0.4568540000000  0.5191940000000  0.5577190000000 1.0
C      1  0.5415610000000  0.5191940000000  0.5588700000000 1.0
C      1  0.5688320000000  0.4808060000000  0.4786650000000 1.0
C      1  0.5009790000000  0.4808060000000  0.4279440000000 1.0
C      1  0.4317730000000  0.4808060000000  0.4768020000000 1.0
C      1  0.4568540000000  0.4808060000000  0.5577190000000 1.0
C      1  0.5415610000000  0.4808060000000  0.5588700000000 1.0
C      1  0.5671640000000  0.4645540000000  0.5221640000000 1.0
C      1  0.5418340000000  0.4645540000000  0.4429720000000 1.0
C      1  0.4586910000000  0.4645540000000  0.4425910000000 1.0
C      1  0.4326350000000  0.4645540000000  0.5215470000000 1.0
C      1  0.4996760000000  0.4645540000000  0.5707260000000 1.0
C      1  0.5671640000000  0.5354460000000  0.5221640000000 1.0
C      1  0.5418340000000  0.5354460000000  0.4429720000000 1.0
C      1  0.4586910000000  0.5354460000000  0.4425910000000 1.0
C      1  0.4326350000000  0.5354460000000  0.5215470000000 1.0
C      1  0.4996760000000  0.5354460000000  0.5707260000000 1.0
C      1  0.5835600000000  0.4715120000000  0.5012070000000 1.0
C      1  0.5269700000000  0.4715120000000  0.4209030000000 1.0
C      1  0.4331090000000  0.4715120000000  0.4499080000000 1.0
C      1  0.4316890000000  0.4715120000000  0.5481380000000 1.0
C      1  0.5246730000000  0.4715120000000  0.5798430000000 1.0
C      1  0.5835600000000  0.5284880000000  0.5012070000000 1.0
C      1  0.5269700000000  0.5284880000000  0.4209030000000 1.0
C      1  0.4331090000000  0.5284880000000  0.4499080000000 1.0
C      1  0.4316890000000  0.5284880000000  0.5481380000000 1.0
C      1  0.5246730000000  0.5284880000000  0.5798430000000 1.0
C      1  0.4813090000000  0.4678070000000  0.5503740000000 1.0
C      1  0.5421320000000  0.4678070000000  0.5333420000000 1.0
C      1  0.5447300000000  0.4678070000000  0.4702330000000 1.0
C      1  0.4855120000000  0.4678070000000  0.4482610000000 1.0
C      1  0.4463160000000  0.4678070000000  0.4977900000000 1.0
C      1  0.4813090000000  0.5321930000000  0.5503740000000 1.0
C      1  0.5421320000000  0.5321930000000  0.5333420000000 1.0
C      1  0.5447300000000  0.5321930000000  0.4702330000000 1.0
C      1  0.4855120000000  0.5321930000000  0.4482610000000 1.0
C      1  0.4463160000000  0.5321930000000  0.4977900000000 1.0
C      1  0.5257640000000  0.4865080000000  0.6032760000000 1.0
C      1  0.6061820000000  0.4865080000000  0.5074110000000 1.0
C      1  0.5398610000000  0.4865080000000  0.4013050000000 1.0
C      1  0.4184530000000  0.4865080000000  0.4315920000000 1.0
C      1  0.4097400000000  0.4865080000000  0.5564170000000 1.0
C      1  0.5257640000000  0.5134920000000  0.6032760000000 1.0
C      1  0.6061820000000  0.5134920000000  0.5074110000000 1.0
C      1  0.5398610000000  0.5134920000000  0.4013050000000 1.0
C      1  0.4184530000000  0.5134920000000  0.4315920000000 1.0
C      1  0.4097400000000  0.5134920000000  0.5564170000000 1.0
C      1  0.5207210000000  0.4687880000000  0.4865400000000 1.0
C      1  0.4936020000000  0.4687880000000  0.4761340000000 1.0
C      1  0.4753250000000  0.4687880000000  0.4987100000000 1.0
C      1  0.4911480000000  0.4687880000000  0.5230690000000 1.0
C      1  0.5192040000000  0.4687880000000  0.5155470000000 1.0
C      1  0.5207210000000  0.5312120000000  0.4865400000000 1.0
C      1  0.4936020000000  0.5312120000000  0.4761340000000 1.0
C      1  0.4753250000000  0.5312120000000  0.4987100000000 1.0
C      1  0.4911480000000  0.5312120000000  0.5230690000000 1.0
C      1  0.5192040000000  0.5312120000000  0.5155470000000 1.0
END
