TITL C-38195-9455-406 2.6275148238559e-07 125000 -391.467711235592 0 0 60 (Ih) n - 1
REM
REM in /home/bkarasulu/CARBON/AIRSS/Generating-Clusters/EDIP-Nigel-Params/Higher-Symm/Box-15A/Only-C60/SD-CG/FIRE-HFTN
REM
REM
REM
REM
REM
REM ./C.cell (414f73aa93bd7a1190c7fd0f31ff2f98)
REM
REM compiler GCC version 9.2.1 20190827 (Red Hat 9.2.1-1)
REM options -cpp -mtune=generic -march=x86-64 -g -O0 -fpre-include=/usr/include/finclude/math-vector-fortran.h
REM seed 117694386 -944356180 -2023888204 -24750902 1264358539 -1618795593 285087333 624858590 -519224744 -1535464076 2124776477 443322334 1943207976 730429512 -901541400 -981551624 236165958 -477321116 -74494486 -913988535 -1865644990 -73580440 -593373163 -705103544 1481198295 -291484463 -76967165 -201904749 577550422 -669559252 -2093469570 -1578410606 -41674708
REM
CELL 1.54180   50.00000   50.00000   50.00000   90.00000   90.00000   90.00000
LATT -1
SFAC C  
C      1  0.5241000000000  0.4369360000000  0.4702290000000 1.0
C      1  0.4369360000000  0.4702290000000  0.5241000000000 1.0
C      1  0.4702290000000  0.5241000000000  0.4369360000000 1.0
C      1  0.4759000000000  0.4369360000000  0.5297710000000 1.0
C      1  0.4759000000000  0.5630640000000  0.4702290000000 1.0
C      1  0.5241000000000  0.5630640000000  0.5297710000000 1.0
C      1  0.5630640000000  0.4702290000000  0.4759000000000 1.0
C      1  0.5630640000000  0.5297710000000  0.5241000000000 1.0
C      1  0.4369360000000  0.5297710000000  0.4759000000000 1.0
C      1  0.5297710000000  0.5241000000000  0.5630640000000 1.0
C      1  0.5297710000000  0.4759000000000  0.4369360000000 1.0
C      1  0.4702290000000  0.4759000000000  0.5630640000000 1.0
C      1  0.5241000000000  0.5630640000000  0.4702290000000 1.0
C      1  0.4369360000000  0.5297710000000  0.5241000000000 1.0
C      1  0.4702290000000  0.4759000000000  0.4369360000000 1.0
C      1  0.4759000000000  0.5630640000000  0.5297710000000 1.0
C      1  0.4759000000000  0.4369360000000  0.4702290000000 1.0
C      1  0.5241000000000  0.4369360000000  0.5297710000000 1.0
C      1  0.5630640000000  0.5297710000000  0.4759000000000 1.0
C      1  0.5630640000000  0.4702290000000  0.5241000000000 1.0
C      1  0.4369360000000  0.4702290000000  0.4759000000000 1.0
C      1  0.5297710000000  0.4759000000000  0.5630640000000 1.0
C      1  0.5297710000000  0.5241000000000  0.4369360000000 1.0
C      1  0.4702290000000  0.5241000000000  0.5630640000000 1.0
C      1  0.5481700000000  0.5538700000000  0.4851060000000 1.0
C      1  0.5538700000000  0.4851060000000  0.5481700000000 1.0
C      1  0.4851060000000  0.5481700000000  0.5538700000000 1.0
C      1  0.4518300000000  0.5538700000000  0.5148940000000 1.0
C      1  0.4518300000000  0.4461300000000  0.4851060000000 1.0
C      1  0.5481700000000  0.4461300000000  0.5148940000000 1.0
C      1  0.4461300000000  0.4851060000000  0.4518300000000 1.0
C      1  0.4461300000000  0.5148940000000  0.5481700000000 1.0
C      1  0.5538700000000  0.5148940000000  0.4518300000000 1.0
C      1  0.5148940000000  0.5481700000000  0.4461300000000 1.0
C      1  0.5148940000000  0.4518300000000  0.5538700000000 1.0
C      1  0.4851060000000  0.4518300000000  0.4461300000000 1.0
C      1  0.5481700000000  0.4461300000000  0.4851060000000 1.0
C      1  0.5538700000000  0.5148940000000  0.5481700000000 1.0
C      1  0.4851060000000  0.4518300000000  0.5538700000000 1.0
C      1  0.4518300000000  0.4461300000000  0.5148940000000 1.0
C      1  0.4518300000000  0.5538700000000  0.4851060000000 1.0
C      1  0.5481700000000  0.5538700000000  0.5148940000000 1.0
C      1  0.4461300000000  0.5148940000000  0.4518300000000 1.0
C      1  0.4461300000000  0.4851060000000  0.5481700000000 1.0
C      1  0.5538700000000  0.4851060000000  0.4518300000000 1.0
C      1  0.5148940000000  0.4518300000000  0.4461300000000 1.0
C      1  0.5148940000000  0.5481700000000  0.5538700000000 1.0
C      1  0.4851060000000  0.5481700000000  0.4461300000000 1.0
C      1  0.5722690000000  0.5148760000000  0.5000000000000 1.0
C      1  0.4277310000000  0.5148760000000  0.5000000000000 1.0
C      1  0.4277310000000  0.4851240000000  0.5000000000000 1.0
C      1  0.5722690000000  0.4851240000000  0.5000000000000 1.0
C      1  0.4851240000000  0.5000000000000  0.4277310000000 1.0
C      1  0.4851240000000  0.5000000000000  0.5722690000000 1.0
C      1  0.5148760000000  0.5000000000000  0.4277310000000 1.0
C      1  0.5000000000000  0.5722690000000  0.4851240000000 1.0
C      1  0.5000000000000  0.4277310000000  0.4851240000000 1.0
C      1  0.5148760000000  0.5000000000000  0.5722690000000 1.0
C      1  0.5000000000000  0.4277310000000  0.5148760000000 1.0
C      1  0.5000000000000  0.5722690000000  0.5148760000000 1.0
END
