TITL C-38184-643-478 4.1045070702856e-06 125000 -354.575025856187 0 0 60 (C5) n - 1
REM
REM in /home/bkarasulu/CARBON/AIRSS/Generating-Clusters/EDIP-Nigel-Params/Higher-Symm/Box-15A/Only-C60/SD-CG/FIRE-HFTN
REM
REM
REM
REM
REM
REM ./C.cell (414f73aa93bd7a1190c7fd0f31ff2f98)
REM
REM compiler GCC version 9.2.1 20190827 (Red Hat 9.2.1-1)
REM options -cpp -mtune=generic -march=x86-64 -g -O0 -fpre-include=/usr/include/finclude/math-vector-fortran.h
REM seed -1298930559 -1120298512 1068513223 -1917720059 1679018283 1146939179 -1064927358 -1285481711 -1334438656 -1657584647 2057727216 1702213487 -1380592690 1377303940 1088726270 1321850274 -466442125 -307759438 -1095493573 -1786150851 -1902712880 923264803 -1991100710 300569205 -283733774 828319025 1964380280 1443990852 -977180641 1757945873 999525809 1247023577 1774974717
REM
CELL 1.54180   50.00000   50.00000   50.00000   90.00000   90.00000   90.00000
LATT -1
SFAC C  
C      1  0.5309230000000  0.5631670000000  0.4776790000000 1.0
C      1  0.5309220000000  0.5407480000000  0.5531790000000 1.0
C      1  0.5309200000000  0.4620150000000  0.5551880000000 1.0
C      1  0.5309200000000  0.4357750000000  0.4809290000000 1.0
C      1  0.5309220000000  0.4982910000000  0.4330260000000 1.0
C      1  0.4890140000000  0.5068160000000  0.4743980000000 1.0
C      1  0.4890140000000  0.5264550000000  0.4985710000000 1.0
C      1  0.4890140000000  0.5095340000000  0.5247180000000 1.0
C      1  0.4890130000000  0.4794380000000  0.5167060000000 1.0
C      1  0.4890130000000  0.4777580000000  0.4856060000000 1.0
C      1  0.5019690000000  0.5608670000000  0.4849110000000 1.0
C      1  0.5019680000000  0.5331600000000  0.5532250000000 1.0
C      1  0.5019660000000  0.4596270000000  0.5479840000000 1.0
C      1  0.5019660000000  0.4418890000000  0.4764310000000 1.0
C      1  0.5019680000000  0.5044580000000  0.4374500000000 1.0
C      1  0.4374240000000  0.5248530000000  0.5003420000000 1.0
C      1  0.4374230000000  0.5073550000000  0.5237400000000 1.0
C      1  0.4374220000000  0.4796950000000  0.5143300000000 1.0
C      1  0.4374230000000  0.4800970000000  0.4851150000000 1.0
C      1  0.4374230000000  0.5080070000000  0.4764700000000 1.0
C      1  0.4835740000000  0.5561100000000  0.5477300000000 1.0
C      1  0.4835720000000  0.4719450000000  0.5681130000000 1.0
C      1  0.4835720000000  0.4265510000000  0.4943660000000 1.0
C      1  0.4835740000000  0.4826610000000  0.4284050000000 1.0
C      1  0.4835750000000  0.5627330000000  0.4613850000000 1.0
C      1  0.4928090000000  0.4935250000000  0.5830040000000 1.0
C      1  0.4928080000000  0.4190580000000  0.5194910000000 1.0
C      1  0.4928100000000  0.4564510000000  0.4290420000000 1.0
C      1  0.4928120000000  0.5540270000000  0.4366550000000 1.0
C      1  0.4928110000000  0.5769400000000  0.5318080000000 1.0
C      1  0.4604820000000  0.4858300000000  0.4454430000000 1.0
C      1  0.4604830000000  0.5475080000000  0.4696630000000 1.0
C      1  0.4604820000000  0.5435330000000  0.5358070000000 1.0
C      1  0.4604810000000  0.4793980000000  0.5524660000000 1.0
C      1  0.4604800000000  0.4437360000000  0.4966180000000 1.0
C      1  0.5577640000000  0.4956450000000  0.5490580000000 1.0
C      1  0.5577630000000  0.4519970000000  0.5110200000000 1.0
C      1  0.5577640000000  0.4746850000000  0.4577530000000 1.0
C      1  0.5577660000000  0.5323560000000  0.4628710000000 1.0
C      1  0.5577650000000  0.5453100000000  0.5193010000000 1.0
C      1  0.5412130000000  0.4846580000000  0.5718700000000 1.0
C      1  0.5412130000000  0.4269060000000  0.5076190000000 1.0
C      1  0.5412140000000  0.4701660000000  0.4328390000000 1.0
C      1  0.5412160000000  0.5546540000000  0.4508740000000 1.0
C      1  0.5412150000000  0.5636110000000  0.5368000000000 1.0
C      1  0.4957840000000  0.5194550000000  0.5772130000000 1.0
C      1  0.4957830000000  0.4325780000000  0.5423630000000 1.0
C      1  0.4957840000000  0.4388760000000  0.4489690000000 1.0
C      1  0.4957860000000  0.5296450000000  0.4260980000000 1.0
C      1  0.4957860000000  0.5794460000000  0.5053570000000 1.0
C      1  0.5473780000000  0.5055860000000  0.4577070000000 1.0
C      1  0.5473780000000  0.5419490000000  0.4922450000000 1.0
C      1  0.5473770000000  0.5203380000000  0.5375010000000 1.0
C      1  0.5473760000000  0.4706190000000  0.5309320000000 1.0
C      1  0.5473770000000  0.4615020000000  0.4816170000000 1.0
C      1  0.4616670000000  0.4650890000000  0.5246460000000 1.0
C      1  0.4616680000000  0.4657720000000  0.4744120000000 1.0
C      1  0.4616690000000  0.5137590000000  0.4595390000000 1.0
C      1  0.4616690000000  0.5427320000000  0.5005810000000 1.0
C      1  0.4616680000000  0.5126520000000  0.5408190000000 1.0
END
