TITL C-38195-9455-482 -1.89141005771322e-05 125000 -351.688920655303 0 0 60 (C4) n - 1
REM
REM in /home/bkarasulu/CARBON/AIRSS/Generating-Clusters/EDIP-Nigel-Params/Higher-Symm/Box-15A/Only-C60/SD-CG/FIRE-HFTN
REM
REM
REM
REM
REM
REM ./C.cell (414f73aa93bd7a1190c7fd0f31ff2f98)
REM
REM compiler GCC version 9.2.1 20190827 (Red Hat 9.2.1-1)
REM options -cpp -mtune=generic -march=x86-64 -g -O0 -fpre-include=/usr/include/finclude/math-vector-fortran.h
REM seed -499652868 -222877363 -1554565790 -2064989139 -571719883 482174953 -330305918 -1599551205 830499935 -1583294926 254338686 1646219589 465421816 769818948 -960440082 828677307 -1131117415 40617582 92995581 378869375 2013425228 1296797155 17577803 -227186116 313457926 1782223203 -1121793548 194816068 1764546991 1500976557 1073927350 -437303612 632712980
REM
CELL 1.54180   50.00000   50.00000   50.00000   90.00000   90.00000   90.00000
LATT -1
SFAC C  
C      1  0.5280640000000  0.4392460000000  0.4525170000000 1.0
C      1  0.5474830000000  0.4392460000000  0.5280640000000 1.0
C      1  0.4719360000000  0.4392460000000  0.5474830000000 1.0
C      1  0.4525170000000  0.4392460000000  0.4719360000000 1.0
C      1  0.4260620000000  0.5439420000000  0.4777260000000 1.0
C      1  0.5222740000000  0.5439420000000  0.4260620000000 1.0
C      1  0.5739380000000  0.5439420000000  0.5222740000000 1.0
C      1  0.4777260000000  0.5439420000000  0.5739380000000 1.0
C      1  0.4412990000000  0.4732860000000  0.5320190000000 1.0
C      1  0.4679810000000  0.4732860000000  0.4412990000000 1.0
C      1  0.5587010000000  0.4732860000000  0.4679810000000 1.0
C      1  0.5320190000000  0.4732860000000  0.5587010000000 1.0
C      1  0.5166720000000  0.4913740000000  0.5145390000000 1.0
C      1  0.4854610000000  0.4913740000000  0.5166720000000 1.0
C      1  0.4833280000000  0.4913740000000  0.4854610000000 1.0
C      1  0.5145390000000  0.4913740000000  0.4833280000000 1.0
C      1  0.5042060000000  0.5437840000000  0.5643090000000 1.0
C      1  0.4356910000000  0.5437840000000  0.5042060000000 1.0
C      1  0.4957940000000  0.5437840000000  0.4356910000000 1.0
C      1  0.5643090000000  0.5437840000000  0.4957940000000 1.0
C      1  0.5403310000000  0.4856770000000  0.5324420000000 1.0
C      1  0.4675580000000  0.4856770000000  0.5403310000000 1.0
C      1  0.4596690000000  0.4856770000000  0.4675580000000 1.0
C      1  0.5324420000000  0.4856770000000  0.4596690000000 1.0
C      1  0.4820370000000  0.5066760000000  0.4048490000000 1.0
C      1  0.5951510000000  0.5066760000000  0.4820370000000 1.0
C      1  0.5179630000000  0.5066760000000  0.5951510000000 1.0
C      1  0.4048490000000  0.5066760000000  0.5179630000000 1.0
C      1  0.4620480000000  0.5513360000000  0.5527070000000 1.0
C      1  0.4472930000000  0.5513360000000  0.4620480000000 1.0
C      1  0.5379520000000  0.5513360000000  0.4472930000000 1.0
C      1  0.5527070000000  0.5513360000000  0.5379520000000 1.0
C      1  0.4769460000000  0.5253840000000  0.4245600000000 1.0
C      1  0.5754400000000  0.5253840000000  0.4769460000000 1.0
C      1  0.5230540000000  0.5253840000000  0.5754400000000 1.0
C      1  0.4245600000000  0.5253840000000  0.5230540000000 1.0
C      1  0.4995690000000  0.4385210000000  0.5380410000000 1.0
C      1  0.4619590000000  0.4385210000000  0.4995690000000 1.0
C      1  0.5004310000000  0.4385210000000  0.4619590000000 1.0
C      1  0.5380410000000  0.4385210000000  0.5004310000000 1.0
C      1  0.4422540000000  0.4655070000000  0.4795820000000 1.0
C      1  0.5204180000000  0.4655070000000  0.4422540000000 1.0
C      1  0.5577460000000  0.4655070000000  0.5204180000000 1.0
C      1  0.4795820000000  0.4655070000000  0.5577460000000 1.0
C      1  0.5292830000000  0.5547390000000  0.5227280000000 1.0
C      1  0.4772720000000  0.5547390000000  0.5292830000000 1.0
C      1  0.4707170000000  0.5547390000000  0.4772720000000 1.0
C      1  0.5227280000000  0.5547390000000  0.4707170000000 1.0
C      1  0.5358070000000  0.5479170000000  0.4954490000000 1.0
C      1  0.5045510000000  0.5479170000000  0.5358070000000 1.0
C      1  0.4641930000000  0.5479170000000  0.5045510000000 1.0
C      1  0.4954490000000  0.5479170000000  0.4641930000000 1.0
C      1  0.4507580000000  0.4444080000000  0.5261780000000 1.0
C      1  0.4738220000000  0.4444080000000  0.4507580000000 1.0
C      1  0.5492420000000  0.4444080000000  0.4738220000000 1.0
C      1  0.5261780000000  0.4444080000000  0.5492420000000 1.0
C      1  0.4870230000000  0.4882030000000  0.4250440000000 1.0
C      1  0.5749560000000  0.4882030000000  0.4870230000000 1.0
C      1  0.5129770000000  0.4882030000000  0.5749560000000 1.0
C      1  0.4250440000000  0.4882030000000  0.5129770000000 1.0
END
