TITL C-38197-8510-541 -1.50904082180455e-06 125000 -372.977372961106 0 0 60 (Cs) n - 1
REM
REM in /home/bkarasulu/CARBON/AIRSS/Generating-Clusters/EDIP-Nigel-Params/Higher-Symm/Box-15A/Only-C60/SD-CG/FIRE-HFTN
REM
REM
REM
REM
REM
REM ./C.cell (414f73aa93bd7a1190c7fd0f31ff2f98)
REM
REM compiler GCC version 9.2.1 20190827 (Red Hat 9.2.1-1)
REM options -cpp -mtune=generic -march=x86-64 -g -O0 -fpre-include=/usr/include/finclude/math-vector-fortran.h
REM seed -18762543 1142968623 1602876329 1771045174 -1173812875 -1064005332 -518087207 -50744662 -1849129659 1862539387 380430034 1049744094 -841023308 -1194460008 1481253407 -143078974 -815309377 -810288539 -1274193533 818150854 -1731849976 1772809643 -507306628 2075515266 -1016736590 1798538475 -216064188 1258917640 606846301 -1584239261 454202348 1240948659 -209605312
REM
CELL 1.54180   50.00000   50.00000   50.00000   90.00000   90.00000   90.00000
LATT -1
SFAC C  
C      1  0.4292290000000  0.5181860000000  0.5144160000000 1.0
C      1  0.4292290000000  0.5181860000000  0.4855840000000 1.0
C      1  0.5250920000000  0.4929230000000  0.5748810000000 1.0
C      1  0.5250920000000  0.4929230000000  0.4251190000000 1.0
C      1  0.5225250000000  0.5547090000000  0.4526140000000 1.0
C      1  0.5225250000000  0.5547090000000  0.5473860000000 1.0
C      1  0.5493410000000  0.4607430000000  0.5410300000000 1.0
C      1  0.5493410000000  0.4607430000000  0.4589700000000 1.0
C      1  0.5405950000000  0.5160730000000  0.5709140000000 1.0
C      1  0.5405950000000  0.5160730000000  0.4290860000000 1.0
C      1  0.4413680000000  0.5016510000000  0.5652730000000 1.0
C      1  0.4413680000000  0.5016510000000  0.4347270000000 1.0
C      1  0.4501560000000  0.5322580000000  0.4711730000000 1.0
C      1  0.4501560000000  0.5322580000000  0.5288270000000 1.0
C      1  0.4892680000000  0.5637610000000  0.5150470000000 1.0
C      1  0.4892680000000  0.5637610000000  0.4849530000000 1.0
C      1  0.4569160000000  0.5235300000000  0.4437690000000 1.0
C      1  0.4569160000000  0.5235300000000  0.5562310000000 1.0
C      1  0.5700530000000  0.4793890000000  0.4614920000000 1.0
C      1  0.5700530000000  0.4793890000000  0.5385080000000 1.0
C      1  0.5169230000000  0.4336470000000  0.4855850000000 1.0
C      1  0.5169230000000  0.4336470000000  0.5144150000000 1.0
C      1  0.4274150000000  0.4800790000000  0.4856970000000 1.0
C      1  0.4274150000000  0.4800790000000  0.5143030000000 1.0
C      1  0.5233500000000  0.5099840000000  0.4850870000000 1.0
C      1  0.5233500000000  0.5099840000000  0.5149130000000 1.0
C      1  0.4962450000000  0.5143360000000  0.5280790000000 1.0
C      1  0.4962450000000  0.5143360000000  0.4719210000000 1.0
C      1  0.5450250000000  0.5363280000000  0.4481740000000 1.0
C      1  0.5450250000000  0.5363280000000  0.5518260000000 1.0
C      1  0.5597820000000  0.4994250000000  0.4778780000000 1.0
C      1  0.5597820000000  0.4994250000000  0.5221220000000 1.0
C      1  0.4878410000000  0.5210030000000  0.5576680000000 1.0
C      1  0.4878410000000  0.5210030000000  0.4423320000000 1.0
C      1  0.4813200000000  0.4741160000000  0.5678020000000 1.0
C      1  0.4813200000000  0.4741160000000  0.4321980000000 1.0
C      1  0.5004580000000  0.5467060000000  0.4364810000000 1.0
C      1  0.5004580000000  0.5467060000000  0.5635190000000 1.0
C      1  0.5175780000000  0.5631920000000  0.5193910000000 1.0
C      1  0.5175780000000  0.5631920000000  0.4806090000000 1.0
C      1  0.4770100000000  0.5342640000000  0.4843220000000 1.0
C      1  0.4770100000000  0.5342640000000  0.5156780000000 1.0
C      1  0.5443880000000  0.4421800000000  0.4806400000000 1.0
C      1  0.5443880000000  0.4421800000000  0.5193600000000 1.0
C      1  0.5560150000000  0.5270120000000  0.5273020000000 1.0
C      1  0.5560150000000  0.5270120000000  0.4726980000000 1.0
C      1  0.4687460000000  0.4518210000000  0.5146250000000 1.0
C      1  0.4687460000000  0.4518210000000  0.4853750000000 1.0
C      1  0.4499080000000  0.4692480000000  0.4716880000000 1.0
C      1  0.4499080000000  0.4692480000000  0.5283120000000 1.0
C      1  0.5265180000000  0.4700760000000  0.5563760000000 1.0
C      1  0.5265180000000  0.4700760000000  0.4436240000000 1.0
C      1  0.5008040000000  0.4573220000000  0.5535240000000 1.0
C      1  0.5008040000000  0.4573220000000  0.4464760000000 1.0
C      1  0.4960120000000  0.4986020000000  0.4227170000000 1.0
C      1  0.4960120000000  0.4986020000000  0.5772830000000 1.0
C      1  0.4551980000000  0.4792280000000  0.4448300000000 1.0
C      1  0.4551980000000  0.4792280000000  0.5551700000000 1.0
C      1  0.4949200000000  0.4482060000000  0.4731880000000 1.0
C      1  0.4949200000000  0.4482060000000  0.5268120000000 1.0
END
