TITL C-38196-2854-141 7.46327422556884e-07 125000 -364.622938882729 0 0 60 (C3i) n - 1
REM
REM in /home/bkarasulu/CARBON/AIRSS/Generating-Clusters/EDIP-Nigel-Params/Higher-Symm/Box-15A/Only-C60/SD-CG/FIRE-HFTN
REM
REM
REM
REM
REM
REM ./C.cell (414f73aa93bd7a1190c7fd0f31ff2f98)
REM
REM compiler GCC version 9.2.1 20190827 (Red Hat 9.2.1-1)
REM options -cpp -mtune=generic -march=x86-64 -g -O0 -fpre-include=/usr/include/finclude/math-vector-fortran.h
REM seed -1329923304 -733032183 -834949542 203742864 -573574587 -523880511 1890202447 1076040338 -891121120 1318027900 1056187334 -969703930 2019520641 -2016982146 -1450727165 1491676072 -229367187 -1437556371 1992697652 1976649976 -1931995025 -200808020 -1312612739 -1977500247 1377698471 -764323302 -290024519 1066036139 2075736836 2095655644 -1432489092 -1530938334 886176318
REM
CELL 1.54180   50.00000   50.00000   50.00000   90.00000   90.00000   90.00000
LATT -1
SFAC C  
C      1  0.4670980000000  0.4741570000000  0.5586940000000 1.0
C      1  0.5388320000000  0.4844270000000  0.5586930000000 1.0
C      1  0.4940710000000  0.5414160000000  0.5586940000000 1.0
C      1  0.5329020000000  0.4741570000000  0.4413060000000 1.0
C      1  0.4611680000000  0.4844270000000  0.4413070000000 1.0
C      1  0.5059290000000  0.5414160000000  0.4413060000000 1.0
C      1  0.5329020000000  0.5258430000000  0.4413060000000 1.0
C      1  0.4611680000000  0.5155730000000  0.4413070000000 1.0
C      1  0.5059290000000  0.4585840000000  0.4413060000000 1.0
C      1  0.4670980000000  0.5258430000000  0.5586940000000 1.0
C      1  0.5388320000000  0.5155730000000  0.5586930000000 1.0
C      1  0.4940710000000  0.4585840000000  0.5586940000000 1.0
C      1  0.5620390000000  0.5502270000000  0.4719730000000 1.0
C      1  0.4254820000000  0.5286150000000  0.4719740000000 1.0
C      1  0.5124780000000  0.4211590000000  0.4719740000000 1.0
C      1  0.4379610000000  0.5502270000000  0.5280270000000 1.0
C      1  0.5745180000000  0.5286150000000  0.5280260000000 1.0
C      1  0.4875220000000  0.4211590000000  0.5280260000000 1.0
C      1  0.4379610000000  0.4497730000000  0.5280270000000 1.0
C      1  0.5745180000000  0.4713850000000  0.5280260000000 1.0
C      1  0.4875220000000  0.5788410000000  0.5280260000000 1.0
C      1  0.5620390000000  0.4497730000000  0.4719730000000 1.0
C      1  0.4254820000000  0.4713850000000  0.4719740000000 1.0
C      1  0.5124780000000  0.5788410000000  0.4719740000000 1.0
C      1  0.4497720000000  0.4712300000000  0.4856210000000 1.0
C      1  0.5500290000000  0.4708860000000  0.4856200000000 1.0
C      1  0.5001980000000  0.5578830000000  0.4856210000000 1.0
C      1  0.5502280000000  0.4712300000000  0.5143790000000 1.0
C      1  0.4499710000000  0.4708860000000  0.5143800000000 1.0
C      1  0.4998020000000  0.5578830000000  0.5143790000000 1.0
C      1  0.5502280000000  0.5287700000000  0.5143790000000 1.0
C      1  0.4499710000000  0.5291140000000  0.5143800000000 1.0
C      1  0.4998020000000  0.4421170000000  0.5143790000000 1.0
C      1  0.4497720000000  0.5287700000000  0.4856210000000 1.0
C      1  0.5500290000000  0.5291140000000  0.4856200000000 1.0
C      1  0.5001980000000  0.4421170000000  0.4856210000000 1.0
C      1  0.4792310000000  0.5678110000000  0.5527620000000 1.0
C      1  0.4516590000000  0.4481080000000  0.5527620000000 1.0
C      1  0.5691110000000  0.4840820000000  0.5527610000000 1.0
C      1  0.5207690000000  0.5678110000000  0.4472380000000 1.0
C      1  0.5483410000000  0.4481080000000  0.4472380000000 1.0
C      1  0.4308890000000  0.4840820000000  0.4472390000000 1.0
C      1  0.5207690000000  0.4321890000000  0.4472380000000 1.0
C      1  0.5483410000000  0.5518920000000  0.4472380000000 1.0
C      1  0.4308890000000  0.5159180000000  0.4472390000000 1.0
C      1  0.4792310000000  0.4321890000000  0.5527620000000 1.0
C      1  0.4516590000000  0.5518920000000  0.5527620000000 1.0
C      1  0.5691110000000  0.5159180000000  0.5527610000000 1.0
C      1  0.4722100000000  0.4834930000000  0.4702360000000 1.0
C      1  0.5281910000000  0.4841870000000  0.4702360000000 1.0
C      1  0.4995990000000  0.5323210000000  0.4702360000000 1.0
C      1  0.5277900000000  0.4834930000000  0.5297640000000 1.0
C      1  0.4718090000000  0.4841870000000  0.5297640000000 1.0
C      1  0.5004010000000  0.5323210000000  0.5297640000000 1.0
C      1  0.5277900000000  0.5165070000000  0.5297640000000 1.0
C      1  0.4718090000000  0.5158130000000  0.5297640000000 1.0
C      1  0.5004010000000  0.4676790000000  0.5297640000000 1.0
C      1  0.4722100000000  0.5165070000000  0.4702360000000 1.0
C      1  0.5281910000000  0.5158130000000  0.4702360000000 1.0
C      1  0.4995990000000  0.4676790000000  0.4702360000000 1.0
END
