TITL C-38194-9318-182 -4.17043479668291e-07 125000 -352.891756102808 0 0 60 (C3i) n - 1
REM
REM in /home/bkarasulu/CARBON/AIRSS/Generating-Clusters/EDIP-Nigel-Params/Higher-Symm/Box-15A/Only-C60/SD-CG/FIRE-HFTN
REM
REM
REM
REM
REM
REM ./C.cell (414f73aa93bd7a1190c7fd0f31ff2f98)
REM
REM compiler GCC version 9.2.1 20190827 (Red Hat 9.2.1-1)
REM options -cpp -mtune=generic -march=x86-64 -g -O0 -fpre-include=/usr/include/finclude/math-vector-fortran.h
REM seed 312452685 -1729185247 -1612188715 851137790 -866372884 -51176001 -1920100939 2098904165 -902076947 727320950 -584996496 465798929 -180415627 -2089264510 -1403942119 1866153043 1656823676 1582971004 396559726 1374311670 -651117468 1613807511 1259438253 -977405685 -39278560 -1023234992 469947352 181387187 -2112703431 -870617693 -852079584 1310611684 -1377723926
REM
CELL 1.54180   50.00000   50.00000   50.00000   90.00000   90.00000   90.00000
LATT -1
SFAC C  
C      1  0.5303830000000  0.4494420000000  0.5226590000000 1.0
C      1  0.4410230000000  0.4989660000000  0.5226570000000 1.0
C      1  0.5285920000000  0.5515920000000  0.5226590000000 1.0
C      1  0.5307330000000  0.5488120000000  0.4764060000000 1.0
C      1  0.4423620000000  0.5022090000000  0.4764040000000 1.0
C      1  0.5269070000000  0.4489790000000  0.4764060000000 1.0
C      1  0.4696170000000  0.5505580000000  0.4773410000000 1.0
C      1  0.5589770000000  0.5010340000000  0.4773430000000 1.0
C      1  0.4714080000000  0.4484080000000  0.4773410000000 1.0
C      1  0.4692670000000  0.4511880000000  0.5235940000000 1.0
C      1  0.5576380000000  0.4977910000000  0.5235960000000 1.0
C      1  0.4730930000000  0.5510210000000  0.5235940000000 1.0
C      1  0.4472250000000  0.5471810000000  0.4990930000000 1.0
C      1  0.5672470000000  0.5221140000000  0.4990960000000 1.0
C      1  0.4855280000000  0.4307050000000  0.4990940000000 1.0
C      1  0.4473230000000  0.4527320000000  0.5010930000000 1.0
C      1  0.5672740000000  0.4780140000000  0.5010950000000 1.0
C      1  0.4854030000000  0.5692540000000  0.5010930000000 1.0
C      1  0.5527750000000  0.4528190000000  0.5009070000000 1.0
C      1  0.4327530000000  0.4778860000000  0.5009040000000 1.0
C      1  0.5144720000000  0.5692950000000  0.5009060000000 1.0
C      1  0.5526770000000  0.5472680000000  0.4989070000000 1.0
C      1  0.4327260000000  0.5219860000000  0.4989050000000 1.0
C      1  0.5145970000000  0.4307460000000  0.4989070000000 1.0
C      1  0.5146090000000  0.5242110000000  0.5242560000000 1.0
C      1  0.5136620000000  0.4752430000000  0.5242560000000 1.0
C      1  0.4717280000000  0.5005470000000  0.5242550000000 1.0
C      1  0.5137220000000  0.4752750000000  0.4800200000000 1.0
C      1  0.5145520000000  0.5242460000000  0.4800200000000 1.0
C      1  0.4717270000000  0.5004800000000  0.4800190000000 1.0
C      1  0.4853910000000  0.4757890000000  0.4757440000000 1.0
C      1  0.4863380000000  0.5247570000000  0.4757440000000 1.0
C      1  0.5282720000000  0.4994530000000  0.4757450000000 1.0
C      1  0.4862780000000  0.5247250000000  0.5199800000000 1.0
C      1  0.4854480000000  0.4757540000000  0.5199800000000 1.0
C      1  0.5282730000000  0.4995200000000  0.5199810000000 1.0
C      1  0.4453380000000  0.4857480000000  0.5558820000000 1.0
C      1  0.5149860000000  0.5544640000000  0.5558830000000 1.0
C      1  0.5396720000000  0.4597890000000  0.5558840000000 1.0
C      1  0.4464640000000  0.5129220000000  0.4458270000000 1.0
C      1  0.5155790000000  0.4471740000000  0.4458290000000 1.0
C      1  0.5379610000000  0.5399030000000  0.4458290000000 1.0
C      1  0.5546620000000  0.5142520000000  0.4441180000000 1.0
C      1  0.4850140000000  0.4455360000000  0.4441170000000 1.0
C      1  0.4603280000000  0.5402110000000  0.4441160000000 1.0
C      1  0.5535360000000  0.4870780000000  0.5541730000000 1.0
C      1  0.4844210000000  0.5528260000000  0.5541710000000 1.0
C      1  0.4620390000000  0.4600970000000  0.5541710000000 1.0
C      1  0.4589240000000  0.4914710000000  0.4313100000000 1.0
C      1  0.5131540000000  0.5398390000000  0.4313110000000 1.0
C      1  0.5279270000000  0.4686900000000  0.4313120000000 1.0
C      1  0.4577800000000  0.5079360000000  0.5690820000000 1.0
C      1  0.5142350000000  0.4594700000000  0.5690830000000 1.0
C      1  0.5279810000000  0.5325940000000  0.5690830000000 1.0
C      1  0.5410760000000  0.5085290000000  0.5686900000000 1.0
C      1  0.4868460000000  0.4601610000000  0.5686890000000 1.0
C      1  0.4720730000000  0.5313100000000  0.5686880000000 1.0
C      1  0.5422200000000  0.4920640000000  0.4309180000000 1.0
C      1  0.4857650000000  0.5405300000000  0.4309170000000 1.0
C      1  0.4720190000000  0.4674060000000  0.4309170000000 1.0
END
