TITL C-38187-2739-466 -8.26709936000465e-05 125000 -362.520079968308 0 0 60 (C1) n - 1
REM
REM in /home/bkarasulu/CARBON/AIRSS/Generating-Clusters/EDIP-Nigel-Params/Higher-Symm/Box-15A/Only-C60/SD-CG/FIRE-HFTN
REM
REM
REM
REM
REM
REM ./C.cell (414f73aa93bd7a1190c7fd0f31ff2f98)
REM
REM compiler GCC version 9.2.1 20190827 (Red Hat 9.2.1-1)
REM options -cpp -mtune=generic -march=x86-64 -g -O0 -fpre-include=/usr/include/finclude/math-vector-fortran.h
REM seed -1053786528 -2032216989 1345434052 -760394676 -261711202 95821608 -1165552832 550871701 -1314676472 1416539177 1630353164 -2110922294 336463306 -110316806 -1528796392 152056241 -465274862 -2091756096 1440450830 902749878 2070229403 779994589 -789965431 -774164741 718458445 -804352897 303067462 -38535216 -789583047 1035241145 -531455468 -727000297 595902260
REM
CELL 1.54180   50.00000   50.00000   50.00000   90.00000   90.00000   90.00000
LATT -1
SFAC C  
C      1  0.4500160000000  0.4535600000000  0.5353630000000 1.0
C      1  0.5465820000000  0.4498460000000  0.5355440000000 1.0
C      1  0.5502850000000  0.5464580000000  0.5353690000000 1.0
C      1  0.4536740000000  0.5501160000000  0.5351620000000 1.0
C      1  0.4410020000000  0.5257380000000  0.5338830000000 1.0
C      1  0.5259420000000  0.5592300000000  0.5341930000000 1.0
C      1  0.5594070000000  0.4741660000000  0.5344460000000 1.0
C      1  0.4743660000000  0.4408260000000  0.5341600000000 1.0
C      1  0.5173090000000  0.5347970000000  0.4992090000000 1.0
C      1  0.4652920000000  0.5170000000000  0.4988000000000 1.0
C      1  0.4830830000000  0.4653800000000  0.4991900000000 1.0
C      1  0.5347420000000  0.4827680000000  0.4995600000000 1.0
C      1  0.5122270000000  0.4642240000000  0.4874880000000 1.0
C      1  0.4642630000000  0.4877230000000  0.4870840000000 1.0
C      1  0.4880130000000  0.5361160000000  0.4877800000000 1.0
C      1  0.5361630000000  0.5119510000000  0.4881480000000 1.0
C      1  0.5199320000000  0.4401590000000  0.4537910000000 1.0
C      1  0.5596990000000  0.5200800000000  0.4542510000000 1.0
C      1  0.4793270000000  0.5599100000000  0.4541920000000 1.0
C      1  0.4399200000000  0.4794290000000  0.4537130000000 1.0
C      1  0.5259080000000  0.5587850000000  0.4577560000000 1.0
C      1  0.5582040000000  0.4737570000000  0.4581260000000 1.0
C      1  0.4737340000000  0.4415140000000  0.4579520000000 1.0
C      1  0.4408780000000  0.5259250000000  0.4575390000000 1.0
C      1  0.4803110000000  0.4269900000000  0.5078000000000 1.0
C      1  0.5731830000000  0.4801090000000  0.5080160000000 1.0
C      1  0.5199170000000  0.5731900000000  0.5078390000000 1.0
C      1  0.4269570000000  0.5196950000000  0.5076090000000 1.0
C      1  0.4889250000000  0.5711460000000  0.5059800000000 1.0
C      1  0.5713400000000  0.5111080000000  0.5060890000000 1.0
C      1  0.5112440000000  0.4291670000000  0.5057140000000 1.0
C      1  0.4293660000000  0.4887720000000  0.5055890000000 1.0
C      1  0.5327640000000  0.5576840000000  0.4850830000000 1.0
C      1  0.4422650000000  0.5326860000000  0.4848990000000 1.0
C      1  0.4671670000000  0.4425620000000  0.4853580000000 1.0
C      1  0.5574550000000  0.4671070000000  0.4855020000000 1.0
C      1  0.5263890000000  0.4301350000000  0.4794450000000 1.0
C      1  0.4301580000000  0.4732950000000  0.4795290000000 1.0
C      1  0.4734210000000  0.5699910000000  0.4799380000000 1.0
C      1  0.5700210000000  0.5262970000000  0.4798470000000 1.0
C      1  0.4667160000000  0.5150380000000  0.4524200000000 1.0
C      1  0.4846190000000  0.4674470000000  0.4531140000000 1.0
C      1  0.5323170000000  0.4848150000000  0.4535400000000 1.0
C      1  0.5148550000000  0.5329870000000  0.4528810000000 1.0
C      1  0.4653660000000  0.4873010000000  0.4436820000000 1.0
C      1  0.4870670000000  0.5344130000000  0.4443000000000 1.0
C      1  0.5340240000000  0.5125080000000  0.4446800000000 1.0
C      1  0.5122640000000  0.4658010000000  0.4440930000000 1.0
C      1  0.4573980000000  0.5022770000000  0.5393160000000 1.0
C      1  0.4978770000000  0.4571540000000  0.5396070000000 1.0
C      1  0.5431200000000  0.4977470000000  0.5398610000000 1.0
C      1  0.5024000000000  0.5428890000000  0.5395950000000 1.0
C      1  0.4416430000000  0.4793900000000  0.5311260000000 1.0
C      1  0.4795190000000  0.5586430000000  0.5313740000000 1.0
C      1  0.5588050000000  0.5206190000000  0.5314880000000 1.0
C      1  0.5207550000000  0.4414710000000  0.5312530000000 1.0
C      1  0.4989810000000  0.4778800000000  0.5609530000000 1.0
C      1  0.4779630000000  0.5011480000000  0.5608110000000 1.0
C      1  0.5222460000000  0.4989140000000  0.5610520000000 1.0
C      1  0.5012120000000  0.5221640000000  0.5609200000000 1.0
END
