TITL C-38192-7909-144 0.0015596543777216 125000 -345.164497696424 0 0 60 (C2) n - 1
REM
REM in /home/bkarasulu/CARBON/AIRSS/Generating-Clusters/EDIP-Nigel-Params/Higher-Symm/Box-15A/Only-C60/SD-CG/FIRE-HFTN
REM
REM
REM
REM
REM
REM ./C.cell (414f73aa93bd7a1190c7fd0f31ff2f98)
REM
REM compiler GCC version 9.2.1 20190827 (Red Hat 9.2.1-1)
REM options -cpp -mtune=generic -march=x86-64 -g -O0 -fpre-include=/usr/include/finclude/math-vector-fortran.h
REM seed -1926715088 -1766751167 -1205892394 1352822148 -1472936699 944113667 58493337 -1988885784 -1857486508 714720127 1512838355 -571744540 -269832877 1974592366 1128188220 -1051919708 1134176452 93542432 2110016621 -643295352 -614676783 1694679992 -697542828 2010333794 1031164888 1212767552 1146664144 -504063221 -1968749805 -852657724 -2078070479 599268501 -120706937
REM
CELL 1.54180   50.00000   50.00000   50.00000   90.00000   90.00000   90.00000
LATT -1
SFAC C  
C      1  0.4340290000000  0.5537760000000  0.5175150000000 1.0
C      1  0.5650960000000  0.5543970000000  0.4833900000000 1.0
C      1  0.4340540000000  0.4461910000000  0.4824920000000 1.0
C      1  0.5651250000000  0.4456360000000  0.5166020000000 1.0
C      1  0.5130030000000  0.5179390000000  0.5078310000000 1.0
C      1  0.4861640000000  0.5181600000000  0.4928740000000 1.0
C      1  0.5130110000000  0.4820680000000  0.4921670000000 1.0
C      1  0.4861740000000  0.4818330000000  0.5071280000000 1.0
C      1  0.5301960000000  0.4296930000000  0.4562140000000 1.0
C      1  0.4692000000000  0.4278810000000  0.5422030000000 1.0
C      1  0.5301660000000  0.5703220000000  0.5437820000000 1.0
C      1  0.4691590000000  0.5721040000000  0.4578000000000 1.0
C      1  0.5378440000000  0.5294080000000  0.4504890000000 1.0
C      1  0.4631600000000  0.5318790000000  0.5508070000000 1.0
C      1  0.5378640000000  0.4706110000000  0.5495070000000 1.0
C      1  0.4631700000000  0.4681020000000  0.4491970000000 1.0
C      1  0.5261270000000  0.4488240000000  0.4339900000000 1.0
C      1  0.4736620000000  0.4457910000000  0.5653410000000 1.0
C      1  0.5261090000000  0.5511890000000  0.5660070000000 1.0
C      1  0.4736280000000  0.5541960000000  0.4346620000000 1.0
C      1  0.4519590000000  0.5338040000000  0.5258450000000 1.0
C      1  0.5479640000000  0.5335970000000  0.4756140000000 1.0
C      1  0.4519730000000  0.4661720000000  0.4741610000000 1.0
C      1  0.5479840000000  0.4664270000000  0.5243810000000 1.0
C      1  0.4333380000000  0.5636410000000  0.4921830000000 1.0
C      1  0.5656540000000  0.5644930000000  0.5086260000000 1.0
C      1  0.4333700000000  0.4363250000000  0.5078250000000 1.0
C      1  0.5656850000000  0.4355400000000  0.4913670000000 1.0
C      1  0.5126590000000  0.4769670000000  0.5588640000000 1.0
C      1  0.4890600000000  0.4726000000000  0.4403910000000 1.0
C      1  0.5126410000000  0.5230390000000  0.4411350000000 1.0
C      1  0.4890540000000  0.5273950000000  0.5596110000000 1.0
C      1  0.4899500000000  0.5172320000000  0.4611250000000 1.0
C      1  0.5096680000000  0.5161180000000  0.5397230000000 1.0
C      1  0.4899630000000  0.4827630000000  0.5388760000000 1.0
C      1  0.5096710000000  0.4838870000000  0.4602760000000 1.0
C      1  0.4481970000000  0.4450060000000  0.5297390000000 1.0
C      1  0.5516200000000  0.4455050000000  0.4694880000000 1.0
C      1  0.4481660000000  0.5549680000000  0.4702670000000 1.0
C      1  0.5515960000000  0.5545210000000  0.5305060000000 1.0
C      1  0.4972140000000  0.5659530000000  0.4634950000000 1.0
C      1  0.5022910000000  0.5636950000000  0.5377050000000 1.0
C      1  0.4972510000000  0.4340460000000  0.5365050000000 1.0
C      1  0.5023190000000  0.4363060000000  0.4622950000000 1.0
C      1  0.4702380000000  0.5427860000000  0.5035970000000 1.0
C      1  0.5291400000000  0.5426560000000  0.4973950000000 1.0
C      1  0.4702590000000  0.4571990000000  0.4964070000000 1.0
C      1  0.5291610000000  0.4573590000000  0.5026020000000 1.0
C      1  0.5095850000000  0.5058860000000  0.4191580000000 1.0
C      1  0.4925560000000  0.5149940000000  0.5847390000000 1.0
C      1  0.5095970000000  0.4941180000000  0.5808410000000 1.0
C      1  0.4925540000000  0.4850020000000  0.4152610000000 1.0
C      1  0.4660240000000  0.4707750000000  0.5520750000000 1.0
C      1  0.5348420000000  0.4728930000000  0.4482580000000 1.0
C      1  0.4660040000000  0.5292080000000  0.4479290000000 1.0
C      1  0.5348340000000  0.5271240000000  0.5517380000000 1.0
C      1  0.5094090000000  0.5647740000000  0.4897420000000 1.0
C      1  0.4900660000000  0.5644870000000  0.5114830000000 1.0
C      1  0.5094430000000  0.4352310000000  0.5102570000000 1.0
C      1  0.4900970000000  0.4355080000000  0.4885180000000 1.0
END
