TITL C-38194-9318-421 2.18770920602811e-05 125000 -375.63063898227 0 0 60 (D4) n - 1
REM
REM in /home/bkarasulu/CARBON/AIRSS/Generating-Clusters/EDIP-Nigel-Params/Higher-Symm/Box-15A/Only-C60/SD-CG/FIRE-HFTN
REM
REM
REM
REM
REM
REM ./C.cell (414f73aa93bd7a1190c7fd0f31ff2f98)
REM
REM compiler GCC version 9.2.1 20190827 (Red Hat 9.2.1-1)
REM options -cpp -mtune=generic -march=x86-64 -g -O0 -fpre-include=/usr/include/finclude/math-vector-fortran.h
REM seed -2117528930 -2009517062 716902160 -393775233 1609848727 157413154 -395310012 -251297266 1154513878 -789135388 -1250322237 -1349733880 945222531 -1381251494 -1293663623 1685592396 1145559462 -1204073800 -1298750598 -120676208 1495649351 955313869 -1734892953 -1789111212 -979953865 -117943795 -672736675 1233871621 328353899 398007653 1155372991 1144470642 276118964
REM
CELL 1.54180   50.00000   50.00000   50.00000   90.00000   90.00000   90.00000
LATT -1
SFAC C  
C      1  0.5375720000000  0.4890640000000  0.4353270000000 1.0
C      1  0.4890640000000  0.4624280000000  0.4353270000000 1.0
C      1  0.4624280000000  0.5109360000000  0.4353270000000 1.0
C      1  0.5109360000000  0.5375720000000  0.4353270000000 1.0
C      1  0.5375720000000  0.5109360000000  0.5650930000000 1.0
C      1  0.4890640000000  0.5375720000000  0.5650930000000 1.0
C      1  0.4624280000000  0.4890640000000  0.5650930000000 1.0
C      1  0.5109360000000  0.4624280000000  0.5650930000000 1.0
C      1  0.4825040000000  0.4678580000000  0.5594190000000 1.0
C      1  0.4678580000000  0.5174960000000  0.5594190000000 1.0
C      1  0.5174960000000  0.5321420000000  0.5594190000000 1.0
C      1  0.5321420000000  0.4825040000000  0.5594190000000 1.0
C      1  0.4825040000000  0.5321420000000  0.4410010000000 1.0
C      1  0.4678580000000  0.4825040000000  0.4410010000000 1.0
C      1  0.5174960000000  0.4678580000000  0.4410010000000 1.0
C      1  0.5321420000000  0.5174960000000  0.4410010000000 1.0
C      1  0.5067810000000  0.4315000000000  0.4705880000000 1.0
C      1  0.4315000000000  0.4932190000000  0.4705880000000 1.0
C      1  0.4932190000000  0.5685000000000  0.4705880000000 1.0
C      1  0.5685000000000  0.5067810000000  0.4705880000000 1.0
C      1  0.5067810000000  0.5685000000000  0.5298320000000 1.0
C      1  0.4315000000000  0.5067810000000  0.5298320000000 1.0
C      1  0.4932190000000  0.4315000000000  0.5298320000000 1.0
C      1  0.5685000000000  0.4932190000000  0.5298320000000 1.0
C      1  0.5503450000000  0.4600480000000  0.4702120000000 1.0
C      1  0.4600480000000  0.4496550000000  0.4702120000000 1.0
C      1  0.4496550000000  0.5399520000000  0.4702120000000 1.0
C      1  0.5399520000000  0.5503450000000  0.4702120000000 1.0
C      1  0.5503450000000  0.5399520000000  0.5302080000000 1.0
C      1  0.4600480000000  0.5503450000000  0.5302080000000 1.0
C      1  0.4496550000000  0.4600480000000  0.5302080000000 1.0
C      1  0.5399520000000  0.4496550000000  0.5302080000000 1.0
C      1  0.4705500000000  0.5551600000000  0.4547090000000 1.0
C      1  0.5551600000000  0.5294500000000  0.4547090000000 1.0
C      1  0.5294500000000  0.4448400000000  0.4547090000000 1.0
C      1  0.4448400000000  0.4705500000000  0.4547090000000 1.0
C      1  0.4705500000000  0.4448400000000  0.5457110000000 1.0
C      1  0.5551600000000  0.4705500000000  0.5457110000000 1.0
C      1  0.5294500000000  0.5551600000000  0.5457110000000 1.0
C      1  0.4448400000000  0.5294500000000  0.5457110000000 1.0
C      1  0.4772370000000  0.5377000000000  0.5099610000000 1.0
C      1  0.5377000000000  0.5227630000000  0.5099610000000 1.0
C      1  0.5227630000000  0.4623000000000  0.5099610000000 1.0
C      1  0.4623000000000  0.4772370000000  0.5099610000000 1.0
C      1  0.4772370000000  0.4623000000000  0.4904590000000 1.0
C      1  0.5377000000000  0.4772370000000  0.4904590000000 1.0
C      1  0.5227630000000  0.5377000000000  0.4904590000000 1.0
C      1  0.4623000000000  0.5227630000000  0.4904590000000 1.0
C      1  0.5179190000000  0.4381670000000  0.5476030000000 1.0
C      1  0.4381670000000  0.4820810000000  0.5476030000000 1.0
C      1  0.4820810000000  0.5618330000000  0.5476030000000 1.0
C      1  0.5618330000000  0.5179190000000  0.5476030000000 1.0
C      1  0.5179190000000  0.5618330000000  0.4528170000000 1.0
C      1  0.4381670000000  0.5179190000000  0.4528170000000 1.0
C      1  0.4820810000000  0.4381670000000  0.4528170000000 1.0
C      1  0.5618330000000  0.4820810000000  0.4528170000000 1.0
C      1  0.5548970000000  0.5000000000000  0.5002100000000 1.0
C      1  0.5000000000000  0.4451030000000  0.5002100000000 1.0
C      1  0.4451030000000  0.5000000000000  0.5002100000000 1.0
C      1  0.5000000000000  0.5548970000000  0.5002100000000 1.0
END
