TITL C-38184-643-581 7.30337153566936e-05 125000 -358.976344337777 0 0 60 (C1) n - 1
REM
REM in /home/bkarasulu/CARBON/AIRSS/Generating-Clusters/EDIP-Nigel-Params/Higher-Symm/Box-15A/Only-C60/SD-CG/FIRE-HFTN
REM
REM
REM
REM
REM
REM ./C.cell (414f73aa93bd7a1190c7fd0f31ff2f98)
REM
REM compiler GCC version 9.2.1 20190827 (Red Hat 9.2.1-1)
REM options -cpp -mtune=generic -march=x86-64 -g -O0 -fpre-include=/usr/include/finclude/math-vector-fortran.h
REM seed 455718043 -496757830 -148415067 -301265832 526165821 216914499 81363677 -63072370 633854045 -1554678368 578847076 -834623413 186036814 -1312827461 -2062942007 1229337229 2126551499 731510566 618878690 -848026947 -953341433 -1258411975 -491620620 983010129 -1133337293 -495102230 -450219138 280108777 982075504 1756088748 -778356067 -1464348276 1026603021
REM
CELL 1.54180   50.00000   50.00000   50.00000   90.00000   90.00000   90.00000
LATT -1
SFAC C  
C      1  0.5505870000000  0.4644680000000  0.5091770000000 1.0
C      1  0.4849010000000  0.4423410000000  0.5090950000000 1.0
C      1  0.4422680000000  0.4921750000000  0.5088220000000 1.0
C      1  0.4797500000000  0.5612770000000  0.5100840000000 1.0
C      1  0.5418070000000  0.5419300000000  0.5091940000000 1.0
C      1  0.4505280000000  0.4623780000000  0.5088430000000 1.0
C      1  0.5173290000000  0.4422830000000  0.5080640000000 1.0
C      1  0.5580300000000  0.4946600000000  0.5081770000000 1.0
C      1  0.5190570000000  0.5627920000000  0.5088170000000 1.0
C      1  0.4563940000000  0.5405580000000  0.5082260000000 1.0
C      1  0.4729310000000  0.4343440000000  0.5354410000000 1.0
C      1  0.4361020000000  0.5049500000000  0.5341440000000 1.0
C      1  0.4832710000000  0.5738570000000  0.5377470000000 1.0
C      1  0.5543490000000  0.5351300000000  0.5343810000000 1.0
C      1  0.5537040000000  0.4519650000000  0.5366920000000 1.0
C      1  0.5296430000000  0.4350610000000  0.5348540000000 1.0
C      1  0.5634530000000  0.5072120000000  0.5340400000000 1.0
C      1  0.5127950000000  0.5740490000000  0.5368520000000 1.0
C      1  0.4442440000000  0.5332060000000  0.5337530000000 1.0
C      1  0.4482350000000  0.4500890000000  0.5367100000000 1.0
C      1  0.4799500000000  0.5550430000000  0.5600990000000 1.0
C      1  0.5355640000000  0.5331820000000  0.5565290000000 1.0
C      1  0.5449600000000  0.4689660000000  0.5590660000000 1.0
C      1  0.4867630000000  0.4456680000000  0.5582800000000 1.0
C      1  0.4528230000000  0.4961730000000  0.5564040000000 1.0
C      1  0.5174500000000  0.5554020000000  0.5593280000000 1.0
C      1  0.4629430000000  0.5321650000000  0.5562890000000 1.0
C      1  0.4560760000000  0.4677510000000  0.5591000000000 1.0
C      1  0.5153340000000  0.4456480000000  0.5580170000000 1.0
C      1  0.5470210000000  0.4974530000000  0.5562330000000 1.0
C      1  0.5151610000000  0.4210020000000  0.4849640000000 1.0
C      1  0.4302590000000  0.4578860000000  0.4837550000000 1.0
C      1  0.4435840000000  0.5571690000000  0.4855590000000 1.0
C      1  0.5337210000000  0.5762600000000  0.4826810000000 1.0
C      1  0.5783860000000  0.4889440000000  0.4857840000000 1.0
C      1  0.4847950000000  0.4214010000000  0.4868120000000 1.0
C      1  0.5711400000000  0.4586990000000  0.4862380000000 1.0
C      1  0.5563800000000  0.5557200000000  0.4867460000000 1.0
C      1  0.4672300000000  0.5772320000000  0.4862410000000 1.0
C      1  0.4218150000000  0.4874810000000  0.4871130000000 1.0
C      1  0.4414350000000  0.4573200000000  0.4573850000000 1.0
C      1  0.4433850000000  0.5460550000000  0.4592170000000 1.0
C      1  0.5252020000000  0.5682940000000  0.4565300000000 1.0
C      1  0.5717150000000  0.4980880000000  0.4596350000000 1.0
C      1  0.5192990000000  0.4299650000000  0.4581550000000 1.0
C      1  0.5585340000000  0.4538770000000  0.4614460000000 1.0
C      1  0.5571330000000  0.5404440000000  0.4631570000000 1.0
C      1  0.4789240000000  0.5696810000000  0.4616010000000 1.0
C      1  0.4270940000000  0.5012930000000  0.4630620000000 1.0
C      1  0.4763780000000  0.4330520000000  0.4624700000000 1.0
C      1  0.4633140000000  0.5282940000000  0.4488990000000 1.0
C      1  0.5152450000000  0.5430480000000  0.4477230000000 1.0
C      1  0.5457380000000  0.4977710000000  0.4481980000000 1.0
C      1  0.5134300000000  0.4557420000000  0.4475930000000 1.0
C      1  0.4624040000000  0.4744820000000  0.4479000000000 1.0
C      1  0.5355570000000  0.5238700000000  0.4559750000000 1.0
C      1  0.4874680000000  0.5434100000000  0.4556550000000 1.0
C      1  0.4544490000000  0.5014770000000  0.4559920000000 1.0
C      1  0.4857180000000  0.4590090000000  0.4559460000000 1.0
C      1  0.5368470000000  0.4708590000000  0.4551100000000 1.0
END
