TITL C-38185-7677-417 1.74932542950505e-05 125000 -366.089543215732 0 0 60 (C1) n - 1
REM
REM in /home/bkarasulu/CARBON/AIRSS/Generating-Clusters/EDIP-Nigel-Params/Higher-Symm/Box-15A/Only-C60/SD-CG/FIRE-HFTN
REM
REM
REM
REM
REM
REM ./C.cell (414f73aa93bd7a1190c7fd0f31ff2f98)
REM
REM compiler GCC version 9.2.1 20190827 (Red Hat 9.2.1-1)
REM options -cpp -mtune=generic -march=x86-64 -g -O0 -fpre-include=/usr/include/finclude/math-vector-fortran.h
REM seed 1602599091 -1138083133 1468369478 851007219 -1125583873 1959247054 486201251 782879162 1724516449 112592752 944980935 -931985371 563111032 -1628190568 -520738680 680265357 919272152 -1043509388 -273824973 1253253429 875888697 -1587741565 1521328482 -845035517 1868876322 -1543423459 606651004 -475989660 -2094154716 1619966790 1897938150 959916554 1783642861
REM
CELL 1.54180   50.00000   50.00000   50.00000   90.00000   90.00000   90.00000
LATT -1
SFAC C  
C      1  0.5537330000000  0.4669030000000  0.5042760000000 1.0
C      1  0.4357390000000  0.4680940000000  0.4953470000000 1.0
C      1  0.5105520000000  0.4775050000000  0.5069740000000 1.0
C      1  0.4855490000000  0.4702260000000  0.4914490000000 1.0
C      1  0.4785330000000  0.5076820000000  0.5097100000000 1.0
C      1  0.5236520000000  0.5021050000000  0.4982090000000 1.0
C      1  0.4610820000000  0.4668910000000  0.5123250000000 1.0
C      1  0.5301770000000  0.4610080000000  0.5221610000000 1.0
C      1  0.5263670000000  0.4955910000000  0.4312070000000 1.0
C      1  0.4987980000000  0.4998380000000  0.4341650000000 1.0
C      1  0.5222000000000  0.5796860000000  0.4789890000000 1.0
C      1  0.4833320000000  0.5788940000000  0.4813840000000 1.0
C      1  0.4450380000000  0.5026680000000  0.4494820000000 1.0
C      1  0.5648280000000  0.4948770000000  0.4555510000000 1.0
C      1  0.5617270000000  0.4971290000000  0.5042260000000 1.0
C      1  0.4261390000000  0.4941490000000  0.4906940000000 1.0
C      1  0.5124660000000  0.4214150000000  0.4964440000000 1.0
C      1  0.4682980000000  0.4216570000000  0.4992010000000 1.0
C      1  0.4506220000000  0.5303220000000  0.5616380000000 1.0
C      1  0.5396350000000  0.5580600000000  0.5453880000000 1.0
C      1  0.5630600000000  0.5535520000000  0.5031060000000 1.0
C      1  0.4522870000000  0.5358550000000  0.5152800000000 1.0
C      1  0.4669540000000  0.4390570000000  0.5236680000000 1.0
C      1  0.5182400000000  0.4327970000000  0.5233640000000 1.0
C      1  0.4372540000000  0.5136760000000  0.4739000000000 1.0
C      1  0.5604210000000  0.5121070000000  0.4774830000000 1.0
C      1  0.5586080000000  0.5427350000000  0.4774820000000 1.0
C      1  0.4574420000000  0.5313680000000  0.4866990000000 1.0
C      1  0.5174650000000  0.5464360000000  0.5574970000000 1.0
C      1  0.4767800000000  0.5339080000000  0.5713950000000 1.0
C      1  0.5385620000000  0.5023160000000  0.5502840000000 1.0
C      1  0.4793360000000  0.4855820000000  0.5574400000000 1.0
C      1  0.4628900000000  0.4925340000000  0.5329720000000 1.0
C      1  0.5540820000000  0.5136180000000  0.5281160000000 1.0
C      1  0.4457890000000  0.5179520000000  0.5369630000000 1.0
C      1  0.5546740000000  0.5427850000000  0.5272170000000 1.0
C      1  0.4983350000000  0.4630630000000  0.5559150000000 1.0
C      1  0.5329180000000  0.4732090000000  0.5495730000000 1.0
C      1  0.5135000000000  0.4466760000000  0.4771900000000 1.0
C      1  0.4687940000000  0.4386510000000  0.4761420000000 1.0
C      1  0.4606690000000  0.4802690000000  0.4562960000000 1.0
C      1  0.5537910000000  0.4686610000000  0.4538320000000 1.0
C      1  0.4857470000000  0.4760510000000  0.4424760000000 1.0
C      1  0.5314450000000  0.4673510000000  0.4348680000000 1.0
C      1  0.4486280000000  0.4581180000000  0.4704830000000 1.0
C      1  0.5433910000000  0.4564650000000  0.4784680000000 1.0
C      1  0.4701000000000  0.5548060000000  0.4692640000000 1.0
C      1  0.5343280000000  0.5562510000000  0.4644590000000 1.0
C      1  0.5138530000000  0.5191870000000  0.5483460000000 1.0
C      1  0.4929400000000  0.5096820000000  0.5671700000000 1.0
C      1  0.5055290000000  0.5204760000000  0.5159020000000 1.0
C      1  0.5064520000000  0.4545720000000  0.4474150000000 1.0
C      1  0.5109020000000  0.5373090000000  0.4675850000000 1.0
C      1  0.4882500000000  0.5440230000000  0.4500380000000 1.0
C      1  0.5030810000000  0.5422570000000  0.4963180000000 1.0
C      1  0.5039210000000  0.5711780000000  0.5003270000000 1.0
C      1  0.4929040000000  0.4383080000000  0.5399140000000 1.0
C      1  0.5185310000000  0.5083530000000  0.4662220000000 1.0
C      1  0.4901350000000  0.4039090000000  0.4985360000000 1.0
C      1  0.4929400000000  0.5570520000000  0.5666430000000 1.0
END
