TITL C-38194-9318-87 7.56407188064747e-06 125000 -364.055430524613 0 0 60 (C2) n - 1
REM
REM in /home/bkarasulu/CARBON/AIRSS/Generating-Clusters/EDIP-Nigel-Params/Higher-Symm/Box-15A/Only-C60/SD-CG/FIRE-HFTN
REM
REM
REM
REM
REM
REM ./C.cell (414f73aa93bd7a1190c7fd0f31ff2f98)
REM
REM compiler GCC version 9.2.1 20190827 (Red Hat 9.2.1-1)
REM options -cpp -mtune=generic -march=x86-64 -g -O0 -fpre-include=/usr/include/finclude/math-vector-fortran.h
REM seed -955177279 -1833943666 1765323453 447219242 714969664 -1168228505 -165451112 -1098348366 -1861194307 77474026 -1330757600 -265341867 -128558537 -1627106892 1966645194 -1320641154 -1345208041 -1673213332 38200510 -1953064555 688814036 328957605 -105925271 -2081327772 977313003 -783415220 -1159564284 -1494581117 -109940319 1000772932 2126149399 2118711541 -937212375
REM
CELL 1.54180   50.00000   50.00000   50.00000   90.00000   90.00000   90.00000
LATT -1
SFAC C  
C      1  0.4928490000000  0.4208490000000  0.5078180000000 1.0
C      1  0.5071510000000  0.5791510000000  0.5078180000000 1.0
C      1  0.4382580000000  0.5125390000000  0.5295050000000 1.0
C      1  0.5617420000000  0.4874610000000  0.5295050000000 1.0
C      1  0.5267610000000  0.4938720000000  0.4496760000000 1.0
C      1  0.4732390000000  0.5061280000000  0.4496760000000 1.0
C      1  0.4327090000000  0.5246550000000  0.5033850000000 1.0
C      1  0.5672910000000  0.4753450000000  0.5033850000000 1.0
C      1  0.5517470000000  0.5153690000000  0.5250640000000 1.0
C      1  0.4482530000000  0.4846310000000  0.5250640000000 1.0
C      1  0.5393470000000  0.5536780000000  0.4806190000000 1.0
C      1  0.4606530000000  0.4463220000000  0.4806190000000 1.0
C      1  0.5334100000000  0.4464940000000  0.5253150000000 1.0
C      1  0.4665900000000  0.5535060000000  0.5253150000000 1.0
C      1  0.5171500000000  0.4813430000000  0.4907510000000 1.0
C      1  0.4828500000000  0.5186570000000  0.4907510000000 1.0
C      1  0.4973700000000  0.5572630000000  0.5234000000000 1.0
C      1  0.5026300000000  0.4427370000000  0.5234000000000 1.0
C      1  0.4931370000000  0.5264860000000  0.4484040000000 1.0
C      1  0.5068630000000  0.4735140000000  0.4484040000000 1.0
C      1  0.4336460000000  0.5045820000000  0.4815040000000 1.0
C      1  0.5663540000000  0.4954180000000  0.4815040000000 1.0
C      1  0.5083850000000  0.4883920000000  0.5291780000000 1.0
C      1  0.4916150000000  0.5116080000000  0.5291780000000 1.0
C      1  0.4606730000000  0.4607710000000  0.4571360000000 1.0
C      1  0.5393270000000  0.5392290000000  0.4571360000000 1.0
C      1  0.5320360000000  0.5068780000000  0.5683120000000 1.0
C      1  0.4679640000000  0.4931220000000  0.5683120000000 1.0
C      1  0.5524650000000  0.4821080000000  0.4568010000000 1.0
C      1  0.4475350000000  0.5178920000000  0.4568010000000 1.0
C      1  0.4781650000000  0.5166960000000  0.5560490000000 1.0
C      1  0.5218350000000  0.4833040000000  0.5560490000000 1.0
C      1  0.4493560000000  0.5620450000000  0.4805860000000 1.0
C      1  0.5506440000000  0.4379550000000  0.4805860000000 1.0
C      1  0.4891700000000  0.4696940000000  0.5163350000000 1.0
C      1  0.5108300000000  0.5303060000000  0.5163350000000 1.0
C      1  0.5114000000000  0.5687670000000  0.5453720000000 1.0
C      1  0.4886000000000  0.4312330000000  0.5453720000000 1.0
C      1  0.4825060000000  0.4271090000000  0.4820340000000 1.0
C      1  0.5174940000000  0.5728910000000  0.4820340000000 1.0
C      1  0.4537940000000  0.5487350000000  0.4561230000000 1.0
C      1  0.5462060000000  0.4512650000000  0.4561230000000 1.0
C      1  0.5517870000000  0.5201020000000  0.4943700000000 1.0
C      1  0.4482130000000  0.4798980000000  0.4943700000000 1.0
C      1  0.4979190000000  0.5721040000000  0.4618070000000 1.0
C      1  0.5020810000000  0.4278960000000  0.4618070000000 1.0
C      1  0.5176450000000  0.4472760000000  0.4487430000000 1.0
C      1  0.4823550000000  0.5527240000000  0.4487430000000 1.0
C      1  0.4783730000000  0.4855450000000  0.4888110000000 1.0
C      1  0.5216270000000  0.5144550000000  0.4888110000000 1.0
C      1  0.5211920000000  0.5214780000000  0.4458060000000 1.0
C      1  0.4788080000000  0.4785220000000  0.4458060000000 1.0
C      1  0.5427670000000  0.4588980000000  0.4995070000000 1.0
C      1  0.4572330000000  0.5411020000000  0.4995070000000 1.0
C      1  0.4560890000000  0.5328070000000  0.5449250000000 1.0
C      1  0.5439110000000  0.4671930000000  0.5449250000000 1.0
C      1  0.5323390000000  0.5530390000000  0.5531540000000 1.0
C      1  0.4676610000000  0.4469610000000  0.5531540000000 1.0
C      1  0.4604680000000  0.4735680000000  0.5495120000000 1.0
C      1  0.5395320000000  0.5264320000000  0.5495120000000 1.0
END
