TITL C-38192-7909-549 -1.80562257179219e-06 125000 -359.482247447867 0 0 60 (Ci) n - 1
REM
REM in /home/bkarasulu/CARBON/AIRSS/Generating-Clusters/EDIP-Nigel-Params/Higher-Symm/Box-15A/Only-C60/SD-CG/FIRE-HFTN
REM
REM
REM
REM
REM
REM ./C.cell (414f73aa93bd7a1190c7fd0f31ff2f98)
REM
REM compiler GCC version 9.2.1 20190827 (Red Hat 9.2.1-1)
REM options -cpp -mtune=generic -march=x86-64 -g -O0 -fpre-include=/usr/include/finclude/math-vector-fortran.h
REM seed -497295001 -373110127 2132913119 57301031 1208913494 -603404230 -1508611261 -949350290 1080937493 906258753 1994022336 1772111279 -1845694158 -204533936 1015660283 1099304436 -1593176711 1877730988 -1096209038 -601157604 1739075833 1551992380 1875668435 338512169 900127952 -671873802 -909805812 2011230358 -1346913188 -1600501616 -1495152208 -126991251 -2101247624
REM
CELL 1.54180   50.00000   50.00000   50.00000   90.00000   90.00000   90.00000
LATT -1
SFAC C  
C      1  0.5785490000000  0.4956740000000  0.5109990000000 1.0
C      1  0.4209090000000  0.4767090000000  0.4981000000000 1.0
C      1  0.5780560000000  0.4897850000000  0.4825650000000 1.0
C      1  0.4214510000000  0.5043260000000  0.4890010000000 1.0
C      1  0.5790910000000  0.5232910000000  0.5019000000000 1.0
C      1  0.4219440000000  0.5102150000000  0.5174350000000 1.0
C      1  0.5056460000000  0.4791490000000  0.4821400000000 1.0
C      1  0.4928370000000  0.5057040000000  0.4734580000000 1.0
C      1  0.5073130000000  0.5268720000000  0.4905090000000 1.0
C      1  0.4943540000000  0.5208510000000  0.5178600000000 1.0
C      1  0.5071630000000  0.4942960000000  0.5265420000000 1.0
C      1  0.4926870000000  0.4731280000000  0.5094910000000 1.0
C      1  0.4580970000000  0.4474420000000  0.4842480000000 1.0
C      1  0.5419310000000  0.4862600000000  0.4473610000000 1.0
C      1  0.4595240000000  0.5403380000000  0.4598920000000 1.0
C      1  0.5419030000000  0.5525580000000  0.5157520000000 1.0
C      1  0.4580690000000  0.5137400000000  0.5526390000000 1.0
C      1  0.5404760000000  0.4596620000000  0.5401080000000 1.0
C      1  0.5083910000000  0.4772850000000  0.4112780000000 1.0
C      1  0.4965140000000  0.5638700000000  0.4363620000000 1.0
C      1  0.5118400000000  0.5905460000000  0.5290530000000 1.0
C      1  0.4916090000000  0.5227150000000  0.5887220000000 1.0
C      1  0.5034860000000  0.4361300000000  0.5636380000000 1.0
C      1  0.4881600000000  0.4094540000000  0.4709470000000 1.0
C      1  0.4665280000000  0.4675210000000  0.4642820000000 1.0
C      1  0.5318730000000  0.5137900000000  0.4527050000000 1.0
C      1  0.4685030000000  0.5478350000000  0.4874770000000 1.0
C      1  0.5334720000000  0.5324790000000  0.5357180000000 1.0
C      1  0.4681270000000  0.4862100000000  0.5472950000000 1.0
C      1  0.5314970000000  0.4521650000000  0.5125230000000 1.0
C      1  0.5369430000000  0.5035800000000  0.5229480000000 1.0
C      1  0.4649570000000  0.4801350000000  0.5178340000000 1.0
C      1  0.5341880000000  0.4772440000000  0.4941200000000 1.0
C      1  0.4630570000000  0.4964200000000  0.4770520000000 1.0
C      1  0.5350430000000  0.5198650000000  0.4821660000000 1.0
C      1  0.4658120000000  0.5227560000000  0.5058800000000 1.0
C      1  0.5548700000000  0.4757520000000  0.4726180000000 1.0
C      1  0.4451430000000  0.5143960000000  0.4617880000000 1.0
C      1  0.5553660000000  0.5379620000000  0.4931810000000 1.0
C      1  0.4451300000000  0.5242480000000  0.5273820000000 1.0
C      1  0.5548570000000  0.4856040000000  0.5382120000000 1.0
C      1  0.4446340000000  0.4620380000000  0.5068190000000 1.0
C      1  0.4989030000000  0.4247850000000  0.5398660000000 1.0
C      1  0.5047370000000  0.4313290000000  0.4657100000000 1.0
C      1  0.4920490000000  0.4945120000000  0.4247420000000 1.0
C      1  0.5010970000000  0.5752150000000  0.4601340000000 1.0
C      1  0.4952630000000  0.5686710000000  0.5342900000000 1.0
C      1  0.5079510000000  0.5054880000000  0.5752580000000 1.0
C      1  0.5004100000000  0.5140760000000  0.4450250000000 1.0
C      1  0.4957420000000  0.5639500000000  0.4855150000000 1.0
C      1  0.5019910000000  0.5402670000000  0.5406230000000 1.0
C      1  0.4995900000000  0.4859240000000  0.5549750000000 1.0
C      1  0.5042580000000  0.4360500000000  0.5144850000000 1.0
C      1  0.4980090000000  0.4597330000000  0.4593770000000 1.0
C      1  0.5165130000000  0.4605840000000  0.5591250000000 1.0
C      1  0.4818600000000  0.4288530000000  0.4918460000000 1.0
C      1  0.5189090000000  0.4688870000000  0.4367450000000 1.0
C      1  0.4834870000000  0.5394160000000  0.4408750000000 1.0
C      1  0.5181400000000  0.5711470000000  0.5081540000000 1.0
C      1  0.4810910000000  0.5311130000000  0.5632550000000 1.0
END
