TITL C-38187-2739-17 0.000107109332480667 125000 -367.052144691114 0 0 60 (C3) n - 1
REM
REM in /home/bkarasulu/CARBON/AIRSS/Generating-Clusters/EDIP-Nigel-Params/Higher-Symm/Box-15A/Only-C60/SD-CG/FIRE-HFTN
REM
REM
REM
REM
REM
REM ./C.cell (414f73aa93bd7a1190c7fd0f31ff2f98)
REM
REM compiler GCC version 9.2.1 20190827 (Red Hat 9.2.1-1)
REM options -cpp -mtune=generic -march=x86-64 -g -O0 -fpre-include=/usr/include/finclude/math-vector-fortran.h
REM seed -1278160364 -90289988 1980184663 262443932 1982403908 -784802759 884410198 -320112320 1111438557 1382357374 -1639587902 -1728799561 2530623 1817262677 -1452720363 -696212362 372947468 -330912501 871755557 -1138092653 -1192362411 -1400299799 1086017270 1141985054 -983831865 -756787287 7648354 -1048618456 484975648 1277372249 1006242679 701521585 1163073887
REM
CELL 1.54180   50.00000   50.00000   50.00000   90.00000   90.00000   90.00000
LATT -1
SFAC C  
C      1  0.5121820000000  0.4581730000000  0.4322600000000 1.0
C      1  0.5301320000000  0.5314630000000  0.4322600000000 1.0
C      1  0.4576860000000  0.5103640000000  0.4322600000000 1.0
C      1  0.5354390000000  0.5676850000000  0.4926330000000 1.0
C      1  0.4236640000000  0.4968480000000  0.4926330000000 1.0
C      1  0.5408970000000  0.4354670000000  0.4926330000000 1.0
C      1  0.4697250000000  0.5134640000000  0.5072470000000 1.0
C      1  0.5034770000000  0.4670490000000  0.5072470000000 1.0
C      1  0.5267980000000  0.5194870000000  0.5072470000000 1.0
C      1  0.5200920000000  0.4307030000000  0.4718500000000 1.0
C      1  0.5499660000000  0.5520490000000  0.4718500000000 1.0
C      1  0.4299410000000  0.5172480000000  0.4718500000000 1.0
C      1  0.4455990000000  0.4972930000000  0.5141910000000 1.0
C      1  0.5295450000000  0.4542410000000  0.5141910000000 1.0
C      1  0.5248560000000  0.5484660000000  0.5141910000000 1.0
C      1  0.4732630000000  0.4882220000000  0.5687720000000 1.0
C      1  0.5235690000000  0.4827340000000  0.5687720000000 1.0
C      1  0.5031680000000  0.5290440000000  0.5687720000000 1.0
C      1  0.4958490000000  0.4186630000000  0.4790580000000 1.0
C      1  0.5725160000000  0.5370740000000  0.4790580000000 1.0
C      1  0.4316350000000  0.5442640000000  0.4790580000000 1.0
C      1  0.4833710000000  0.4554310000000  0.5259590000000 1.0
C      1  0.5469120000000  0.5078830000000  0.5259590000000 1.0
C      1  0.4697170000000  0.5366850000000  0.5259590000000 1.0
C      1  0.5468910000000  0.4688640000000  0.4644160000000 1.0
C      1  0.5035190000000  0.5561770000000  0.4644160000000 1.0
C      1  0.4495900000000  0.4749590000000  0.4644160000000 1.0
C      1  0.4804170000000  0.5133350000000  0.4787870000000 1.0
C      1  0.4982430000000  0.4763730000000  0.4787870000000 1.0
C      1  0.5213400000000  0.5102920000000  0.4787870000000 1.0
C      1  0.5430470000000  0.4655680000000  0.5543660000000 1.0
C      1  0.5082950000000  0.5544960000000  0.5543660000000 1.0
C      1  0.4486580000000  0.4799360000000  0.5543660000000 1.0
C      1  0.5157240000000  0.5078730000000  0.4283480000000 1.0
C      1  0.4853200000000  0.5096810000000  0.4283480000000 1.0
C      1  0.4989560000000  0.4824460000000  0.4283480000000 1.0
C      1  0.4556260000000  0.4654340000000  0.5290340000000 1.0
C      1  0.5521220000000  0.4788540000000  0.5290340000000 1.0
C      1  0.4922520000000  0.5557120000000  0.5290340000000 1.0
C      1  0.4737600000000  0.4330750000000  0.4736780000000 1.0
C      1  0.5710790000000  0.5107380000000  0.4736780000000 1.0
C      1  0.4551610000000  0.5561880000000  0.4736780000000 1.0
C      1  0.4969990000000  0.4464610000000  0.5516560000000 1.0
C      1  0.5478670000000  0.5241710000000  0.5516560000000 1.0
C      1  0.4551340000000  0.5293680000000  0.5516560000000 1.0
C      1  0.5132350000000  0.5787630000000  0.4785950000000 1.0
C      1  0.4251720000000  0.4720800000000  0.4785950000000 1.0
C      1  0.5615930000000  0.4491570000000  0.4785950000000 1.0
C      1  0.4366180000000  0.5062670000000  0.5435710000000 1.0
C      1  0.5262640000000  0.4419760000000  0.5435710000000 1.0
C      1  0.5371180000000  0.5517570000000  0.5435710000000 1.0
C      1  0.4723850000000  0.4609120000000  0.4744610000000 1.0
C      1  0.5476590000000  0.4956280000000  0.4744610000000 1.0
C      1  0.4799560000000  0.5434600000000  0.4744610000000 1.0
C      1  0.4969530000000  0.4701100000000  0.5704980000000 1.0
C      1  0.5274090000000  0.5123060000000  0.5704980000000 1.0
C      1  0.4756380000000  0.5175840000000  0.5704980000000 1.0
C      1  0.5189250000000  0.4590580000000  0.4606200000000 1.0
C      1  0.5259950000000  0.5368600000000  0.4606200000000 1.0
C      1  0.4550810000000  0.5040820000000  0.4606200000000 1.0
END
