TITL C-38186-4112-475 -1.78920345078033e-05 125000 -359.67942877448 0 0 60 (C3) n - 1
REM
REM in /home/bkarasulu/CARBON/AIRSS/Generating-Clusters/EDIP-Nigel-Params/Higher-Symm/Box-15A/Only-C60/SD-CG/FIRE-HFTN
REM
REM
REM
REM
REM
REM ./C.cell (414f73aa93bd7a1190c7fd0f31ff2f98)
REM
REM compiler GCC version 9.2.1 20190827 (Red Hat 9.2.1-1)
REM options -cpp -mtune=generic -march=x86-64 -g -O0 -fpre-include=/usr/include/finclude/math-vector-fortran.h
REM seed -1515280966 -175287535 1203722743 1042871360 956139535 -1964983932 -847597242 -1684870573 1397308769 158678881 1052642054 -1007613349 -1419143823 681950393 -364309911 1918624413 -789191883 655925488 -1969277938 -586955305 329149525 1207530690 -1681325592 817299962 327618707 1587711784 38556400 -686479925 -609112361 -1042400 128513058 1061281827 -1145233354
REM
CELL 1.54180   50.00000   50.00000   50.00000   90.00000   90.00000   90.00000
LATT -1
SFAC C  
C      1  0.5569110000000  0.4923850000000  0.5369740000000 1.0
C      1  0.5035650000000  0.4923850000000  0.4322270000000 1.0
C      1  0.4395240000000  0.4923850000000  0.5307990000000 1.0
C      1  0.4819850000000  0.5154450000000  0.5516960000000 1.0
C      1  0.5537780000000  0.5154450000000  0.4897540000000 1.0
C      1  0.4642370000000  0.5154450000000  0.4585500000000 1.0
C      1  0.5200420000000  0.5170040000000  0.4325550000000 1.0
C      1  0.4315700000000  0.5170040000000  0.5163650000000 1.0
C      1  0.5483880000000  0.5170040000000  0.5510790000000 1.0
C      1  0.4802480000000  0.4549920000000  0.4839160000000 1.0
C      1  0.4959470000000  0.4549920000000  0.5251480000000 1.0
C      1  0.5238050000000  0.4549920000000  0.4909360000000 1.0
C      1  0.4587710000000  0.4933400000000  0.5540870000000 1.0
C      1  0.5674550000000  0.4933400000000  0.5086620000000 1.0
C      1  0.4737740000000  0.4933400000000  0.4372510000000 1.0
C      1  0.5195140000000  0.4723570000000  0.4459470000000 1.0
C      1  0.4434320000000  0.4723570000000  0.5101270000000 1.0
C      1  0.5370550000000  0.4723570000000  0.5439260000000 1.0
C      1  0.4633600000000  0.4343200000000  0.4912210000000 1.0
C      1  0.5107170000000  0.4343200000000  0.5361200000000 1.0
C      1  0.5259220000000  0.4343200000000  0.4726590000000 1.0
C      1  0.5111300000000  0.5546830000000  0.5256450000000 1.0
C      1  0.5166440000000  0.5546830000000  0.4775390000000 1.0
C      1  0.4722260000000  0.5546830000000  0.4968170000000 1.0
C      1  0.5064450000000  0.5413100000000  0.4303330000000 1.0
C      1  0.4364440000000  0.5413100000000  0.5292520000000 1.0
C      1  0.5571110000000  0.5413100000000  0.5404150000000 1.0
C      1  0.5583270000000  0.5576970000000  0.5178670000000 1.0
C      1  0.4863100000000  0.5576970000000  0.4405540000000 1.0
C      1  0.4553640000000  0.5576970000000  0.5415790000000 1.0
C      1  0.5465910000000  0.4822640000000  0.4507480000000 1.0
C      1  0.4340510000000  0.4822640000000  0.4842770000000 1.0
C      1  0.5193580000000  0.4822640000000  0.5649750000000 1.0
C      1  0.4953600000000  0.4701560000000  0.5724850000000 1.0
C      1  0.5650940000000  0.4701560000000  0.4677760000000 1.0
C      1  0.4395460000000  0.4701560000000  0.4597390000000 1.0
C      1  0.5098780000000  0.4449100000000  0.4501880000000 1.0
C      1  0.4519220000000  0.4449100000000  0.5163510000000 1.0
C      1  0.5382000000000  0.4449100000000  0.5334610000000 1.0
C      1  0.4698710000000  0.4663150000000  0.5612980000000 1.0
C      1  0.5681500000000  0.4663150000000  0.4954430000000 1.0
C      1  0.4619790000000  0.4663150000000  0.4432590000000 1.0
C      1  0.5257260000000  0.5136070000000  0.4995050000000 1.0
C      1  0.4867090000000  0.5136070000000  0.4779680000000 1.0
C      1  0.4875660000000  0.5136070000000  0.5225270000000 1.0
C      1  0.4813460000000  0.5641150000000  0.5239540000000 1.0
C      1  0.5300720000000  0.5641150000000  0.5041780000000 1.0
C      1  0.4885820000000  0.5641150000000  0.4718680000000 1.0
C      1  0.4748270000000  0.5437360000000  0.5566030000000 1.0
C      1  0.5616060000000  0.5437360000000  0.4934990000000 1.0
C      1  0.4635670000000  0.5437360000000  0.4498980000000 1.0
C      1  0.4731410000000  0.4452170000000  0.5391650000000 1.0
C      1  0.5473470000000  0.4452170000000  0.5036780000000 1.0
C      1  0.4795120000000  0.4452170000000  0.4571570000000 1.0
C      1  0.4371600000000  0.5114240000000  0.4864370000000 1.0
C      1  0.5196740000000  0.5114240000000  0.5612020000000 1.0
C      1  0.5431650000000  0.5114240000000  0.4523610000000 1.0
C      1  0.5145210000000  0.5247240000000  0.4750990000000 1.0
C      1  0.4711750000000  0.5247240000000  0.4998750000000 1.0
C      1  0.5143040000000  0.5247240000000  0.5250260000000 1.0
END
