TITL C-38197-8510-15 4.40685490489983e-06 125000 -369.240243752894 0 0 60 (C1) n - 1
REM
REM in /home/bkarasulu/CARBON/AIRSS/Generating-Clusters/EDIP-Nigel-Params/Higher-Symm/Box-15A/Only-C60/SD-CG/FIRE-HFTN
REM
REM
REM
REM
REM
REM ./C.cell (414f73aa93bd7a1190c7fd0f31ff2f98)
REM
REM compiler GCC version 9.2.1 20190827 (Red Hat 9.2.1-1)
REM options -cpp -mtune=generic -march=x86-64 -g -O0 -fpre-include=/usr/include/finclude/math-vector-fortran.h
REM seed 436675268 -1576279550 -413534103 -2006717822 -360361154 1662649186 -1017442732 -1844028228 -49402662 29212085 415412017 -723882940 1534545319 878342560 -881988754 796687885 -760715962 780124391 -416217846 -702655569 995053419 -121450549 1115430533 1466901955 -883807062 -428263083 -1900319988 -1699143318 -1526254197 -1497384546 1254188495 -1078636073 -1992913811
REM
CELL 1.54180   50.00000   50.00000   50.00000   90.00000   90.00000   90.00000
LATT -1
SFAC C  
C      1  0.4840380000000  0.5418970000000  0.4613370000000 1.0
C      1  0.4843330000000  0.5124680000000  0.5557790000000 1.0
C      1  0.4840020000000  0.4458680000000  0.4820740000000 1.0
C      1  0.5159150000000  0.5425670000000  0.4620630000000 1.0
C      1  0.5163020000000  0.5117350000000  0.5558240000000 1.0
C      1  0.5159040000000  0.4454610000000  0.4831070000000 1.0
C      1  0.5269910000000  0.5630740000000  0.5101100000000 1.0
C      1  0.5265600000000  0.4593000000000  0.5495340000000 1.0
C      1  0.5279790000000  0.4789880000000  0.4391930000000 1.0
C      1  0.4724650000000  0.5631940000000  0.5121730000000 1.0
C      1  0.4719690000000  0.4579790000000  0.5486090000000 1.0
C      1  0.4733960000000  0.4773610000000  0.4402040000000 1.0
C      1  0.5254870000000  0.5207340000000  0.4811800000000 1.0
C      1  0.5256540000000  0.5057670000000  0.5272970000000 1.0
C      1  0.5255410000000  0.4733110000000  0.4910490000000 1.0
C      1  0.4744040000000  0.5210390000000  0.4814810000000 1.0
C      1  0.4745450000000  0.5056830000000  0.5276670000000 1.0
C      1  0.4744580000000  0.4733880000000  0.4914730000000 1.0
C      1  0.4847870000000  0.5271820000000  0.5084190000000 1.0
C      1  0.4848790000000  0.4791990000000  0.5195100000000 1.0
C      1  0.4849810000000  0.4936880000000  0.4728400000000 1.0
C      1  0.5149290000000  0.5267870000000  0.5080870000000 1.0
C      1  0.5150380000000  0.4795010000000  0.5191210000000 1.0
C      1  0.5151300000000  0.4935260000000  0.4721690000000 1.0
C      1  0.4386030000000  0.4923410000000  0.5264680000000 1.0
C      1  0.4386060000000  0.4812500000000  0.4802880000000 1.0
C      1  0.4385230000000  0.5267980000000  0.4937120000000 1.0
C      1  0.5614990000000  0.4921670000000  0.5261490000000 1.0
C      1  0.5614520000000  0.4809420000000  0.4799950000000 1.0
C      1  0.5613910000000  0.5265100000000  0.4933990000000 1.0
C      1  0.4845390000000  0.4371930000000  0.5323700000000 1.0
C      1  0.4852900000000  0.5024600000000  0.4298150000000 1.0
C      1  0.4854110000000  0.5595730000000  0.5381100000000 1.0
C      1  0.5145570000000  0.4378410000000  0.5329870000000 1.0
C      1  0.5153020000000  0.5034040000000  0.4293660000000 1.0
C      1  0.5154290000000  0.5596210000000  0.5372060000000 1.0
C      1  0.4693520000000  0.4322940000000  0.5071270000000 1.0
C      1  0.4698880000000  0.5267340000000  0.4378010000000 1.0
C      1  0.4702530000000  0.5402750000000  0.5550210000000 1.0
C      1  0.5299750000000  0.4326270000000  0.5079890000000 1.0
C      1  0.5304710000000  0.5277300000000  0.4377340000000 1.0
C      1  0.5308640000000  0.5405020000000  0.5542370000000 1.0
C      1  0.4337060000000  0.5202340000000  0.5215200000000 1.0
C      1  0.4334740000000  0.4716910000000  0.5068260000000 1.0
C      1  0.4335210000000  0.5084780000000  0.4721190000000 1.0
C      1  0.5666410000000  0.5199030000000  0.5209970000000 1.0
C      1  0.5664080000000  0.4714100000000  0.5066650000000 1.0
C      1  0.5664440000000  0.5082890000000  0.4718610000000 1.0
C      1  0.4869550000000  0.4529920000000  0.4502310000000 1.0
C      1  0.4846420000000  0.5701280000000  0.4872350000000 1.0
C      1  0.4843630000000  0.4760590000000  0.5670810000000 1.0
C      1  0.5156460000000  0.4540060000000  0.4457640000000 1.0
C      1  0.5132930000000  0.5665810000000  0.4840160000000 1.0
C      1  0.5131440000000  0.4801960000000  0.5656520000000 1.0
C      1  0.5558570000000  0.5365060000000  0.5411990000000 1.0
C      1  0.5551650000000  0.4457460000000  0.5110880000000 1.0
C      1  0.5554350000000  0.5178960000000  0.4475420000000 1.0
C      1  0.4450900000000  0.5366070000000  0.5418030000000 1.0
C      1  0.4444170000000  0.4457930000000  0.5106540000000 1.0
C      1  0.4447060000000  0.5175280000000  0.4476720000000 1.0
END
