TITL C-38193-7935-198 6.94528211147808e-06 125000 -370.428265175314 0 0 60 (C1) n - 1
REM
REM in /home/bkarasulu/CARBON/AIRSS/Generating-Clusters/EDIP-Nigel-Params/Higher-Symm/Box-15A/Only-C60/SD-CG/FIRE-HFTN
REM
REM
REM
REM
REM
REM ./C.cell (414f73aa93bd7a1190c7fd0f31ff2f98)
REM
REM compiler GCC version 9.2.1 20190827 (Red Hat 9.2.1-1)
REM options -cpp -mtune=generic -march=x86-64 -g -O0 -fpre-include=/usr/include/finclude/math-vector-fortran.h
REM seed -1959919859 -730146980 491621665 -1457789178 1988350465 1960815933 -1912800070 1759354557 1428593969 -2091999267 38860797 1088712069 -1639403285 2045035471 937551503 -299879495 -1431052990 -1456417297 254389149 -522141938 -268225549 -2095644419 1100176386 381833214 476783571 -2068850129 1957939873 1967734520 -1093912170 971228636 1799696339 -161870137 2093707157
REM
CELL 1.54180   50.00000   50.00000   50.00000   90.00000   90.00000   90.00000
LATT -1
SFAC C  
C      1  0.5535820000000  0.4887780000000  0.4897240000000 1.0
C      1  0.5274090000000  0.5476380000000  0.4897140000000 1.0
C      1  0.4633440000000  0.5407920000000  0.4901080000000 1.0
C      1  0.4505100000000  0.4783630000000  0.4901140000000 1.0
C      1  0.5052980000000  0.4464190000000  0.4886950000000 1.0
C      1  0.4382090000000  0.5041140000000  0.4637340000000 1.0
C      1  0.4768570000000  0.4416560000000  0.4628220000000 1.0
C      1  0.5483180000000  0.4616000000000  0.4631150000000 1.0
C      1  0.5509480000000  0.5321850000000  0.4634500000000 1.0
C      1  0.4842490000000  0.5590980000000  0.4634420000000 1.0
C      1  0.4575580000000  0.4801660000000  0.5417010000000 1.0
C      1  0.5056450000000  0.4538140000000  0.5412710000000 1.0
C      1  0.5456800000000  0.4912340000000  0.5414760000000 1.0
C      1  0.5224270000000  0.5408780000000  0.5416310000000 1.0
C      1  0.4679310000000  0.5341450000000  0.5418950000000 1.0
C      1  0.4643900000000  0.4305890000000  0.4873230000000 1.0
C      1  0.5551510000000  0.4453490000000  0.4871740000000 1.0
C      1  0.5689610000000  0.5351430000000  0.4872580000000 1.0
C      1  0.4876210000000  0.5767150000000  0.4874760000000 1.0
C      1  0.4229320000000  0.5124580000000  0.4877600000000 1.0
C      1  0.5308670000000  0.4350450000000  0.5015020000000 1.0
C      1  0.5720490000000  0.5094000000000  0.5023410000000 1.0
C      1  0.5131880000000  0.5713420000000  0.5023790000000 1.0
C      1  0.4361380000000  0.5348960000000  0.5026710000000 1.0
C      1  0.4472570000000  0.4503980000000  0.5020670000000 1.0
C      1  0.5317140000000  0.4441910000000  0.5307150000000 1.0
C      1  0.5630870000000  0.5131730000000  0.5313320000000 1.0
C      1  0.5069210000000  0.5641210000000  0.5314100000000 1.0
C      1  0.4409880000000  0.5266040000000  0.5316780000000 1.0
C      1  0.4564490000000  0.4522610000000  0.5311920000000 1.0
C      1  0.5250500000000  0.4952870000000  0.5624280000000 1.0
C      1  0.5121410000000  0.5224320000000  0.5625280000000 1.0
C      1  0.4823250000000  0.5185290000000  0.5626740000000 1.0
C      1  0.4768000000000  0.4889380000000  0.5626280000000 1.0
C      1  0.5032390000000  0.4745800000000  0.5623910000000 1.0
C      1  0.4828850000000  0.5183260000000  0.4978270000000 1.0
C      1  0.4776750000000  0.4895840000000  0.4992990000000 1.0
C      1  0.5034870000000  0.4760350000000  0.4967080000000 1.0
C      1  0.5246710000000  0.4960790000000  0.4970570000000 1.0
C      1  0.5119060000000  0.5222830000000  0.4969300000000 1.0
C      1  0.5534540000000  0.5526690000000  0.5062410000000 1.0
C      1  0.4662970000000  0.5673580000000  0.5066040000000 1.0
C      1  0.4258830000000  0.4891660000000  0.5062450000000 1.0
C      1  0.4874950000000  0.4264740000000  0.5057360000000 1.0
C      1  0.5666470000000  0.4654390000000  0.5063640000000 1.0
C      1  0.5232400000000  0.5123480000000  0.4248210000000 1.0
C      1  0.4960320000000  0.5244990000000  0.4273770000000 1.0
C      1  0.4761870000000  0.5022130000000  0.4295100000000 1.0
C      1  0.4909250000000  0.4763530000000  0.4279010000000 1.0
C      1  0.5200950000000  0.4825920000000  0.4266860000000 1.0
C      1  0.4823670000000  0.4377100000000  0.5329460000000 1.0
C      1  0.5537630000000  0.4640250000000  0.5332380000000 1.0
C      1  0.5507950000000  0.5402370000000  0.5333180000000 1.0
C      1  0.4773810000000  0.5609560000000  0.5336310000000 1.0
C      1  0.4349630000000  0.4974620000000  0.5335180000000 1.0
C      1  0.4860040000000  0.4692360000000  0.4572610000000 1.0
C      1  0.5237630000000  0.4778140000000  0.4574430000000 1.0
C      1  0.5273400000000  0.5141990000000  0.4567780000000 1.0
C      1  0.4939420000000  0.5312080000000  0.4576140000000 1.0
C      1  0.4675680000000  0.5034010000000  0.4591320000000 1.0
END
