TITL C-38196-2854-250 -2.19644879724237e-06 125000 -354.979521682487 0 0 60 (C1) n - 1
REM
REM in /home/bkarasulu/CARBON/AIRSS/Generating-Clusters/EDIP-Nigel-Params/Higher-Symm/Box-15A/Only-C60/SD-CG/FIRE-HFTN
REM
REM
REM
REM
REM
REM ./C.cell (414f73aa93bd7a1190c7fd0f31ff2f98)
REM
REM compiler GCC version 9.2.1 20190827 (Red Hat 9.2.1-1)
REM options -cpp -mtune=generic -march=x86-64 -g -O0 -fpre-include=/usr/include/finclude/math-vector-fortran.h
REM seed 243071408 -1754762873 -1279207484 1308820358 172344778 1733278795 1655294179 -628917704 -1654489335 -1402344013 1099860741 -1064771966 -2072406256 479979077 -870217993 -1623393535 -1309142953 -1147516261 -761233931 1271495390 -408660181 -1042635297 383869127 -1098960978 -1437194122 -897590422 -556693144 1524957788 -1962075962 851522522 142291910 1041755956 15659791
REM
CELL 1.54180   50.00000   50.00000   50.00000   90.00000   90.00000   90.00000
LATT -1
SFAC C  
C      1  0.5731670000000  0.5209870000000  0.4662510000000 1.0
C      1  0.4275340000000  0.4765860000000  0.4692110000000 1.0
C      1  0.5739730000000  0.5286280000000  0.5354890000000 1.0
C      1  0.4271770000000  0.4853780000000  0.5365850000000 1.0
C      1  0.5698880000000  0.4744280000000  0.4673270000000 1.0
C      1  0.4277180000000  0.5222810000000  0.4622980000000 1.0
C      1  0.5711130000000  0.4810430000000  0.5357750000000 1.0
C      1  0.4345660000000  0.5319500000000  0.5305700000000 1.0
C      1  0.5026880000000  0.5506860000000  0.5268330000000 1.0
C      1  0.4820930000000  0.4317180000000  0.5206980000000 1.0
C      1  0.5131250000000  0.5568250000000  0.4787490000000 1.0
C      1  0.4849450000000  0.4410980000000  0.4753770000000 1.0
C      1  0.5053550000000  0.4475090000000  0.5229550000000 1.0
C      1  0.4789410000000  0.5634980000000  0.5199410000000 1.0
C      1  0.5121400000000  0.4456560000000  0.4751170000000 1.0
C      1  0.4856890000000  0.5602700000000  0.4738450000000 1.0
C      1  0.5273760000000  0.4817310000000  0.5616030000000 1.0
C      1  0.4811000000000  0.5298680000000  0.5651900000000 1.0
C      1  0.5246370000000  0.4791170000000  0.4278420000000 1.0
C      1  0.4791190000000  0.5227520000000  0.4411360000000 1.0
C      1  0.5281550000000  0.5302810000000  0.5640530000000 1.0
C      1  0.4768610000000  0.4804390000000  0.5637040000000 1.0
C      1  0.5263090000000  0.5259940000000  0.4377060000000 1.0
C      1  0.4785720000000  0.4762390000000  0.4309620000000 1.0
C      1  0.4154880000000  0.5351520000000  0.4828950000000 1.0
C      1  0.5803950000000  0.4628560000000  0.4892660000000 1.0
C      1  0.4148920000000  0.5324860000000  0.5104760000000 1.0
C      1  0.5799950000000  0.4642530000000  0.5165460000000 1.0
C      1  0.4133400000000  0.4714810000000  0.4916040000000 1.0
C      1  0.5667990000000  0.5373170000000  0.4875600000000 1.0
C      1  0.4304890000000  0.4707150000000  0.5132810000000 1.0
C      1  0.5819920000000  0.5370970000000  0.5110540000000 1.0
C      1  0.5022720000000  0.5386120000000  0.4460810000000 1.0
C      1  0.5036070000000  0.4429970000000  0.5513450000000 1.0
C      1  0.5038710000000  0.4594700000000  0.4400360000000 1.0
C      1  0.5044350000000  0.5407050000000  0.5543190000000 1.0
C      1  0.4529700000000  0.5290860000000  0.4971530000000 1.0
C      1  0.4582330000000  0.4714080000000  0.5044770000000 1.0
C      1  0.5429290000000  0.4736970000000  0.5024440000000 1.0
C      1  0.5434400000000  0.5271970000000  0.5038440000000 1.0
C      1  0.4648530000000  0.5070450000000  0.5622060000000 1.0
C      1  0.5361620000000  0.5005150000000  0.4437790000000 1.0
C      1  0.5421440000000  0.5063150000000  0.5647240000000 1.0
C      1  0.4671040000000  0.4979810000000  0.4469360000000 1.0
C      1  0.5241830000000  0.4505760000000  0.5005970000000 1.0
C      1  0.4680280000000  0.5551240000000  0.4956280000000 1.0
C      1  0.4687210000000  0.4433770000000  0.4980450000000 1.0
C      1  0.5226400000000  0.5489380000000  0.5049730000000 1.0
C      1  0.4417910000000  0.5080410000000  0.5439700000000 1.0
C      1  0.4392560000000  0.4979570000000  0.4559340000000 1.0
C      1  0.5626460000000  0.4980030000000  0.4550320000000 1.0
C      1  0.5656160000000  0.5053890000000  0.5478340000000 1.0
C      1  0.4676190000000  0.5009150000000  0.4896210000000 1.0
C      1  0.5322920000000  0.5018930000000  0.4865070000000 1.0
C      1  0.4756440000000  0.4866670000000  0.5256440000000 1.0
C      1  0.5299870000000  0.4933820000000  0.5247530000000 1.0
C      1  0.5000200000000  0.4882060000000  0.4139590000000 1.0
C      1  0.5028580000000  0.4672070000000  0.5672740000000 1.0
C      1  0.4998740000000  0.5032430000000  0.4881990000000 1.0
C      1  0.5011720000000  0.4997300000000  0.5172370000000 1.0
END
