TITL C-38195-9455-401 1.01706224401144e-06 125000 -349.78540550888 0 0 60 (C2) n - 1
REM
REM in /home/bkarasulu/CARBON/AIRSS/Generating-Clusters/EDIP-Nigel-Params/Higher-Symm/Box-15A/Only-C60/SD-CG/FIRE-HFTN
REM
REM
REM
REM
REM
REM ./C.cell (414f73aa93bd7a1190c7fd0f31ff2f98)
REM
REM compiler GCC version 9.2.1 20190827 (Red Hat 9.2.1-1)
REM options -cpp -mtune=generic -march=x86-64 -g -O0 -fpre-include=/usr/include/finclude/math-vector-fortran.h
REM seed -818674167 524123342 1379948524 932506553 -516857677 949724640 1741308901 -1951481789 -1932771103 183224517 1452098558 -37322486 -1049323694 -1807696650 -1540173107 -248257879 1148885886 -1565219351 -421316629 34031722 -179969274 41347337 -1664730069 -874664689 824131240 174669516 -1987679253 755168928 -2056877409 -1239782580 -1459497371 -109816253 1466665959
REM
CELL 1.54180   50.00000   50.00000   50.00000   90.00000   90.00000   90.00000
LATT -1
SFAC C  
C      1  0.4432930000000  0.4868150000000  0.5355980000000 1.0
C      1  0.5159400000000  0.4859230000000  0.5644000000000 1.0
C      1  0.5684670000000  0.4864070000000  0.5047390000000 1.0
C      1  0.5250010000000  0.4866960000000  0.4381690000000 1.0
C      1  0.4494200000000  0.4857880000000  0.4573180000000 1.0
C      1  0.4432930000000  0.5131850000000  0.4644020000000 1.0
C      1  0.5159400000000  0.5140770000000  0.4356000000000 1.0
C      1  0.5684670000000  0.5135930000000  0.4952610000000 1.0
C      1  0.5250010000000  0.5133040000000  0.5618310000000 1.0
C      1  0.4494200000000  0.5142120000000  0.5426820000000 1.0
C      1  0.4730210000000  0.4379840000000  0.4988280000000 1.0
C      1  0.4915270000000  0.4392190000000  0.5236390000000 1.0
C      1  0.5221410000000  0.4389630000000  0.5162790000000 1.0
C      1  0.5234440000000  0.4385920000000  0.4858540000000 1.0
C      1  0.4937140000000  0.4393070000000  0.4757890000000 1.0
C      1  0.4730210000000  0.5620160000000  0.5011720000000 1.0
C      1  0.4915270000000  0.5607810000000  0.4763610000000 1.0
C      1  0.5221410000000  0.5610370000000  0.4837210000000 1.0
C      1  0.5234440000000  0.5614080000000  0.5141460000000 1.0
C      1  0.4937140000000  0.5606930000000  0.5242110000000 1.0
C      1  0.4829930000000  0.5384910000000  0.4514420000000 1.0
C      1  0.4520360000000  0.5383010000000  0.4995980000000 1.0
C      1  0.4851030000000  0.5390130000000  0.5493460000000 1.0
C      1  0.5389220000000  0.5373330000000  0.5275750000000 1.0
C      1  0.5390240000000  0.5371550000000  0.4727100000000 1.0
C      1  0.4829930000000  0.4615090000000  0.5485580000000 1.0
C      1  0.4520360000000  0.4616990000000  0.5004020000000 1.0
C      1  0.4851030000000  0.4609870000000  0.4506540000000 1.0
C      1  0.5389220000000  0.4626670000000  0.4724250000000 1.0
C      1  0.5390240000000  0.4628450000000  0.5272900000000 1.0
C      1  0.5201280000000  0.4838950000000  0.4838160000000 1.0
C      1  0.4914240000000  0.4780710000000  0.4759760000000 1.0
C      1  0.4729420000000  0.4838360000000  0.4998710000000 1.0
C      1  0.4913400000000  0.4780230000000  0.5235220000000 1.0
C      1  0.5200340000000  0.4835540000000  0.5156160000000 1.0
C      1  0.5201280000000  0.5161050000000  0.5161840000000 1.0
C      1  0.4914240000000  0.5219290000000  0.5240240000000 1.0
C      1  0.4729420000000  0.5161640000000  0.5001290000000 1.0
C      1  0.4913400000000  0.5219770000000  0.4764780000000 1.0
C      1  0.5200340000000  0.5164460000000  0.4843840000000 1.0
C      1  0.4342360000000  0.4716740000000  0.4780020000000 1.0
C      1  0.4569960000000  0.4731070000000  0.5575270000000 1.0
C      1  0.5403660000000  0.4718960000000  0.5561810000000 1.0
C      1  0.5671240000000  0.4721110000000  0.4791810000000 1.0
C      1  0.5011550000000  0.4728540000000  0.4283730000000 1.0
C      1  0.4342360000000  0.5283260000000  0.5219980000000 1.0
C      1  0.4569960000000  0.5268930000000  0.4424730000000 1.0
C      1  0.5403660000000  0.5281040000000  0.4438190000000 1.0
C      1  0.5671240000000  0.5278890000000  0.5208190000000 1.0
C      1  0.5011550000000  0.5271460000000  0.5716270000000 1.0
C      1  0.4179260000000  0.5046140000000  0.5135870000000 1.0
C      1  0.4877240000000  0.5033210000000  0.5831480000000 1.0
C      1  0.5749670000000  0.5044820000000  0.5377460000000 1.0
C      1  0.5584780000000  0.5044290000000  0.4405760000000 1.0
C      1  0.4611150000000  0.5029160000000  0.4254350000000 1.0
C      1  0.4179260000000  0.4953860000000  0.4864130000000 1.0
C      1  0.4877240000000  0.4966790000000  0.4168520000000 1.0
C      1  0.5749670000000  0.4955180000000  0.4622540000000 1.0
C      1  0.5584780000000  0.4955710000000  0.5594240000000 1.0
C      1  0.4611150000000  0.4970840000000  0.5745650000000 1.0
END
