TITL C-38187-2739-446 -1.08816416668713e-06 125000 -377.961924413525 0 0 60 (C5) n - 1
REM
REM in /home/bkarasulu/CARBON/AIRSS/Generating-Clusters/EDIP-Nigel-Params/Higher-Symm/Box-15A/Only-C60/SD-CG/FIRE-HFTN
REM
REM
REM
REM
REM
REM ./C.cell (414f73aa93bd7a1190c7fd0f31ff2f98)
REM
REM compiler GCC version 9.2.1 20190827 (Red Hat 9.2.1-1)
REM options -cpp -mtune=generic -march=x86-64 -g -O0 -fpre-include=/usr/include/finclude/math-vector-fortran.h
REM seed 1091325002 974101184 1706630335 -1400894119 -754206899 -1216248817 -139343830 1835236310 87005414 -1879088226 -2094228366 -1788801067 -1862267764 1363968404 -1753579590 77836363 300217051 367383216 -791315364 -1392554672 -1038614119 -277118260 1512711298 -1152991181 519025319 1995024782 550079251 51392103 817943883 -416090720 197240820 -1736977602 -640107258
REM
CELL 1.54180   50.00000   50.00000   50.00000   90.00000   90.00000   90.00000
LATT -1
SFAC C  
C      1  0.5657930000000  0.5114430000000  0.5399880000000 1.0
C      1  0.5094480000000  0.5661090000000  0.5399890000000 1.0
C      1  0.4400460000000  0.5294140000000  0.5399890000000 1.0
C      1  0.4534990000000  0.4520700000000  0.5399880000000 1.0
C      1  0.5312140000000  0.4409640000000  0.5399880000000 1.0
C      1  0.4360690000000  0.5028500000000  0.4974860000000 1.0
C      1  0.4775340000000  0.4400790000000  0.4974860000000 1.0
C      1  0.5500460000000  0.4601170000000  0.4974860000000 1.0
C      1  0.5533970000000  0.5352720000000  0.4974860000000 1.0
C      1  0.4829550000000  0.5616830000000  0.4974860000000 1.0
C      1  0.5262020000000  0.4968730000000  0.5732230000000 1.0
C      1  0.5110710000000  0.5239540000000  0.5732230000000 1.0
C      1  0.4806400000000  0.5179310000000  0.5732230000000 1.0
C      1  0.4769640000000  0.4871280000000  0.5732230000000 1.0
C      1  0.5051230000000  0.4741140000000  0.5732230000000 1.0
C      1  0.5076030000000  0.4543590000000  0.5500350000000 1.0
C      1  0.5457570000000  0.4931270000000  0.5500350000000 1.0
C      1  0.5206770000000  0.5413930000000  0.5500350000000 1.0
C      1  0.4670220000000  0.5324560000000  0.5500350000000 1.0
C      1  0.4589420000000  0.4786650000000  0.5500350000000 1.0
C      1  0.4545120000000  0.4537700000000  0.5110910000000 1.0
C      1  0.5299110000000  0.4424530000000  0.5110910000000 1.0
C      1  0.5639740000000  0.5106640000000  0.5110910000000 1.0
C      1  0.5096270000000  0.5641380000000  0.5110910000000 1.0
C      1  0.4419760000000  0.5289750000000  0.5110910000000 1.0
C      1  0.4822630000000  0.5183840000000  0.4805950000000 1.0
C      1  0.4770350000000  0.4888120000000  0.4805950000000 1.0
C      1  0.5035440000000  0.4747010000000  0.4805950000000 1.0
C      1  0.5251560000000  0.4955530000000  0.4805950000000 1.0
C      1  0.5120030000000  0.5225500000000  0.4805950000000 1.0
C      1  0.5142630000000  0.5209790000000  0.4329660000000 1.0
C      1  0.4844550000000  0.5200480000000  0.4329660000000 1.0
C      1  0.4761300000000  0.4914110000000  0.4329660000000 1.0
C      1  0.5007920000000  0.4746440000000  0.4329660000000 1.0
C      1  0.5243600000000  0.4929180000000  0.4329660000000 1.0
C      1  0.4595320000000  0.4833970000000  0.5043230000000 1.0
C      1  0.5032850000000  0.4563820000000  0.5043230000000 1.0
C      1  0.5424980000000  0.4896460000000  0.5043230000000 1.0
C      1  0.5229800000000  0.5372180000000  0.5043230000000 1.0
C      1  0.4717050000000  0.5333570000000  0.5043230000000 1.0
C      1  0.4430420000000  0.5309870000000  0.4578280000000 1.0
C      1  0.4529290000000  0.4554050000000  0.4578280000000 1.0
C      1  0.5278660000000  0.4414520000000  0.4578280000000 1.0
C      1  0.5642930000000  0.5084100000000  0.4578280000000 1.0
C      1  0.5118690000000  0.5637460000000  0.4578280000000 1.0
C      1  0.4371160000000  0.5047510000000  0.4668880000000 1.0
C      1  0.4760490000000  0.4416620000000  0.4668880000000 1.0
C      1  0.5480810000000  0.4591940000000  0.4668880000000 1.0
C      1  0.5536660000000  0.5331180000000  0.4668880000000 1.0
C      1  0.4850860000000  0.5612740000000  0.4668880000000 1.0
C      1  0.5140980000000  0.5217620000000  0.5285740000000 1.0
C      1  0.4836600000000  0.5201330000000  0.5285740000000 1.0
C      1  0.4758030000000  0.4906810000000  0.5285740000000 1.0
C      1  0.5013860000000  0.4741080000000  0.5285740000000 1.0
C      1  0.5250530000000  0.4933170000000  0.5285740000000 1.0
C      1  0.4589250000000  0.4839220000000  0.4570010000000 1.0
C      1  0.5025980000000  0.4559670000000  0.4570010000000 1.0
C      1  0.5426800000000  0.4888640000000  0.4570010000000 1.0
C      1  0.5237800000000  0.5371500000000  0.4570020000000 1.0
C      1  0.4720160000000  0.5340960000000  0.4570020000000 1.0
END
