TITL C-38195-9455-307 -2.43718211409103e-05 125000 -359.974038629814 0 0 60 (C2) n - 1
REM
REM in /home/bkarasulu/CARBON/AIRSS/Generating-Clusters/EDIP-Nigel-Params/Higher-Symm/Box-15A/Only-C60/SD-CG/FIRE-HFTN
REM
REM
REM
REM
REM
REM ./C.cell (414f73aa93bd7a1190c7fd0f31ff2f98)
REM
REM compiler GCC version 9.2.1 20190827 (Red Hat 9.2.1-1)
REM options -cpp -mtune=generic -march=x86-64 -g -O0 -fpre-include=/usr/include/finclude/math-vector-fortran.h
REM seed 1404805640 -261091475 115963226 -59146743 824535463 -76694166 97707607 -12970758 -1197776059 1369055546 -1692221952 1538624401 -1527454704 -1023369290 193987051 -868933643 -1035031326 1221059325 -2026547256 -1735251996 -777876932 -2000233150 334729492 -1944404582 946808842 -988920746 1935710475 -865532613 -2008540122 -1004919571 1549694416 -143972621 1542962871
REM
CELL 1.54180   50.00000   50.00000   50.00000   90.00000   90.00000   90.00000
LATT -1
SFAC C  
C      1  0.5563540000000  0.5082040000000  0.5516680000000 1.0
C      1  0.4436460000000  0.5082040000000  0.4483320000000 1.0
C      1  0.5541190000000  0.4952440000000  0.4654460000000 1.0
C      1  0.4458810000000  0.4952440000000  0.5345540000000 1.0
C      1  0.5485620000000  0.5501950000000  0.4632400000000 1.0
C      1  0.4514380000000  0.5501950000000  0.5367600000000 1.0
C      1  0.4998810000000  0.4641000000000  0.4337610000000 1.0
C      1  0.5001190000000  0.4641000000000  0.5662390000000 1.0
C      1  0.4318660000000  0.4763480000000  0.4922010000000 1.0
C      1  0.5681340000000  0.4763480000000  0.5077990000000 1.0
C      1  0.5691090000000  0.4985860000000  0.4907200000000 1.0
C      1  0.4308910000000  0.4985860000000  0.5092800000000 1.0
C      1  0.5550260000000  0.4321390000000  0.5020360000000 1.0
C      1  0.4449740000000  0.4321390000000  0.4979640000000 1.0
C      1  0.4821130000000  0.4780220000000  0.4513400000000 1.0
C      1  0.5178870000000  0.4780220000000  0.5486600000000 1.0
C      1  0.4920330000000  0.5066150000000  0.5370260000000 1.0
C      1  0.5079670000000  0.5066150000000  0.4629740000000 1.0
C      1  0.4732360000000  0.4820180000000  0.5310110000000 1.0
C      1  0.5267640000000  0.4820180000000  0.4689890000000 1.0
C      1  0.4696880000000  0.5479980000000  0.4608330000000 1.0
C      1  0.5303120000000  0.5479980000000  0.5391670000000 1.0
C      1  0.5414540000000  0.5661400000000  0.5138270000000 1.0
C      1  0.4585460000000  0.5661400000000  0.4861730000000 1.0
C      1  0.5218180000000  0.4585150000000  0.4504350000000 1.0
C      1  0.4781820000000  0.4585150000000  0.5495650000000 1.0
C      1  0.5214090000000  0.5232520000000  0.4413720000000 1.0
C      1  0.4785910000000  0.5232520000000  0.5586280000000 1.0
C      1  0.5084290000000  0.4372050000000  0.5231910000000 1.0
C      1  0.4915710000000  0.4372050000000  0.4768090000000 1.0
C      1  0.4357620000000  0.5242560000000  0.4976220000000 1.0
C      1  0.5642380000000  0.5242560000000  0.5023780000000 1.0
C      1  0.4751790000000  0.4610280000000  0.4767320000000 1.0
C      1  0.5248210000000  0.4610280000000  0.5232680000000 1.0
C      1  0.4839060000000  0.4794130000000  0.4995290000000 1.0
C      1  0.5160940000000  0.4794130000000  0.5004710000000 1.0
C      1  0.5511800000000  0.5207620000000  0.4486290000000 1.0
C      1  0.4488200000000  0.5207620000000  0.5513710000000 1.0
C      1  0.5330050000000  0.5180800000000  0.5371680000000 1.0
C      1  0.4669950000000  0.5180800000000  0.4628320000000 1.0
C      1  0.5120690000000  0.5241910000000  0.4904580000000 1.0
C      1  0.4879310000000  0.5241910000000  0.5095420000000 1.0
C      1  0.4548580000000  0.5446880000000  0.5073140000000 1.0
C      1  0.5451420000000  0.5446880000000  0.4926860000000 1.0
C      1  0.5152060000000  0.5810210000000  0.5156340000000 1.0
C      1  0.4847940000000  0.5810210000000  0.4843660000000 1.0
C      1  0.5296490000000  0.5070150000000  0.5082500000000 1.0
C      1  0.4703510000000  0.5070150000000  0.4917500000000 1.0
C      1  0.4828410000000  0.4340930000000  0.5342370000000 1.0
C      1  0.5171590000000  0.4340930000000  0.4657630000000 1.0
C      1  0.5205350000000  0.5526990000000  0.4500960000000 1.0
C      1  0.4794650000000  0.5526990000000  0.5499040000000 1.0
C      1  0.4975520000000  0.5590340000000  0.4678470000000 1.0
C      1  0.5024480000000  0.5590340000000  0.5321530000000 1.0
C      1  0.5383680000000  0.4260630000000  0.4819150000000 1.0
C      1  0.4616320000000  0.4260630000000  0.5180850000000 1.0
C      1  0.5411200000000  0.4881630000000  0.5623240000000 1.0
C      1  0.4588800000000  0.4881630000000  0.4376760000000 1.0
C      1  0.5535310000000  0.4549120000000  0.5176920000000 1.0
C      1  0.4464690000000  0.4549120000000  0.4823080000000 1.0
END
