TITL C-38192-7909-570 5.50300632606127e-06 125000 -385.130157230934 0 0 60 (D3h) n - 1
REM
REM in /home/bkarasulu/CARBON/AIRSS/Generating-Clusters/EDIP-Nigel-Params/Higher-Symm/Box-15A/Only-C60/SD-CG/FIRE-HFTN
REM
REM
REM
REM
REM
REM ./C.cell (414f73aa93bd7a1190c7fd0f31ff2f98)
REM
REM compiler GCC version 9.2.1 20190827 (Red Hat 9.2.1-1)
REM options -cpp -mtune=generic -march=x86-64 -g -O0 -fpre-include=/usr/include/finclude/math-vector-fortran.h
REM seed 972573754 -127673449 -747703643 -224152550 2044986651 246439996 1580001076 580948657 -1239019199 1329439942 -1956224791 -1795020523 1178122996 -1160300645 -1340632494 508897174 1792496516 1279287302 27803304 -570714026 340791603 2004327431 1318179098 1315591464 -497846009 308071400 -1021044799 1601895198 -581717889 1441279781 1960453987 1214347476 -1816253123
REM
CELL 1.54180   50.00000   50.00000   50.00000   90.00000   90.00000   90.00000
LATT -1
SFAC C  
C      1  0.5700750000000  0.5283580000000  0.4761780000000 1.0
C      1  0.4443320000000  0.5283580000000  0.4512250000000 1.0
C      1  0.4855930000000  0.5283580000000  0.5725980000000 1.0
C      1  0.5700750000000  0.4716420000000  0.4761780000000 1.0
C      1  0.4443320000000  0.4716420000000  0.4512250000000 1.0
C      1  0.4855930000000  0.4716420000000  0.5725980000000 1.0
C      1  0.4299250000000  0.5283580000000  0.4761780000000 1.0
C      1  0.5556680000000  0.5283580000000  0.4512250000000 1.0
C      1  0.5144070000000  0.5283580000000  0.5725980000000 1.0
C      1  0.4299250000000  0.4716420000000  0.4761780000000 1.0
C      1  0.5556680000000  0.4716420000000  0.4512250000000 1.0
C      1  0.5144070000000  0.4716420000000  0.5725980000000 1.0
C      1  0.5285900000000  0.4581820000000  0.4999550000000 1.0
C      1  0.4856660000000  0.4581820000000  0.4752630000000 1.0
C      1  0.4857440000000  0.4581820000000  0.5247830000000 1.0
C      1  0.5285900000000  0.5418180000000  0.4999550000000 1.0
C      1  0.4856660000000  0.5418180000000  0.4752630000000 1.0
C      1  0.4857440000000  0.5418180000000  0.5247830000000 1.0
C      1  0.4714100000000  0.4581820000000  0.4999550000000 1.0
C      1  0.5143340000000  0.4581820000000  0.4752630000000 1.0
C      1  0.5142560000000  0.4581820000000  0.5247830000000 1.0
C      1  0.4714100000000  0.5418180000000  0.4999550000000 1.0
C      1  0.5143340000000  0.5418180000000  0.4752630000000 1.0
C      1  0.5142560000000  0.5418180000000  0.5247830000000 1.0
C      1  0.5285350000000  0.4631350000000  0.5491090000000 1.0
C      1  0.5282620000000  0.4631350000000  0.4507330000000 1.0
C      1  0.4432030000000  0.4631350000000  0.5001580000000 1.0
C      1  0.5285350000000  0.5368650000000  0.5491090000000 1.0
C      1  0.5282620000000  0.5368650000000  0.4507330000000 1.0
C      1  0.4432030000000  0.5368650000000  0.5001580000000 1.0
C      1  0.4714650000000  0.4631350000000  0.5491090000000 1.0
C      1  0.4717380000000  0.4631350000000  0.4507330000000 1.0
C      1  0.5567970000000  0.4631350000000  0.5001580000000 1.0
C      1  0.4714650000000  0.5368650000000  0.5491090000000 1.0
C      1  0.4717380000000  0.5368650000000  0.4507330000000 1.0
C      1  0.5567970000000  0.5368650000000  0.5001580000000 1.0
C      1  0.4062310000000  0.4864240000000  0.4778370000000 1.0
C      1  0.5276910000000  0.4864240000000  0.5922880000000 1.0
C      1  0.5660790000000  0.4864240000000  0.4298750000000 1.0
C      1  0.4062310000000  0.5135760000000  0.4778370000000 1.0
C      1  0.5276910000000  0.5135760000000  0.5922880000000 1.0
C      1  0.5660790000000  0.5135760000000  0.4298750000000 1.0
C      1  0.5937690000000  0.4864240000000  0.4778370000000 1.0
C      1  0.4723090000000  0.4864240000000  0.5922880000000 1.0
C      1  0.4339210000000  0.4864240000000  0.4298750000000 1.0
C      1  0.5937690000000  0.5135760000000  0.4778370000000 1.0
C      1  0.4723090000000  0.5135760000000  0.5922880000000 1.0
C      1  0.4339210000000  0.5135760000000  0.4298750000000 1.0
C      1  0.4865550000000  0.4634590000000  0.4272940000000 1.0
C      1  0.4437580000000  0.4634590000000  0.5479970000000 1.0
C      1  0.5696880000000  0.4634590000000  0.5247090000000 1.0
C      1  0.4865550000000  0.5365410000000  0.4272940000000 1.0
C      1  0.4437580000000  0.5365410000000  0.5479970000000 1.0
C      1  0.5696880000000  0.5365410000000  0.5247090000000 1.0
C      1  0.5134450000000  0.4634590000000  0.4272940000000 1.0
C      1  0.5562420000000  0.4634590000000  0.5479970000000 1.0
C      1  0.4303120000000  0.4634590000000  0.5247090000000 1.0
C      1  0.5134450000000  0.5365410000000  0.4272940000000 1.0
C      1  0.5562420000000  0.5365410000000  0.5479970000000 1.0
C      1  0.4303120000000  0.5365410000000  0.5247090000000 1.0
END
