TITL C-38191-7580-42 2.37458491753267e-06 125000 -363.424746248354 0 0 60 (Ci) n - 1
REM
REM in /home/bkarasulu/CARBON/AIRSS/Generating-Clusters/EDIP-Nigel-Params/Higher-Symm/Box-15A/Only-C60/SD-CG/FIRE-HFTN
REM
REM
REM
REM
REM
REM ./C.cell (414f73aa93bd7a1190c7fd0f31ff2f98)
REM
REM compiler GCC version 9.2.1 20190827 (Red Hat 9.2.1-1)
REM options -cpp -mtune=generic -march=x86-64 -g -O0 -fpre-include=/usr/include/finclude/math-vector-fortran.h
REM seed 1275645306 1920414925 -1475211654 432330651 1511847323 218763269 1185866291 -1443153145 2060027323 -1337453284 -573595368 -1073608875 1431220896 -895967368 1212550598 -198632718 319871391 -1967861277 365027351 -1555297621 -624856272 1210431786 1328339809 1381213279 -1183794330 -1577878024 -1610422493 -948465583 -1703816533 -1257745137 646446643 479107986 986672228
REM
CELL 1.54180   50.00000   50.00000   50.00000   90.00000   90.00000   90.00000
LATT -1
SFAC C  
C      1  0.5304880000000  0.5597110000000  0.5356680000000 1.0
C      1  0.5286440000000  0.4483850000000  0.5326600000000 1.0
C      1  0.4386410000000  0.5027060000000  0.5347140000000 1.0
C      1  0.5316760000000  0.4399590000000  0.4643120000000 1.0
C      1  0.5329850000000  0.5537740000000  0.4694060000000 1.0
C      1  0.4376940000000  0.4978620000000  0.4650440000000 1.0
C      1  0.4695120000000  0.4402890000000  0.4643320000000 1.0
C      1  0.4713560000000  0.5516150000000  0.4673400000000 1.0
C      1  0.5613590000000  0.4972940000000  0.4652860000000 1.0
C      1  0.4683240000000  0.5600410000000  0.5356880000000 1.0
C      1  0.4670150000000  0.4462260000000  0.5305940000000 1.0
C      1  0.5623060000000  0.5021380000000  0.5349560000000 1.0
C      1  0.5124460000000  0.4256920000000  0.5306070000000 1.0
C      1  0.4307790000000  0.5296180000000  0.5359710000000 1.0
C      1  0.5575350000000  0.5538930000000  0.5395490000000 1.0
C      1  0.5143300000000  0.5745940000000  0.4717100000000 1.0
C      1  0.4313620000000  0.4705060000000  0.4635640000000 1.0
C      1  0.5589610000000  0.4455560000000  0.4616780000000 1.0
C      1  0.4875540000000  0.5743080000000  0.4693930000000 1.0
C      1  0.5692210000000  0.4703820000000  0.4640290000000 1.0
C      1  0.4424650000000  0.4461070000000  0.4604510000000 1.0
C      1  0.4856700000000  0.4254060000000  0.5282900000000 1.0
C      1  0.5686380000000  0.5294940000000  0.5364360000000 1.0
C      1  0.4410390000000  0.5544440000000  0.5383220000000 1.0
C      1  0.5107650000000  0.5224770000000  0.4398100000000 1.0
C      1  0.5130180000000  0.4775460000000  0.4504580000000 1.0
C      1  0.4701290000000  0.4987990000000  0.4298390000000 1.0
C      1  0.5156420000000  0.4753970000000  0.5722840000000 1.0
C      1  0.5168870000000  0.5212120000000  0.5507980000000 1.0
C      1  0.4744630000000  0.5013180000000  0.5665780000000 1.0
C      1  0.4892350000000  0.4775230000000  0.5601900000000 1.0
C      1  0.4869820000000  0.5224540000000  0.5495420000000 1.0
C      1  0.5298710000000  0.5012010000000  0.5701610000000 1.0
C      1  0.4843580000000  0.5246030000000  0.4277160000000 1.0
C      1  0.4831130000000  0.4787880000000  0.4492020000000 1.0
C      1  0.5255370000000  0.4986820000000  0.4334220000000 1.0
C      1  0.5352000000000  0.4643330000000  0.5092890000000 1.0
C      1  0.4538430000000  0.4922700000000  0.5116160000000 1.0
C      1  0.5187660000000  0.5404000000000  0.5166840000000 1.0
C      1  0.5344520000000  0.5345660000000  0.4917440000000 1.0
C      1  0.4539350000000  0.5084850000000  0.4874890000000 1.0
C      1  0.5195190000000  0.4579810000000  0.4846940000000 1.0
C      1  0.4648000000000  0.5356670000000  0.4907110000000 1.0
C      1  0.5461570000000  0.5077300000000  0.4883840000000 1.0
C      1  0.4812340000000  0.4596000000000  0.4833160000000 1.0
C      1  0.4655480000000  0.4654340000000  0.5082560000000 1.0
C      1  0.5460650000000  0.4915150000000  0.5125110000000 1.0
C      1  0.4804810000000  0.5420190000000  0.5153060000000 1.0
C      1  0.5331550000000  0.5410870000000  0.4432570000000 1.0
C      1  0.5150400000000  0.4489760000000  0.4413540000000 1.0
C      1  0.4444220000000  0.5093290000000  0.4394840000000 1.0
C      1  0.5357570000000  0.4585190000000  0.5589200000000 1.0
C      1  0.5134830000000  0.5590500000000  0.5590720000000 1.0
C      1  0.4473530000000  0.4915400000000  0.5597650000000 1.0
C      1  0.4668450000000  0.4589130000000  0.5567430000000 1.0
C      1  0.4849600000000  0.5510240000000  0.5586460000000 1.0
C      1  0.5555780000000  0.4906710000000  0.5605160000000 1.0
C      1  0.4642430000000  0.5414810000000  0.4410800000000 1.0
C      1  0.4865170000000  0.4409500000000  0.4409280000000 1.0
C      1  0.5526470000000  0.5084600000000  0.4402350000000 1.0
END
