TITL C-38184-643-468 -4.7226923045102e-06 125000 -356.773755920646 0 0 60 (C2h) n - 1
REM
REM in /home/bkarasulu/CARBON/AIRSS/Generating-Clusters/EDIP-Nigel-Params/Higher-Symm/Box-15A/Only-C60/SD-CG/FIRE-HFTN
REM
REM
REM
REM
REM
REM ./C.cell (414f73aa93bd7a1190c7fd0f31ff2f98)
REM
REM compiler GCC version 9.2.1 20190827 (Red Hat 9.2.1-1)
REM options -cpp -mtune=generic -march=x86-64 -g -O0 -fpre-include=/usr/include/finclude/math-vector-fortran.h
REM seed -81066396 -2086317513 -1856129646 1469946666 2042567689 1611816446 -1327610982 -1062278173 740933784 -1923845675 1732693446 1449540141 1013144399 -1711067291 508949596 -1999891572 -1860507180 1403853883 -1512662114 -168137039 -818621834 122154876 -1974707527 1646780495 1453278353 27165796 -1155522732 -627298151 1761147178 -264884874 -1604773111 -851284300 1179195032
REM
CELL 1.54180   50.00000   50.00000   50.00000   90.00000   90.00000   90.00000
LATT -1
SFAC C  
C      1  0.5723810000000  0.4632260000000  0.5271960000000 1.0
C      1  0.4275650000000  0.4623200000000  0.4751710000000 1.0
C      1  0.5724350000000  0.5376800000000  0.5248290000000 1.0
C      1  0.4276190000000  0.5367740000000  0.4728040000000 1.0
C      1  0.4275650000000  0.4623200000000  0.5248290000000 1.0
C      1  0.5723810000000  0.4632260000000  0.4728040000000 1.0
C      1  0.4276190000000  0.5367740000000  0.5271960000000 1.0
C      1  0.5724350000000  0.5376800000000  0.4751710000000 1.0
C      1  0.5165740000000  0.4475910000000  0.5523820000000 1.0
C      1  0.4833260000000  0.4475230000000  0.4476150000000 1.0
C      1  0.5166740000000  0.5524770000000  0.5523850000000 1.0
C      1  0.4834260000000  0.5524090000000  0.4476180000000 1.0
C      1  0.4833260000000  0.4475230000000  0.5523850000000 1.0
C      1  0.5165740000000  0.4475910000000  0.4476180000000 1.0
C      1  0.4834260000000  0.5524090000000  0.5523820000000 1.0
C      1  0.5166740000000  0.5524770000000  0.4476150000000 1.0
C      1  0.5150970000000  0.5237030000000  0.5635460000000 1.0
C      1  0.4850370000000  0.5237360000000  0.4364090000000 1.0
C      1  0.5149630000000  0.4762640000000  0.5635910000000 1.0
C      1  0.4849030000000  0.4762970000000  0.4364540000000 1.0
C      1  0.4850370000000  0.5237360000000  0.5635910000000 1.0
C      1  0.5150970000000  0.5237030000000  0.4364540000000 1.0
C      1  0.4849030000000  0.4762970000000  0.5635460000000 1.0
C      1  0.5149630000000  0.4762640000000  0.4364090000000 1.0
C      1  0.4469130000000  0.5540980000000  0.5152440000000 1.0
C      1  0.5529380000000  0.5556810000000  0.4849110000000 1.0
C      1  0.4470620000000  0.4443190000000  0.5150890000000 1.0
C      1  0.5530870000000  0.4459020000000  0.4847560000000 1.0
C      1  0.5529380000000  0.5556810000000  0.5150890000000 1.0
C      1  0.4469130000000  0.5540980000000  0.4847560000000 1.0
C      1  0.5530870000000  0.4459020000000  0.5152440000000 1.0
C      1  0.4470620000000  0.4443190000000  0.4849110000000 1.0
C      1  0.4755630000000  0.5494290000000  0.5237960000000 1.0
C      1  0.5247430000000  0.5496780000000  0.4761650000000 1.0
C      1  0.4752570000000  0.4503220000000  0.5238350000000 1.0
C      1  0.5244370000000  0.4505710000000  0.4762040000000 1.0
C      1  0.5247430000000  0.5496780000000  0.5238350000000 1.0
C      1  0.4755630000000  0.5494290000000  0.4762040000000 1.0
C      1  0.5244370000000  0.4505710000000  0.5237960000000 1.0
C      1  0.4752570000000  0.4503220000000  0.4761650000000 1.0
C      1  0.4329440000000  0.5118960000000  0.4846460000000 1.0
C      1  0.5841540000000  0.5139160000000  0.5158140000000 1.0
C      1  0.4158460000000  0.4860840000000  0.4841860000000 1.0
C      1  0.5670560000000  0.4881040000000  0.5153540000000 1.0
C      1  0.5841540000000  0.5139160000000  0.4841860000000 1.0
C      1  0.4329440000000  0.5118960000000  0.5153540000000 1.0
C      1  0.5670560000000  0.4881040000000  0.4846460000000 1.0
C      1  0.4158460000000  0.4860840000000  0.5158140000000 1.0
C      1  0.5152710000000  0.4783770000000  0.5160720000000 1.0
C      1  0.4838480000000  0.4781780000000  0.4839990000000 1.0
C      1  0.5161520000000  0.5218220000000  0.5160010000000 1.0
C      1  0.4847290000000  0.5216230000000  0.4839280000000 1.0
C      1  0.4838480000000  0.4781780000000  0.5160010000000 1.0
C      1  0.5152710000000  0.4783770000000  0.4839280000000 1.0
C      1  0.4847290000000  0.5216230000000  0.5160720000000 1.0
C      1  0.5161520000000  0.5218220000000  0.4839990000000 1.0
C      1  0.4750830000000  0.5000680000000  0.5471690000000 1.0
C      1  0.5249170000000  0.4999320000000  0.4528310000000 1.0
C      1  0.4750830000000  0.5000680000000  0.4528310000000 1.0
C      1  0.5249170000000  0.4999320000000  0.5471690000000 1.0
END
