TITL C-38187-2739-370 -1.03845914344522e-06 125000 -362.828060718669 0 0 60 (C3i) n - 1
REM
REM in /home/bkarasulu/CARBON/AIRSS/Generating-Clusters/EDIP-Nigel-Params/Higher-Symm/Box-15A/Only-C60/SD-CG/FIRE-HFTN
REM
REM
REM
REM
REM
REM ./C.cell (414f73aa93bd7a1190c7fd0f31ff2f98)
REM
REM compiler GCC version 9.2.1 20190827 (Red Hat 9.2.1-1)
REM options -cpp -mtune=generic -march=x86-64 -g -O0 -fpre-include=/usr/include/finclude/math-vector-fortran.h
REM seed -1928319729 -1448385580 -2939844 456598020 -1086915946 -293930871 1341850475 531020503 1691532719 1186637280 2088900747 -1274749797 -1789381720 1908747215 15453833 -50671586 -1383754705 -7579141 -622105715 1514930310 -484320230 93264730 501899679 -1390179088 -1837104562 709774048 -239292727 -1865140208 712839288 -1818662970 -635561017 643908966 -2097870268
REM
CELL 1.54180   50.00000   50.00000   50.00000   90.00000   90.00000   90.00000
LATT -1
SFAC C  
C      1  0.4767320000000  0.5390450000000  0.4272120000000 1.0
C      1  0.5221800000000  0.5396730000000  0.5727880000000 1.0
C      1  0.5454480000000  0.5006280000000  0.4272120000000 1.0
C      1  0.5232680000000  0.4609550000000  0.5727880000000 1.0
C      1  0.4778200000000  0.4603270000000  0.4272120000000 1.0
C      1  0.4545520000000  0.4993720000000  0.5727880000000 1.0
C      1  0.4514470000000  0.5244580000000  0.5092510000000 1.0
C      1  0.4969040000000  0.5542770000000  0.4907490000000 1.0
C      1  0.5454580000000  0.5298200000000  0.5092510000000 1.0
C      1  0.5485530000000  0.4755420000000  0.4907490000000 1.0
C      1  0.5030960000000  0.4457230000000  0.5092510000000 1.0
C      1  0.4545420000000  0.4701800000000  0.4907490000000 1.0
C      1  0.4573310000000  0.5248430000000  0.4455840000000 1.0
C      1  0.5001800000000  0.5493740000000  0.5544160000000 1.0
C      1  0.5428490000000  0.5245310000000  0.4455840000000 1.0
C      1  0.5426690000000  0.4751570000000  0.5544160000000 1.0
C      1  0.4998200000000  0.4506260000000  0.4455840000000 1.0
C      1  0.4571510000000  0.4754690000000  0.5544160000000 1.0
C      1  0.4781840000000  0.5397950000000  0.5727750000000 1.0
C      1  0.5235550000000  0.5387900000000  0.4272250000000 1.0
C      1  0.5453710000000  0.4989960000000  0.5727750000000 1.0
C      1  0.5218160000000  0.4602050000000  0.4272250000000 1.0
C      1  0.4764450000000  0.4612100000000  0.5727750000000 1.0
C      1  0.4546290000000  0.5010040000000  0.4272250000000 1.0
C      1  0.4382470000000  0.4822760000000  0.5102050000000 1.0
C      1  0.4537740000000  0.5446170000000  0.4897950000000 1.0
C      1  0.5155270000000  0.5623410000000  0.5102050000000 1.0
C      1  0.5617530000000  0.5177240000000  0.4897950000000 1.0
C      1  0.5462260000000  0.4553830000000  0.5102050000000 1.0
C      1  0.4844730000000  0.4376590000000  0.4897950000000 1.0
C      1  0.4599010000000  0.5233970000000  0.5568180000000 1.0
C      1  0.5002130000000  0.5464250000000  0.4431820000000 1.0
C      1  0.5403120000000  0.5230280000000  0.5568180000000 1.0
C      1  0.5400990000000  0.4766030000000  0.4431820000000 1.0
C      1  0.4997870000000  0.4535750000000  0.5568180000000 1.0
C      1  0.4596880000000  0.4769720000000  0.4431820000000 1.0
C      1  0.4993160000000  0.4673280000000  0.4711760000000 1.0
C      1  0.4713640000000  0.4842560000000  0.5288240000000 1.0
C      1  0.4720470000000  0.5169280000000  0.4711760000000 1.0
C      1  0.5006840000000  0.5326720000000  0.5288240000000 1.0
C      1  0.5286360000000  0.5157440000000  0.4711760000000 1.0
C      1  0.5279530000000  0.4830720000000  0.5288240000000 1.0
C      1  0.5707550000000  0.4920330000000  0.4932710000000 1.0
C      1  0.5284780000000  0.4347410000000  0.5067290000000 1.0
C      1  0.4577230000000  0.4427070000000  0.4932710000000 1.0
C      1  0.4292450000000  0.5079670000000  0.5067290000000 1.0
C      1  0.4715220000000  0.5652590000000  0.4932710000000 1.0
C      1  0.5422770000000  0.5572930000000  0.5067290000000 1.0
C      1  0.4806900000000  0.5113200000000  0.4109910000000 1.0
C      1  0.5001490000000  0.5223830000000  0.5890090000000 1.0
C      1  0.5194580000000  0.5110630000000  0.4109910000000 1.0
C      1  0.5193100000000  0.4886800000000  0.5890090000000 1.0
C      1  0.4998510000000  0.4776170000000  0.4109910000000 1.0
C      1  0.4805420000000  0.4889370000000  0.5890090000000 1.0
C      1  0.4720630000000  0.4839750000000  0.4702680000000 1.0
C      1  0.4721540000000  0.5161810000000  0.5297320000000 1.0
C      1  0.5000900000000  0.5322060000000  0.4702680000000 1.0
C      1  0.5279370000000  0.5160250000000  0.5297320000000 1.0
C      1  0.5278460000000  0.4838190000000  0.4702680000000 1.0
C      1  0.4999100000000  0.4677940000000  0.5297320000000 1.0
END
