TITL C-38195-9455-434 3.59413608967138e-05 125000 -359.100917798654 0 0 60 (C2) n - 1
REM
REM in /home/bkarasulu/CARBON/AIRSS/Generating-Clusters/EDIP-Nigel-Params/Higher-Symm/Box-15A/Only-C60/SD-CG/FIRE-HFTN
REM
REM
REM
REM
REM
REM ./C.cell (414f73aa93bd7a1190c7fd0f31ff2f98)
REM
REM compiler GCC version 9.2.1 20190827 (Red Hat 9.2.1-1)
REM options -cpp -mtune=generic -march=x86-64 -g -O0 -fpre-include=/usr/include/finclude/math-vector-fortran.h
REM seed -182952756 -1032292878 1283331715 1148409669 -1531753057 491591102 697658780 -246524975 -88188632 -554027865 1108853002 812576950 1651349887 979549506 553183589 -632603728 1647929490 -748117585 225407875 1223834429 224454551 702871630 -1434224881 1597538549 -585029961 -137668850 -1704307010 128076005 722938574 331748021 -1238388627 419409724 1319717109
REM
CELL 1.54180   50.00000   50.00000   50.00000   90.00000   90.00000   90.00000
LATT -1
SFAC C  
C      1  0.4421420000000  0.5202100000000  0.5440050000000 1.0
C      1  0.5578580000000  0.4797900000000  0.5440050000000 1.0
C      1  0.5163630000000  0.5694330000000  0.4795770000000 1.0
C      1  0.4836370000000  0.4305670000000  0.4795770000000 1.0
C      1  0.4529800000000  0.4681770000000  0.4799740000000 1.0
C      1  0.5470200000000  0.5318230000000  0.4799740000000 1.0
C      1  0.5502080000000  0.5067630000000  0.5409830000000 1.0
C      1  0.4497920000000  0.4932370000000  0.5409830000000 1.0
C      1  0.5279170000000  0.4397670000000  0.4867570000000 1.0
C      1  0.4720830000000  0.5602330000000  0.4867570000000 1.0
C      1  0.5321540000000  0.5554170000000  0.5208860000000 1.0
C      1  0.4678460000000  0.4445830000000  0.5208860000000 1.0
C      1  0.5444770000000  0.4669520000000  0.5223990000000 1.0
C      1  0.4555230000000  0.5330480000000  0.5223990000000 1.0
C      1  0.5282600000000  0.5483460000000  0.4647300000000 1.0
C      1  0.4717400000000  0.4516540000000  0.4647300000000 1.0
C      1  0.4617630000000  0.4997030000000  0.4263980000000 1.0
C      1  0.5382370000000  0.5002970000000  0.4263980000000 1.0
C      1  0.4372990000000  0.5394260000000  0.5016290000000 1.0
C      1  0.5627010000000  0.4605740000000  0.5016290000000 1.0
C      1  0.4242510000000  0.5371180000000  0.4777990000000 1.0
C      1  0.5757490000000  0.4628820000000  0.4777990000000 1.0
C      1  0.4674930000000  0.4848560000000  0.5628310000000 1.0
C      1  0.5325070000000  0.5151440000000  0.5628310000000 1.0
C      1  0.5643950000000  0.4849050000000  0.4647210000000 1.0
C      1  0.4356050000000  0.5150950000000  0.4647210000000 1.0
C      1  0.4469370000000  0.4572060000000  0.5062910000000 1.0
C      1  0.5530630000000  0.5427940000000  0.5062910000000 1.0
C      1  0.5263480000000  0.4659270000000  0.4738370000000 1.0
C      1  0.4736520000000  0.5340730000000  0.4738370000000 1.0
C      1  0.4540370000000  0.5209620000000  0.4424960000000 1.0
C      1  0.5459630000000  0.4790380000000  0.4424960000000 1.0
C      1  0.5667230000000  0.5100480000000  0.4792200000000 1.0
C      1  0.4332770000000  0.4899520000000  0.4792200000000 1.0
C      1  0.4331160000000  0.4775840000000  0.5220010000000 1.0
C      1  0.5668840000000  0.5224160000000  0.5220010000000 1.0
C      1  0.4175150000000  0.4916140000000  0.5028340000000 1.0
C      1  0.5824850000000  0.5083860000000  0.5028340000000 1.0
C      1  0.4885380000000  0.4634590000000  0.4429030000000 1.0
C      1  0.5114620000000  0.5365410000000  0.4429030000000 1.0
C      1  0.5106670000000  0.4709570000000  0.5763600000000 1.0
C      1  0.4893330000000  0.5290430000000  0.5763600000000 1.0
C      1  0.5150190000000  0.4760230000000  0.5175600000000 1.0
C      1  0.4849810000000  0.5239770000000  0.5175600000000 1.0
C      1  0.5130130000000  0.5081150000000  0.4351820000000 1.0
C      1  0.4869870000000  0.4918850000000  0.4351820000000 1.0
C      1  0.4887930000000  0.4648450000000  0.5600270000000 1.0
C      1  0.5112070000000  0.5351550000000  0.5600270000000 1.0
C      1  0.4746500000000  0.5064790000000  0.5792820000000 1.0
C      1  0.5253500000000  0.4935210000000  0.5792820000000 1.0
C      1  0.4938550000000  0.5755180000000  0.4957480000000 1.0
C      1  0.5061450000000  0.4244820000000  0.4957480000000 1.0
C      1  0.4937610000000  0.4561780000000  0.5314100000000 1.0
C      1  0.5062390000000  0.5438220000000  0.5314100000000 1.0
C      1  0.5026620000000  0.4279290000000  0.5245090000000 1.0
C      1  0.4973380000000  0.5720710000000  0.5245090000000 1.0
C      1  0.4843090000000  0.5437630000000  0.4474620000000 1.0
C      1  0.5156910000000  0.4562370000000  0.4474620000000 1.0
C      1  0.4920490000000  0.5136620000000  0.4901920000000 1.0
C      1  0.5079510000000  0.4863380000000  0.4901920000000 1.0
END
