TITL C-38188-488-36 -0.00104638711761977 125000 -348.47053008826 0 0 60 (C3) n - 1
REM
REM in /home/bkarasulu/CARBON/AIRSS/Generating-Clusters/EDIP-Nigel-Params/Higher-Symm/Box-15A/Only-C60/SD-CG/FIRE-HFTN
REM
REM
REM
REM
REM
REM ./C.cell (414f73aa93bd7a1190c7fd0f31ff2f98)
REM
REM compiler GCC version 9.2.1 20190827 (Red Hat 9.2.1-1)
REM options -cpp -mtune=generic -march=x86-64 -g -O0 -fpre-include=/usr/include/finclude/math-vector-fortran.h
REM seed 1060337564 -120371642 -1688370372 -1250560521 -1764556464 -277399803 -817546131 830145380 -437044568 392661740 -1918471162 -734891899 466535278 2095552969 -332225233 546224136 -1930933199 116088822 899371317 -1462281035 774312685 -1019708132 -807114517 -665818892 -332234941 -1117715756 -918815854 -1097164570 -176116599 40118243 588731863 -1563634385 333063643
REM
CELL 1.54180   50.00000   50.00000   50.00000   90.00000   90.00000   90.00000
LATT -1
SFAC C  
C      1  0.4896270000000  0.4357930000000  0.5062040000000 1.0
C      1  0.5607910000000  0.5231210000000  0.5062040000000 1.0
C      1  0.4495810000000  0.5410860000000  0.5062040000000 1.0
C      1  0.5810770000000  0.4897160000000  0.5832090000000 1.0
C      1  0.4683670000000  0.5753570000000  0.5832090000000 1.0
C      1  0.4505550000000  0.4349270000000  0.5832090000000 1.0
C      1  0.4506440000000  0.4999370000000  0.4194010000000 1.0
C      1  0.5247330000000  0.4572880000000  0.4194010000000 1.0
C      1  0.5246240000000  0.5427750000000  0.4194010000000 1.0
C      1  0.5463830000000  0.4493530000000  0.5316270000000 1.0
C      1  0.5206700000000  0.5654920000000  0.5316270000000 1.0
C      1  0.4329470000000  0.4851550000000  0.5316260000000 1.0
C      1  0.5614670000000  0.5420750000000  0.4580370000000 1.0
C      1  0.4328290000000  0.5321950000000  0.4580370000000 1.0
C      1  0.5057040000000  0.4257310000000  0.4580370000000 1.0
C      1  0.5730790000000  0.5353800000000  0.4830980000000 1.0
C      1  0.4328200000000  0.5455980000000  0.4830980000000 1.0
C      1  0.4941010000000  0.4190220000000  0.4830980000000 1.0
C      1  0.5453690000000  0.4725230000000  0.4293290000000 1.0
C      1  0.5011120000000  0.5530290000000  0.4293290000000 1.0
C      1  0.4535200000000  0.4744480000000  0.4293280000000 1.0
C      1  0.5557030000000  0.4792130000000  0.4810570000000 1.0
C      1  0.4901510000000  0.5586340000000  0.4810570000000 1.0
C      1  0.4541460000000  0.4621530000000  0.4810570000000 1.0
C      1  0.5482100000000  0.5617140000000  0.5320540000000 1.0
C      1  0.4224490000000  0.5108940000000  0.5320540000000 1.0
C      1  0.5293410000000  0.4273920000000  0.5320540000000 1.0
C      1  0.4598190000000  0.5243880000000  0.4143690000000 1.0
C      1  0.4989700000000  0.4530080000000  0.4143690000000 1.0
C      1  0.5412110000000  0.5226040000000  0.4143690000000 1.0
C      1  0.5489250000000  0.4975100000000  0.4184580000000 1.0
C      1  0.4776940000000  0.5436150000000  0.4184580000000 1.0
C      1  0.4733820000000  0.4588750000000  0.4184580000000 1.0
C      1  0.5531350000000  0.4687400000000  0.4554400000000 1.0
C      1  0.5005050000000  0.5616460000000  0.4554400000000 1.0
C      1  0.4463610000000  0.4696140000000  0.4554400000000 1.0
C      1  0.5621700000000  0.5375910000000  0.5311640000000 1.0
C      1  0.4363600000000  0.5350450000000  0.5311640000000 1.0
C      1  0.5014690000000  0.4273640000000  0.5311640000000 1.0
C      1  0.5602370000000  0.5218990000000  0.5537350000000 1.0
C      1  0.4509160000000  0.5412180000000  0.5537350000000 1.0
C      1  0.4888460000000  0.4368830000000  0.5537350000000 1.0
C      1  0.4651170000000  0.4516350000000  0.5075520000000 1.0
C      1  0.5593270000000  0.4939720000000  0.5075520000000 1.0
C      1  0.4755570000000  0.5543920000000  0.5075520000000 1.0
C      1  0.4125450000000  0.5273590000000  0.4751590000000 1.0
C      1  0.5200340000000  0.4105820000000  0.4751600000000 1.0
C      1  0.5674210000000  0.5620590000000  0.4751600000000 1.0
C      1  0.4599530000000  0.5493200000000  0.5782880000000 1.0
C      1  0.4773110000000  0.4406580000000  0.5782880000000 1.0
C      1  0.5627360000000  0.5100210000000  0.5782880000000 1.0
C      1  0.5499960000000  0.4643360000000  0.5070170000000 1.0
C      1  0.5058880000000  0.5611300000000  0.5070170000000 1.0
C      1  0.4441160000000  0.4745350000000  0.5070170000000 1.0
C      1  0.4379710000000  0.4724670000000  0.5554320000000 1.0
C      1  0.5548580000000  0.4600470000000  0.5554320000000 1.0
C      1  0.5071710000000  0.5674850000000  0.5554320000000 1.0
C      1  0.4940820000000  0.5655180000000  0.5793710000000 1.0
C      1  0.4462180000000  0.4621160000000  0.5793710000000 1.0
C      1  0.5596990000000  0.4723650000000  0.5793710000000 1.0
END
