TITL C-38194-9318-238 152.728162172399 125000 -342.496009195838 0 0 60 (C1) n - 1
REM
REM in /home/bkarasulu/CARBON/AIRSS/Generating-Clusters/EDIP-Nigel-Params/Higher-Symm/Box-15A/Only-C60/SD-CG/FIRE-HFTN
REM
REM
REM
REM
REM
REM ./C.cell (414f73aa93bd7a1190c7fd0f31ff2f98)
REM
REM compiler GCC version 9.2.1 20190827 (Red Hat 9.2.1-1)
REM options -cpp -mtune=generic -march=x86-64 -g -O0 -fpre-include=/usr/include/finclude/math-vector-fortran.h
REM seed 221522608 252270614 1052059824 -1018397684 -403519175 -2679451 -774112423 -1650340398 -691169272 1837038416 36061651 -408770727 -703758782 856925379 -1878651877 -1215034382 1022180357 1279385758 1266492179 -477795694 -97779715 522960895 -1665583410 1732635635 554722732 -1174874585 -255935301 2075336476 1157565468 -560231435 1579325740 76982434 -1670181143
REM
CELL 1.54180   50.00000   50.00000   50.00000   90.00000   90.00000   90.00000
LATT -1
SFAC C  
C      1  0.5588090000000  0.4888770000000  0.4976080000000 1.0
C      1  0.4687880000000  0.6865100000000  0.4508530000000 1.0
C      1  0.5904770000000  0.4273600000000  0.5475690000000 1.0
C      1  0.4563050000000  0.5032970000000  0.4641510000000 1.0
C      1  0.4269790000000  0.4601460000000  0.4595380000000 1.0
C      1  0.5032910000000  0.6660820000000  0.4131860000000 1.0
C      1  0.5052860000000  0.4908450000000  0.4818820000000 1.0
C      1  0.4913160000000  0.4478220000000  0.5877360000000 1.0
C      1  0.4565160000000  0.3804820000000  0.5505030000000 1.0
C      1  0.4657990000000  0.4375430000000  0.5880810000000 1.0
C      1  0.4787500000000  0.4917150000000  0.4748890000000 1.0
C      1  0.5150540000000  0.4726460000000  0.5003490000000 1.0
C      1  0.5760580000000  0.4930680000000  0.5596370000000 1.0
C      1  0.4838270000000  0.7009990000000  0.4321790000000 1.0
C      1  0.3674630000000  0.4833420000000  0.4308290000000 1.0
C      1  0.5514660000000  0.4457080000000  0.5207430000000 1.0
C      1  0.5017850000000  0.5938660000000  0.4204940000000 1.0
C      1  0.4306630000000  0.5443750000000  0.4474140000000 1.0
C      1  0.5136870000000  0.4618640000000  0.5855290000000 1.0
C      1  0.4503720000000  0.3998170000000  0.5017740000000 1.0
C      1  0.5167630000000  0.5279340000000  0.4522640000000 1.0
C      1  0.4555190000000  0.5318440000000  0.4593060000000 1.0
C      1  0.5041490000000  0.3882910000000  0.5455890000000 1.0
C      1  0.4104390000000  0.5001090000000  0.4460450000000 1.0
C      1  0.4010570000000  0.4543270000000  0.4499080000000 1.0
C      1  0.4725800000000  0.6564500000000  0.4493990000000 1.0
C      1  0.4961220000000  0.6204220000000  0.4258290000000 1.0
C      1  0.5877410000000  0.5663530000000  0.5654020000000 1.0
C      1  0.5503020000000  0.5069100000000  0.4794620000000 1.0
C      1  0.5079970000000  0.5645050000000  0.4134210000000 1.0
C      1  0.4516390000000  0.4337920000000  0.5639940000000 1.0
C      1  0.5796790000000  0.4490560000000  0.5327330000000 1.0
C      1  0.4538000000000  0.5598520000000  0.4540960000000 1.0
C      1  0.4093080000000  0.5272760000000  0.4415200000000 1.0
C      1  0.5714990000000  0.4224610000000  0.5671580000000 1.0
C      1  0.5861130000000  0.4748610000000  0.5414750000000 1.0
C      1  0.5241020000000  0.5091900000000  0.4708180000000 1.0
C      1  0.5479070000000  0.4390800000000  0.5592820000000 1.0
C      1  0.4563790000000  0.4082290000000  0.5770900000000 1.0
C      1  0.5030870000000  0.5848980000000  0.3938410000000 1.0
C      1  0.4822950000000  0.3844100000000  0.5614100000000 1.0
C      1  0.4331320000000  0.4880410000000  0.4576590000000 1.0
C      1  0.5871430000000  0.5179770000000  0.5624750000000 1.0
C      1  0.5394220000000  0.4621620000000  0.5761040000000 1.0
C      1  0.6025530000000  0.5574080000000  0.5860740000000 1.0
C      1  0.5682580000000  0.3973550000000  0.5777010000000 1.0
C      1  0.5541260000000  0.4854000000000  0.5743950000000 1.0
C      1  0.5296440000000  0.4303920000000  0.5365980000000 1.0
C      1  0.5646360000000  0.3760610000000  0.5914240000000 1.0
C      1  0.5123950000000  0.5466430000000  0.4340980000000 1.0
C      1  0.4433350000000  0.4413700000000  0.4709510000000 1.0
C      1  0.5011300000000  0.6929960000000  0.4130730000000 1.0
C      1  0.4910150000000  0.6471170000000  0.4291130000000 1.0
C      1  0.3912090000000  0.4794820000000  0.4417710000000 1.0
C      1  0.6011930000000  0.5415570000000  0.5626120000000 1.0
C      1  0.4509090000000  0.3862440000000  0.5244650000000 1.0
C      1  0.5222660000000  0.4040290000000  0.5343310000000 1.0
C      1  0.5412090000000  0.4709970000000  0.5095390000000 1.0
C      1  0.4550560000000  0.6685660000000  0.4683580000000 1.0
C      1  0.4501990000000  0.4195860000000  0.4842680000000 1.0
END
