TITL C-38192-7909-470 3.74472488318169e-05 125000 -370.262958840494 0 0 60 (C5) n - 1
REM
REM in /home/bkarasulu/CARBON/AIRSS/Generating-Clusters/EDIP-Nigel-Params/Higher-Symm/Box-15A/Only-C60/SD-CG/FIRE-HFTN
REM
REM
REM
REM
REM
REM ./C.cell (414f73aa93bd7a1190c7fd0f31ff2f98)
REM
REM compiler GCC version 9.2.1 20190827 (Red Hat 9.2.1-1)
REM options -cpp -mtune=generic -march=x86-64 -g -O0 -fpre-include=/usr/include/finclude/math-vector-fortran.h
REM seed -1936500770 -307771073 -2105393398 702034139 1288112529 1579509032 -1649571776 -581567806 101625708 -1043233736 -1145512978 24676791 1829717999 -2035879196 -1508087015 -1864926674 1585444245 -315047219 364431119 -798928457 1295285503 517739838 1979738424 1315354792 -700077956 -836230462 264776867 -1778397048 1617841684 573959230 501635764 -1434302596 -571617890
REM
CELL 1.54180   50.00000   50.00000   50.00000   90.00000   90.00000   90.00000
LATT -1
SFAC C  
C      1  0.4832200000000  0.4947070000000  0.4748060000000 1.0
C      1  0.4832200000000  0.4744040000000  0.4972490000000 1.0
C      1  0.4832200000000  0.4894740000000  0.5234930000000 1.0
C      1  0.4832200000000  0.5190910000000  0.5172710000000 1.0
C      1  0.4832200000000  0.5223250000000  0.4871800000000 1.0
C      1  0.5136810000000  0.4455200000000  0.4589260000000 1.0
C      1  0.5136810000000  0.4441010000000  0.5391210000000 1.0
C      1  0.5136810000000  0.5199330000000  0.5652520000000 1.0
C      1  0.5136810000000  0.5682180000000  0.5012070000000 1.0
C      1  0.5136810000000  0.5222280000000  0.4354940000000 1.0
C      1  0.5362930000000  0.5219770000000  0.5470370000000 1.0
C      1  0.5362930000000  0.5515260000000  0.4936330000000 1.0
C      1  0.5362930000000  0.5098680000000  0.4490280000000 1.0
C      1  0.5362930000000  0.4545720000000  0.4748640000000 1.0
C      1  0.5362930000000  0.4620570000000  0.5354370000000 1.0
C      1  0.4934150000000  0.4337220000000  0.4772350000000 1.0
C      1  0.4934150000000  0.4578680000000  0.5559990000000 1.0
C      1  0.4934150000000  0.5402390000000  0.5573750000000 1.0
C      1  0.4934150000000  0.5670010000000  0.4794600000000 1.0
C      1  0.4934150000000  0.5011700000000  0.4299310000000 1.0
C      1  0.4580750000000  0.5379560000000  0.4781230000000 1.0
C      1  0.4580750000000  0.4909220000000  0.4571410000000 1.0
C      1  0.4580750000000  0.4564340000000  0.4953890000000 1.0
C      1  0.4580750000000  0.4821520000000  0.5400090000000 1.0
C      1  0.4580750000000  0.5325360000000  0.5293380000000 1.0
C      1  0.5703590000000  0.5103790000000  0.4774090000000 1.0
C      1  0.5703590000000  0.4817220000000  0.4831480000000 1.0
C      1  0.5703590000000  0.4783240000000  0.5121760000000 1.0
C      1  0.5703590000000  0.5048820000000  0.5243770000000 1.0
C      1  0.5703590000000  0.5246930000000  0.5028900000000 1.0
C      1  0.4333140000000  0.5219190000000  0.4872340000000 1.0
C      1  0.4333140000000  0.4946320000000  0.4752080000000 1.0
C      1  0.4333140000000  0.4747630000000  0.4974440000000 1.0
C      1  0.4333140000000  0.4897710000000  0.5232120000000 1.0
C      1  0.4333140000000  0.5189150000000  0.5169020000000 1.0
C      1  0.4659460000000  0.5119050000000  0.4365740000000 1.0
C      1  0.4659460000000  0.4433570000000  0.4690780000000 1.0
C      1  0.4659460000000  0.4530870000000  0.5443150000000 1.0
C      1  0.4659460000000  0.5276500000000  0.5583110000000 1.0
C      1  0.4659460000000  0.5640010000000  0.4917230000000 1.0
C      1  0.5616360000000  0.4617720000000  0.4650650000000 1.0
C      1  0.5616360000000  0.4549620000000  0.5255620000000 1.0
C      1  0.5616360000000  0.5103930000000  0.5507330000000 1.0
C      1  0.5616360000000  0.5514610000000  0.5057930000000 1.0
C      1  0.5616360000000  0.5214120000000  0.4528480000000 1.0
C      1  0.4675880000000  0.4384510000000  0.5182580000000 1.0
C      1  0.4675880000000  0.4983450000000  0.5641780000000 1.0
C      1  0.4675880000000  0.5605260000000  0.5214060000000 1.0
C      1  0.4675880000000  0.5390620000000  0.4490510000000 1.0
C      1  0.4675880000000  0.4636160000000  0.4471060000000 1.0
C      1  0.4954920000000  0.5489120000000  0.4542980000000 1.0
C      1  0.4954920000000  0.4716490000000  0.4393590000000 1.0
C      1  0.4954920000000  0.4335660000000  0.5082240000000 1.0
C      1  0.4954920000000  0.4872930000000  0.5657240000000 1.0
C      1  0.4954920000000  0.5585800000000  0.5323950000000 1.0
C      1  0.5209810000000  0.4767630000000  0.4880080000000 1.0
C      1  0.5209810000000  0.4814140000000  0.5183940000000 1.0
C      1  0.5209810000000  0.5117510000000  0.5233600000000 1.0
C      1  0.5209810000000  0.5258480000000  0.4960430000000 1.0
C      1  0.5209810000000  0.5042240000000  0.4741940000000 1.0
END
