TITL C-38192-7909-306 -3.20456726517223e-06 125000 -353.515593231999 0 0 60 (C3) n - 1
REM
REM in /home/bkarasulu/CARBON/AIRSS/Generating-Clusters/EDIP-Nigel-Params/Higher-Symm/Box-15A/Only-C60/SD-CG/FIRE-HFTN
REM
REM
REM
REM
REM
REM ./C.cell (414f73aa93bd7a1190c7fd0f31ff2f98)
REM
REM compiler GCC version 9.2.1 20190827 (Red Hat 9.2.1-1)
REM options -cpp -mtune=generic -march=x86-64 -g -O0 -fpre-include=/usr/include/finclude/math-vector-fortran.h
REM seed -1038372643 674255173 1279780210 -1886750728 -1383327486 1092259477 380093546 -386637528 77729445 -1190972664 861211814 -302101547 1954063141 1572099281 -795752457 -1218979011 737547682 -107331755 -2005188175 -743157207 255741848 933777532 -165302258 -1067116700 -758642996 -1851304 -2045516093 1726238025 1972603302 -386160304 1687552829 839269976 167740726
REM
CELL 1.54180   50.00000   50.00000   50.00000   90.00000   90.00000   90.00000
LATT -1
SFAC C  
C      1  0.4405370000000  0.4613990000000  0.5202760000000 1.0
C      1  0.5472910000000  0.4613990000000  0.5413580000000 1.0
C      1  0.5121720000000  0.4613990000000  0.4383660000000 1.0
C      1  0.4126870000000  0.5153780000000  0.4935290000000 1.0
C      1  0.5380520000000  0.5153780000000  0.5788510000000 1.0
C      1  0.5492610000000  0.5153780000000  0.4276210000000 1.0
C      1  0.4903970000000  0.5526220000000  0.5276130000000 1.0
C      1  0.5287150000000  0.5526220000000  0.4945100000000 1.0
C      1  0.4808880000000  0.5526220000000  0.4778770000000 1.0
C      1  0.4638350000000  0.4415770000000  0.5283190000000 1.0
C      1  0.5426070000000  0.4415770000000  0.5171600000000 1.0
C      1  0.4935570000000  0.4415770000000  0.4545210000000 1.0
C      1  0.5259350000000  0.4994590000000  0.4880860000000 1.0
C      1  0.4767150000000  0.4994590000000  0.4834970000000 1.0
C      1  0.4973500000000  0.4994590000000  0.5284170000000 1.0
C      1  0.4484390000000  0.4899370000000  0.5229100000000 1.0
C      1  0.5456210000000  0.4899370000000  0.5331980000000 1.0
C      1  0.5059400000000  0.4899370000000  0.4438920000000 1.0
C      1  0.4773950000000  0.4510270000000  0.5023290000000 1.0
C      1  0.5133200000000  0.4510270000000  0.5184120000000 1.0
C      1  0.5092860000000  0.4510270000000  0.4792590000000 1.0
C      1  0.4933380000000  0.4966800000000  0.5575750000000 1.0
C      1  0.5531920000000  0.4966800000000  0.4769820000000 1.0
C      1  0.4534700000000  0.4966800000000  0.4654430000000 1.0
C      1  0.5225540000000  0.4939750000000  0.5161110000000 1.0
C      1  0.5026750000000  0.4939750000000  0.4724120000000 1.0
C      1  0.4747710000000  0.4939750000000  0.5114770000000 1.0
C      1  0.4237720000000  0.5398770000000  0.5003000000000 1.0
C      1  0.5383740000000  0.5398770000000  0.5658650000000 1.0
C      1  0.5378540000000  0.5398770000000  0.4338350000000 1.0
C      1  0.5249630000000  0.4571200000000  0.5616740000000 1.0
C      1  0.5409300000000  0.4571200000000  0.4475440000000 1.0
C      1  0.4341070000000  0.4571200000000  0.4907820000000 1.0
C      1  0.4653100000000  0.5075580000000  0.4390490000000 1.0
C      1  0.4645600000000  0.5075580000000  0.5605180000000 1.0
C      1  0.5701300000000  0.5075580000000  0.5004330000000 1.0
C      1  0.5188510000000  0.5528570000000  0.5215120000000 1.0
C      1  0.5092040000000  0.5528570000000  0.4729180000000 1.0
C      1  0.4719440000000  0.5528570000000  0.5055700000000 1.0
C      1  0.5397660000000  0.4444990000000  0.4845390000000 1.0
C      1  0.4667270000000  0.4444990000000  0.4732930000000 1.0
C      1  0.4935070000000  0.4444990000000  0.5421690000000 1.0
C      1  0.5411660000000  0.5445930000000  0.5377430000000 1.0
C      1  0.5121040000000  0.5445930000000  0.4454770000000 1.0
C      1  0.4467300000000  0.5445930000000  0.5167790000000 1.0
C      1  0.4971830000000  0.4669830000000  0.5641310000000 1.0
C      1  0.5569480000000  0.4669830000000  0.4703740000000 1.0
C      1  0.4458690000000  0.4669830000000  0.4654940000000 1.0
C      1  0.5645270000000  0.5393480000000  0.5212970000000 1.0
C      1  0.4861810000000  0.5393480000000  0.4334690000000 1.0
C      1  0.4492920000000  0.5393480000000  0.5452330000000 1.0
C      1  0.4830100000000  0.4872950000000  0.4285660000000 1.0
C      1  0.4466310000000  0.4872950000000  0.5504300000000 1.0
C      1  0.5703580000000  0.4872950000000  0.5210030000000 1.0
C      1  0.4669170000000  0.5434440000000  0.4540040000000 1.0
C      1  0.4767080000000  0.5434440000000  0.5516490000000 1.0
C      1  0.5563750000000  0.5434440000000  0.4943470000000 1.0
C      1  0.5589650000000  0.5143730000000  0.4535830000000 1.0
C      1  0.4303190000000  0.5143730000000  0.4721430000000 1.0
C      1  0.5107160000000  0.5143730000000  0.5742730000000 1.0
END
