TITL C-38185-7677-103 6.74306019164834e-06 125000 -373.376296834872 0 0 60 (C1) n - 1
REM
REM in /home/bkarasulu/CARBON/AIRSS/Generating-Clusters/EDIP-Nigel-Params/Higher-Symm/Box-15A/Only-C60/SD-CG/FIRE-HFTN
REM
REM
REM
REM
REM
REM ./C.cell (414f73aa93bd7a1190c7fd0f31ff2f98)
REM
REM compiler GCC version 9.2.1 20190827 (Red Hat 9.2.1-1)
REM options -cpp -mtune=generic -march=x86-64 -g -O0 -fpre-include=/usr/include/finclude/math-vector-fortran.h
REM seed 1425679427 -4263967 -46690164 -1498435884 802506929 -1432673435 -689580992 604535217 -2111549447 1180117578 2032384286 1852573551 726006252 -1642053017 -1769356137 -621313873 1881859118 1868268376 -1853716329 -551950835 1114919549 -560538178 -491163052 825550406 897259486 2040250639 161994083 -178507972 -1315937307 -234964866 797309516 -369244777 -2020862187
REM
CELL 1.54180   50.00000   50.00000   50.00000   90.00000   90.00000   90.00000
LATT -1
SFAC C  
C      1  0.5433830000000  0.5360360000000  0.4512250000000 1.0
C      1  0.4380880000000  0.5498890000000  0.5198590000000 1.0
C      1  0.5384210000000  0.4433350000000  0.5264060000000 1.0
C      1  0.5462780000000  0.4767130000000  0.5588060000000 1.0
C      1  0.4598990000000  0.4649100000000  0.4580660000000 1.0
C      1  0.4655950000000  0.5271210000000  0.5501000000000 1.0
C      1  0.4365920000000  0.4678560000000  0.4723350000000 1.0
C      1  0.5530960000000  0.4651780000000  0.5346800000000 1.0
C      1  0.5672690000000  0.5339700000000  0.4648360000000 1.0
C      1  0.5305760000000  0.5607160000000  0.4521630000000 1.0
C      1  0.4630220000000  0.5474320000000  0.5317000000000 1.0
C      1  0.4707410000000  0.4395610000000  0.4555080000000 1.0
C      1  0.4564400000000  0.5384130000000  0.4504820000000 1.0
C      1  0.5592370000000  0.5448230000000  0.5225890000000 1.0
C      1  0.4791540000000  0.4413820000000  0.5373860000000 1.0
C      1  0.4667860000000  0.4649390000000  0.5446700000000 1.0
C      1  0.5380880000000  0.4627350000000  0.4549740000000 1.0
C      1  0.5309980000000  0.5342650000000  0.5590740000000 1.0
C      1  0.5598830000000  0.4641030000000  0.4717880000000 1.0
C      1  0.4444730000000  0.4731980000000  0.5307750000000 1.0
C      1  0.4319440000000  0.5381340000000  0.4631880000000 1.0
C      1  0.4706670000000  0.5623310000000  0.4514410000000 1.0
C      1  0.5342350000000  0.5461870000000  0.5344290000000 1.0
C      1  0.5269810000000  0.4378500000000  0.4498040000000 1.0
C      1  0.4196660000000  0.5312090000000  0.5106770000000 1.0
C      1  0.5205990000000  0.4265480000000  0.5136450000000 1.0
C      1  0.5247420000000  0.5140240000000  0.4498360000000 1.0
C      1  0.4198530000000  0.4825540000000  0.4884640000000 1.0
C      1  0.5694160000000  0.4814330000000  0.5173910000000 1.0
C      1  0.5810500000000  0.5205620000000  0.4846490000000 1.0
C      1  0.5151710000000  0.5732810000000  0.4716730000000 1.0
C      1  0.4847390000000  0.5610070000000  0.5182590000000 1.0
C      1  0.4858320000000  0.4224400000000  0.4713700000000 1.0
C      1  0.5243260000000  0.4870230000000  0.5721660000000 1.0
C      1  0.4730460000000  0.4866170000000  0.4442550000000 1.0
C      1  0.4758630000000  0.5098200000000  0.5688980000000 1.0
C      1  0.5761220000000  0.5250650000000  0.5128270000000 1.0
C      1  0.4919340000000  0.4272410000000  0.5173980000000 1.0
C      1  0.4738860000000  0.5153070000000  0.4499230000000 1.0
C      1  0.5767820000000  0.4765640000000  0.4896300000000 1.0
C      1  0.4259490000000  0.4876450000000  0.5162960000000 1.0
C      1  0.4157630000000  0.5263100000000  0.4822540000000 1.0
C      1  0.4862550000000  0.5745650000000  0.4710620000000 1.0
C      1  0.5141700000000  0.5612460000000  0.5199800000000 1.0
C      1  0.5144970000000  0.4204820000000  0.4675320000000 1.0
C      1  0.4812790000000  0.4818610000000  0.5628420000000 1.0
C      1  0.5243580000000  0.4855210000000  0.4438180000000 1.0
C      1  0.5194230000000  0.5154330000000  0.5756510000000 1.0
C      1  0.5288770000000  0.4132730000000  0.4904910000000 1.0
C      1  0.4994970000000  0.5223380000000  0.4412970000000 1.0
C      1  0.4757600000000  0.5766530000000  0.4968640000000 1.0
C      1  0.5023750000000  0.4703410000000  0.5776030000000 1.0
C      1  0.4129850000000  0.5097950000000  0.5277680000000 1.0
C      1  0.5249530000000  0.5743910000000  0.4977720000000 1.0
C      1  0.4767670000000  0.4155430000000  0.4970200000000 1.0
C      1  0.4942610000000  0.5216140000000  0.5865250000000 1.0
C      1  0.4037020000000  0.5017420000000  0.4758590000000 1.0
C      1  0.5824480000000  0.5033180000000  0.5294140000000 1.0
C      1  0.5932970000000  0.4961850000000  0.4782450000000 1.0
C      1  0.4985090000000  0.4799720000000  0.4343610000000 1.0
END
