TITL C-38186-4112-148 7.89227885932398e-07 125000 -368.301766174535 0 0 60 (C3) n - 1
REM
REM in /home/bkarasulu/CARBON/AIRSS/Generating-Clusters/EDIP-Nigel-Params/Higher-Symm/Box-15A/Only-C60/SD-CG/FIRE-HFTN
REM
REM
REM
REM
REM
REM ./C.cell (414f73aa93bd7a1190c7fd0f31ff2f98)
REM
REM compiler GCC version 9.2.1 20190827 (Red Hat 9.2.1-1)
REM options -cpp -mtune=generic -march=x86-64 -g -O0 -fpre-include=/usr/include/finclude/math-vector-fortran.h
REM seed -105409838 -1046987607 -670127863 684500428 1127262893 2002444201 843431963 -315149073 -426254489 -1035932795 -854006438 -1341820896 -346185267 1435387038 -1888779043 -1939968558 1674255864 -119084220 -1728552152 471937687 -2027582324 1449899460 1394186684 -1062929399 1247652906 934086604 631450383 80212487 -1613090593 133904762 446150892 -1992376409 -1767437687
REM
CELL 1.54180   50.00000   50.00000   50.00000   90.00000   90.00000   90.00000
LATT -1
SFAC C  
C      1  0.4949730000000  0.4765570000000  0.5218900000000 1.0
C      1  0.5049080000000  0.5119040000000  0.5294420000000 1.0
C      1  0.4949730000000  0.5306790000000  0.5093570000000 1.0
C      1  0.5049080000000  0.5195460000000  0.4749700000000 1.0
C      1  0.4949730000000  0.4927640000000  0.4687530000000 1.0
C      1  0.5049080000000  0.4685500000000  0.4955880000000 1.0
C      1  0.5198750000000  0.5659990000000  0.5445160000000 1.0
C      1  0.4804100000000  0.5701950000000  0.4662200000000 1.0
C      1  0.5198750000000  0.5055530000000  0.4205860000000 1.0
C      1  0.4804100000000  0.4356480000000  0.4560990000000 1.0
C      1  0.5198750000000  0.4284490000000  0.5348990000000 1.0
C      1  0.4804100000000  0.4941570000000  0.5776810000000 1.0
C      1  0.5320060000000  0.4467070000000  0.5523390000000 1.0
C      1  0.4684020000000  0.5186740000000  0.5716390000000 1.0
C      1  0.5320060000000  0.5719740000000  0.5199840000000 1.0
C      1  0.4684020000000  0.5527050000000  0.4480080000000 1.0
C      1  0.5320060000000  0.4813190000000  0.4276770000000 1.0
C      1  0.4684020000000  0.4286220000000  0.4803520000000 1.0
C      1  0.4493350000000  0.4834010000000  0.4471750000000 1.0
C      1  0.5505700000000  0.4456620000000  0.4886350000000 1.0
C      1  0.4493350000000  0.4625520000000  0.5407880000000 1.0
C      1  0.5505700000000  0.5173260000000  0.5527400000000 1.0
C      1  0.4493350000000  0.5540470000000  0.5120370000000 1.0
C      1  0.5505700000000  0.5370110000000  0.4586250000000 1.0
C      1  0.4427380000000  0.4807930000000  0.5210010000000 1.0
C      1  0.5569770000000  0.5087640000000  0.5271300000000 1.0
C      1  0.4427380000000  0.5277910000000  0.5061330000000 1.0
C      1  0.5569770000000  0.5191130000000  0.4788450000000 1.0
C      1  0.4427380000000  0.4914160000000  0.4728660000000 1.0
C      1  0.5569770000000  0.4721230000000  0.4940250000000 1.0
C      1  0.4852850000000  0.5409330000000  0.5692850000000 1.0
C      1  0.5148350000000  0.5802010000000  0.4996060000000 1.0
C      1  0.4852850000000  0.5395360000000  0.4299080000000 1.0
C      1  0.5148350000000  0.4595580000000  0.4307410000000 1.0
C      1  0.4852850000000  0.4195310000000  0.5008070000000 1.0
C      1  0.5148350000000  0.4602410000000  0.5696530000000 1.0
C      1  0.4476090000000  0.5169920000000  0.5533290000000 1.0
C      1  0.5523400000000  0.5547410000000  0.5121270000000 1.0
C      1  0.4476090000000  0.5376880000000  0.4586200000000 1.0
C      1  0.5523400000000  0.4831320000000  0.4465290000000 1.0
C      1  0.4476090000000  0.4453200000000  0.4880510000000 1.0
C      1  0.5523400000000  0.4621270000000  0.5413430000000 1.0
C      1  0.5574740000000  0.4807140000000  0.5213560000000 1.0
C      1  0.4422360000000  0.5087030000000  0.5273940000000 1.0
C      1  0.5574740000000  0.5281380000000  0.5060240000000 1.0
C      1  0.4422360000000  0.5193730000000  0.4787660000000 1.0
C      1  0.5574740000000  0.4911480000000  0.4726200000000 1.0
C      1  0.4422360000000  0.4719240000000  0.4938400000000 1.0
C      1  0.4776850000000  0.5550230000000  0.5114440000000 1.0
C      1  0.5221250000000  0.5357670000000  0.4564930000000 1.0
C      1  0.4776850000000  0.4823990000000  0.4466270000000 1.0
C      1  0.5221250000000  0.4444380000000  0.4907780000000 1.0
C      1  0.4776850000000  0.4625780000000  0.5419300000000 1.0
C      1  0.5221250000000  0.5197950000000  0.5527290000000 1.0
C      1  0.5121240000000  0.4230450000000  0.5083050000000 1.0
C      1  0.4880940000000  0.4685050000000  0.5688290000000 1.0
C      1  0.5121240000000  0.5456700000000  0.5624920000000 1.0
C      1  0.4880940000000  0.5753550000000  0.4928620000000 1.0
C      1  0.5121240000000  0.5312850000000  0.4292030000000 1.0
C      1  0.4880930000000  0.4561400000000  0.4383100000000 1.0
END
