TITL C-38196-2854-225 -2.12809859133869e-07 125000 -348.940411123824 0 0 60 (S4) n - 1
REM
REM in /home/bkarasulu/CARBON/AIRSS/Generating-Clusters/EDIP-Nigel-Params/Higher-Symm/Box-15A/Only-C60/SD-CG/FIRE-HFTN
REM
REM
REM
REM
REM
REM ./C.cell (414f73aa93bd7a1190c7fd0f31ff2f98)
REM
REM compiler GCC version 9.2.1 20190827 (Red Hat 9.2.1-1)
REM options -cpp -mtune=generic -march=x86-64 -g -O0 -fpre-include=/usr/include/finclude/math-vector-fortran.h
REM seed 1594346675 -1215136344 597145397 -2098491664 -610267091 891250300 1032642039 1169465221 468878234 -31708612 -1822027454 1753640785 -1370283797 1972069484 1389831469 1271134723 2051061611 796905679 -212502755 -53101073 830024534 1583208360 1549782458 -1735676328 481028420 497289724 904848906 -242533398 503930276 1973011428 1108295035 -1146125812 -1428346053
REM
CELL 1.54180   50.00000   50.00000   50.00000   90.00000   90.00000   90.00000
LATT -1
SFAC C  
C      1  0.4656450000000  0.4310090000000  0.5003100000000 1.0
C      1  0.5689910000000  0.4656450000000  0.4996900000000 1.0
C      1  0.5343550000000  0.5689910000000  0.5003100000000 1.0
C      1  0.4310090000000  0.5343550000000  0.4996900000000 1.0
C      1  0.4508660000000  0.4869650000000  0.5575360000000 1.0
C      1  0.5130350000000  0.4508660000000  0.4424640000000 1.0
C      1  0.5491340000000  0.5130350000000  0.5575360000000 1.0
C      1  0.4869650000000  0.5491340000000  0.4424640000000 1.0
C      1  0.5100230000000  0.5335100000000  0.4512600000000 1.0
C      1  0.4664900000000  0.5100230000000  0.5487400000000 1.0
C      1  0.4899770000000  0.4664900000000  0.4512600000000 1.0
C      1  0.5335100000000  0.4899770000000  0.5487400000000 1.0
C      1  0.4669090000000  0.4611400000000  0.5527480000000 1.0
C      1  0.5388600000000  0.4669090000000  0.4472520000000 1.0
C      1  0.5330910000000  0.5388600000000  0.5527480000000 1.0
C      1  0.4611400000000  0.5330910000000  0.4472520000000 1.0
C      1  0.5371160000000  0.4952450000000  0.4571970000000 1.0
C      1  0.5047550000000  0.5371160000000  0.5428030000000 1.0
C      1  0.4628840000000  0.5047550000000  0.4571970000000 1.0
C      1  0.4952450000000  0.4628840000000  0.5428030000000 1.0
C      1  0.5464630000000  0.4659020000000  0.5418570000000 1.0
C      1  0.5340980000000  0.5464630000000  0.4581430000000 1.0
C      1  0.4535370000000  0.5340980000000  0.5418570000000 1.0
C      1  0.4659020000000  0.4535370000000  0.4581430000000 1.0
C      1  0.4963950000000  0.4815250000000  0.5178120000000 1.0
C      1  0.5184750000000  0.4963950000000  0.4821880000000 1.0
C      1  0.5036050000000  0.5184750000000  0.5178120000000 1.0
C      1  0.4815250000000  0.5036050000000  0.4821880000000 1.0
C      1  0.4339960000000  0.5071070000000  0.4936410000000 1.0
C      1  0.4928930000000  0.4339960000000  0.5063590000000 1.0
C      1  0.5660040000000  0.4928930000000  0.4936410000000 1.0
C      1  0.5071070000000  0.5660040000000  0.5063590000000 1.0
C      1  0.5800790000000  0.5124340000000  0.5053020000000 1.0
C      1  0.4875660000000  0.5800790000000  0.4946980000000 1.0
C      1  0.4199210000000  0.4875660000000  0.5053020000000 1.0
C      1  0.5124340000000  0.4199210000000  0.4946980000000 1.0
C      1  0.4963450000000  0.5629710000000  0.5310050000000 1.0
C      1  0.4370290000000  0.4963450000000  0.4689950000000 1.0
C      1  0.5036550000000  0.4370290000000  0.5310050000000 1.0
C      1  0.5629710000000  0.5036550000000  0.4689950000000 1.0
C      1  0.5263570000000  0.5144810000000  0.4376790000000 1.0
C      1  0.4855190000000  0.5263570000000  0.5623210000000 1.0
C      1  0.4736430000000  0.4855190000000  0.4376790000000 1.0
C      1  0.5144810000000  0.4736430000000  0.5623210000000 1.0
C      1  0.5508030000000  0.5391430000000  0.5281840000000 1.0
C      1  0.4608570000000  0.5508030000000  0.4718160000000 1.0
C      1  0.4491970000000  0.4608570000000  0.5281840000000 1.0
C      1  0.5391430000000  0.4491970000000  0.4718160000000 1.0
C      1  0.5404100000000  0.5453020000000  0.4859530000000 1.0
C      1  0.4546980000000  0.5404100000000  0.5140470000000 1.0
C      1  0.4595900000000  0.4546980000000  0.4859530000000 1.0
C      1  0.5453020000000  0.4595900000000  0.5140470000000 1.0
C      1  0.4253550000000  0.4776070000000  0.5311150000000 1.0
C      1  0.5223930000000  0.4253550000000  0.4688850000000 1.0
C      1  0.5746450000000  0.5223930000000  0.5311150000000 1.0
C      1  0.4776070000000  0.5746450000000  0.4688850000000 1.0
C      1  0.4683860000000  0.4804480000000  0.5017350000000 1.0
C      1  0.5195520000000  0.4683860000000  0.4982650000000 1.0
C      1  0.5316140000000  0.5195520000000  0.5017350000000 1.0
C      1  0.4804480000000  0.5316140000000  0.4982650000000 1.0
END
