TITL C-38194-9318-428 0.0460487871725184 125000 -340.049408900729 0 0 60 (Ci) n - 1
REM
REM in /home/bkarasulu/CARBON/AIRSS/Generating-Clusters/EDIP-Nigel-Params/Higher-Symm/Box-15A/Only-C60/SD-CG/FIRE-HFTN
REM
REM
REM
REM
REM
REM ./C.cell (414f73aa93bd7a1190c7fd0f31ff2f98)
REM
REM compiler GCC version 9.2.1 20190827 (Red Hat 9.2.1-1)
REM options -cpp -mtune=generic -march=x86-64 -g -O0 -fpre-include=/usr/include/finclude/math-vector-fortran.h
REM seed 1793390703 1263703455 -293090233 -516237290 1757978763 -1237575706 -1819742647 -2075057430 -19880432 1803472221 116468861 -1300707091 244680322 88825186 -593848291 271445488 1000571167 534953121 177406408 1881209786 -1285608253 -570999773 -915949359 -1899538724 -1262481165 -1401812736 1080739900 -516710383 105702777 -199996821 360355105 1448820655 -1284372954
REM
CELL 1.54180   50.00000   50.00000   50.00000   90.00000   90.00000   90.00000
LATT -1
SFAC C  
C      1  0.4844770000000  0.4484360000000  0.5494600000000 1.0
C      1  0.5155230000000  0.5515640000000  0.4505400000000 1.0
C      1  0.4863590000000  0.4991740000000  0.4182760000000 1.0
C      1  0.5136410000000  0.5008260000000  0.5817240000000 1.0
C      1  0.5046290000000  0.4758940000000  0.5836340000000 1.0
C      1  0.4953710000000  0.5241060000000  0.4163660000000 1.0
C      1  0.5939120000000  0.5076480000000  0.4243510000000 1.0
C      1  0.4060880000000  0.4923520000000  0.5756490000000 1.0
C      1  0.5418870000000  0.5326410000000  0.4164600000000 1.0
C      1  0.4581130000000  0.4673590000000  0.5835400000000 1.0
C      1  0.4627330000000  0.4589970000000  0.4311290000000 1.0
C      1  0.5372670000000  0.5410030000000  0.5688710000000 1.0
C      1  0.4717520000000  0.5472340000000  0.5290940000000 1.0
C      1  0.5282480000000  0.4527660000000  0.4709060000000 1.0
C      1  0.4257480000000  0.4901660000000  0.5552740000000 1.0
C      1  0.5742520000000  0.5098340000000  0.4447260000000 1.0
C      1  0.4425930000000  0.5132420000000  0.5557490000000 1.0
C      1  0.5574070000000  0.4867580000000  0.4442510000000 1.0
C      1  0.4333240000000  0.5454070000000  0.4939990000000 1.0
C      1  0.5666760000000  0.4545930000000  0.5060010000000 1.0
C      1  0.5113530000000  0.3886460000000  0.5162480000000 1.0
C      1  0.4886470000000  0.6113540000000  0.4837520000000 1.0
C      1  0.4859080000000  0.4750890000000  0.4319820000000 1.0
C      1  0.5140920000000  0.5249110000000  0.5680180000000 1.0
C      1  0.4136260000000  0.4921650000000  0.4818470000000 1.0
C      1  0.5863740000000  0.5078350000000  0.5181530000000 1.0
C      1  0.4529040000000  0.4327160000000  0.5230850000000 1.0
C      1  0.5470960000000  0.5672840000000  0.4769150000000 1.0
C      1  0.5374630000000  0.4712820000000  0.4528280000000 1.0
C      1  0.4625370000000  0.5287180000000  0.5471720000000 1.0
C      1  0.5853350000000  0.4695280000000  0.4917260000000 1.0
C      1  0.4146650000000  0.5304720000000  0.5082740000000 1.0
C      1  0.5572620000000  0.5339490000000  0.4398860000000 1.0
C      1  0.4427380000000  0.4660510000000  0.5601140000000 1.0
C      1  0.4823650000000  0.4503230000000  0.4500770000000 1.0
C      1  0.5176350000000  0.5496770000000  0.5499230000000 1.0
C      1  0.4838500000000  0.4593260000000  0.5760510000000 1.0
C      1  0.5161500000000  0.5406740000000  0.4239490000000 1.0
C      1  0.4548810000000  0.5546880000000  0.5085950000000 1.0
C      1  0.5451190000000  0.4453120000000  0.4914050000000 1.0
C      1  0.4262960000000  0.5108540000000  0.4668020000000 1.0
C      1  0.5737040000000  0.4891460000000  0.5331980000000 1.0
C      1  0.4589200000000  0.4562760000000  0.5379670000000 1.0
C      1  0.5410800000000  0.5437240000000  0.4620330000000 1.0
C      1  0.5024470000000  0.4408340000000  0.4686840000000 1.0
C      1  0.4975530000000  0.5591660000000  0.5313160000000 1.0
C      1  0.5240860000000  0.5830750000000  0.4704920000000 1.0
C      1  0.4759140000000  0.4169250000000  0.5295080000000 1.0
C      1  0.6120740000000  0.5065450000000  0.4062750000000 1.0
C      1  0.3879260000000  0.4934550000000  0.5937250000000 1.0
C      1  0.5916030000000  0.4965900000000  0.4931370000000 1.0
C      1  0.4083970000000  0.5034100000000  0.5068630000000 1.0
C      1  0.4378580000000  0.5353470000000  0.4683160000000 1.0
C      1  0.5621420000000  0.4646530000000  0.5316840000000 1.0
C      1  0.4959860000000  0.4203890000000  0.4858660000000 1.0
C      1  0.5040140000000  0.5796110000000  0.5141340000000 1.0
C      1  0.4930040000000  0.4063840000000  0.5093530000000 1.0
C      1  0.5069960000000  0.5936160000000  0.4906470000000 1.0
C      1  0.5870830000000  0.5113880000000  0.4702410000000 1.0
C      1  0.4129170000000  0.4886120000000  0.5297590000000 1.0
END
