TITL C-38198-1686-258 374.186266695363 125000 -351.692132412342 0 0 60 (C1) n - 1
REM
REM in /home/bkarasulu/CARBON/AIRSS/Generating-Clusters/EDIP-Nigel-Params/Higher-Symm/Box-15A/Only-C60/SD-CG/FIRE-HFTN
REM
REM
REM
REM
REM
REM ./C.cell (414f73aa93bd7a1190c7fd0f31ff2f98)
REM
REM compiler GCC version 9.2.1 20190827 (Red Hat 9.2.1-1)
REM options -cpp -mtune=generic -march=x86-64 -g -O0 -fpre-include=/usr/include/finclude/math-vector-fortran.h
REM seed 769970536 966038163 -61937015 361579616 -1094289534 464761161 1039455489 -724909941 -63733572 11482045 613415196 -1093058080 1525914653 -1255888395 1138513432 -965753600 311885501 -1322123259 1089113313 866998793 -1885392933 972060667 697465647 -1027387080 -1554974569 1547343981 -1805140496 1679897855 1559689020 1194970752 760214908 1590246466 -775997596
REM
CELL 1.54180   50.00000   50.00000   50.00000   90.00000   90.00000   90.00000
LATT -1
SFAC C  
C      1  0.4481940000000  0.4931090000000  0.5079430000000 1.0
C      1  0.4545570000000  0.4899740000000  0.5357640000000 1.0
C      1  0.4758420000000  0.5042270000000  0.5479940000000 1.0
C      1  0.5042260000000  0.5037590000000  0.5521430000000 1.0
C      1  0.5182570000000  0.5210700000000  0.5316880000000 1.0
C      1  0.5365730000000  0.5050390000000  0.5136770000000 1.0
C      1  0.5392220000000  0.5082050000000  0.4843800000000 1.0
C      1  0.5176960000000  0.5167210000000  0.4678800000000 1.0
C      1  0.4963450000000  0.5049170000000  0.4525290000000 1.0
C      1  0.4670780000000  0.5025550000000  0.4611960000000 1.0
C      1  0.4527120000000  0.4849440000000  0.4806480000000 1.0
C      1  0.4854240000000  0.4425280000000  0.5708820000000 1.0
C      1  0.5127460000000  0.4515340000000  0.5678710000000 1.0
C      1  0.5604960000000  0.4549340000000  0.5599750000000 1.0
C      1  0.5680490000000  0.4648120000000  0.5136170000000 1.0
C      1  0.5684470000000  0.4658540000000  0.4848160000000 1.0
C      1  0.5449680000000  0.4598910000000  0.4368460000000 1.0
C      1  0.5167270000000  0.4579800000000  0.4298180000000 1.0
C      1  0.4638750000000  0.4444790000000  0.4376110000000 1.0
C      1  0.4427730000000  0.4385860000000  0.4567260000000 1.0
C      1  0.4363690000000  0.4385940000000  0.5087530000000 1.0
C      1  0.4437420000000  0.4393220000000  0.5364320000000 1.0
C      1  0.5035890000000  0.5591660000000  0.5030920000000 1.0
C      1  0.4858470000000  0.5691780000000  0.4846500000000 1.0
C      1  0.4737810000000  0.5873170000000  0.4695630000000 1.0
C      1  0.4689820000000  0.6121070000000  0.4616210000000 1.0
C      1  0.4736690000000  0.6380910000000  0.4637970000000 1.0
C      1  0.4872800000000  0.6570310000000  0.4764000000000 1.0
C      1  0.5052720000000  0.6616030000000  0.4953350000000 1.0
C      1  0.5208370000000  0.6500780000000  0.5134370000000 1.0
C      1  0.5286530000000  0.6272710000000  0.5244200000000 1.0
C      1  0.5271360000000  0.6008760000000  0.5257160000000 1.0
C      1  0.5177140000000  0.5772770000000  0.5181900000000 1.0
C      1  0.5580530000000  0.4372540000000  0.5171720000000 1.0
C      1  0.5613660000000  0.4382030000000  0.4788120000000 1.0
C      1  0.5459880000000  0.4359630000000  0.4545910000000 1.0
C      1  0.5116230000000  0.4306850000000  0.4390350000000 1.0
C      1  0.4844830000000  0.4261500000000  0.4476250000000 1.0
C      1  0.4570430000000  0.4171480000000  0.4719000000000 1.0
C      1  0.4517110000000  0.4156610000000  0.4999900000000 1.0
C      1  0.4619540000000  0.4159840000000  0.5367740000000 1.0
C      1  0.4858230000000  0.4199860000000  0.5522390000000 1.0
C      1  0.5234340000000  0.4283750000000  0.5530230000000 1.0
C      1  0.5513970000000  0.4323800000000  0.5453200000000 1.0
C      1  0.5486000000000  0.4800720000000  0.5546010000000 1.0
C      1  0.5563520000000  0.4885140000000  0.5276410000000 1.0
C      1  0.5538060000000  0.4870650000000  0.4708760000000 1.0
C      1  0.5542070000000  0.4859450000000  0.4430160000000 1.0
C      1  0.4979380000000  0.4778530000000  0.4410810000000 1.0
C      1  0.4703290000000  0.4722630000000  0.4372430000000 1.0
C      1  0.4333970000000  0.4635400000000  0.4723260000000 1.0
C      1  0.4178390000000  0.4545930000000  0.4945560000000 1.0
C      1  0.4535760000000  0.4639270000000  0.5486550000000 1.0
C      1  0.4646400000000  0.4614120000000  0.5742470000000 1.0
C      1  0.5195080000000  0.4784970000000  0.5569740000000 1.0
C      1  0.4972970000000  0.5335300000000  0.5150730000000 1.0
C      1  0.5087700000000  0.4352150000000  0.4992290000000 1.0
C      1  0.5034650000000  0.4602430000000  0.4991000000000 1.0
C      1  0.4872180000000  0.5117840000000  0.4995070000000 1.0
C      1  0.4914910000000  0.4841440000000  0.5023640000000 1.0
END
