TITL C-38199-1586-37 -2.23378822502691e-05 125000 -356.25224221628 0 0 60 (C1) n - 1
REM
REM in /home/bkarasulu/CARBON/AIRSS/Generating-Clusters/EDIP-Nigel-Params/Higher-Symm/Box-15A/Only-C60/SD-CG/FIRE-HFTN
REM
REM
REM
REM
REM
REM ./C.cell (414f73aa93bd7a1190c7fd0f31ff2f98)
REM
REM compiler GCC version 9.2.1 20190827 (Red Hat 9.2.1-1)
REM options -cpp -mtune=generic -march=x86-64 -g -O0 -fpre-include=/usr/include/finclude/math-vector-fortran.h
REM seed 508121685 -581961435 -259920748 -779096113 -1909243771 2120506872 -331096018 1310925163 462882821 -1962302291 -1721902505 2051094533 -505213696 605085900 651472827 -885041262 1764305777 -738716631 409102897 901120932 1192794889 -1268569280 1359713449 472581313 15130549 103048537 -690410431 -1581637346 1840134238 -1888826009 951549449 -579123586 -1455164436
REM
CELL 1.54180   50.00000   50.00000   50.00000   90.00000   90.00000   90.00000
LATT -1
SFAC C  
C      1  0.4709770000000  0.4728040000000  0.4586350000000 1.0
C      1  0.5478880000000  0.4728090000000  0.4958970000000 1.0
C      1  0.4776850000000  0.4635540000000  0.5413530000000 1.0
C      1  0.5645650000000  0.5197530000000  0.4730310000000 1.0
C      1  0.4958530000000  0.5296090000000  0.5722150000000 1.0
C      1  0.4430420000000  0.5189640000000  0.4551720000000 1.0
C      1  0.4826890000000  0.4446900000000  0.4655200000000 1.0
C      1  0.5376590000000  0.4439960000000  0.5008190000000 1.0
C      1  0.4812480000000  0.4371350000000  0.5252830000000 1.0
C      1  0.5292380000000  0.4854660000000  0.5145410000000 1.0
C      1  0.4772440000000  0.4856400000000  0.5222120000000 1.0
C      1  0.4933830000000  0.4918020000000  0.4619820000000 1.0
C      1  0.5318690000000  0.4677570000000  0.4455600000000 1.0
C      1  0.5265170000000  0.4627620000000  0.5563110000000 1.0
C      1  0.4386810000000  0.4686680000000  0.5000080000000 1.0
C      1  0.4928130000000  0.5088300000000  0.5279500000000 1.0
C      1  0.5014580000000  0.5059560000000  0.4836670000000 1.0
C      1  0.5129640000000  0.5073820000000  0.5083220000000 1.0
C      1  0.4980640000000  0.4677680000000  0.5623900000000 1.0
C      1  0.4479470000000  0.4777280000000  0.4751980000000 1.0
C      1  0.5440850000000  0.4792140000000  0.4678970000000 1.0
C      1  0.5024710000000  0.5116240000000  0.4095300000000 1.0
C      1  0.5675650000000  0.5125490000000  0.5475160000000 1.0
C      1  0.4273800000000  0.5098240000000  0.5449930000000 1.0
C      1  0.4403000000000  0.4842840000000  0.5522270000000 1.0
C      1  0.4931170000000  0.4839860000000  0.4147160000000 1.0
C      1  0.5721000000000  0.4851250000000  0.5374990000000 1.0
C      1  0.5268390000000  0.5515880000000  0.4899780000000 1.0
C      1  0.4935900000000  0.5532280000000  0.5263700000000 1.0
C      1  0.4783710000000  0.5493670000000  0.4791840000000 1.0
C      1  0.5127120000000  0.4899670000000  0.4400840000000 1.0
C      1  0.5393150000000  0.4865260000000  0.5422090000000 1.0
C      1  0.4483890000000  0.4879980000000  0.5207250000000 1.0
C      1  0.5755060000000  0.4821700000000  0.5069270000000 1.0
C      1  0.4651330000000  0.4867820000000  0.5703050000000 1.0
C      1  0.4656050000000  0.4808580000000  0.4286660000000 1.0
C      1  0.4715720000000  0.5548610000000  0.5071040000000 1.0
C      1  0.5056670000000  0.5546750000000  0.4698550000000 1.0
C      1  0.5209950000000  0.5587660000000  0.5177890000000 1.0
C      1  0.5303170000000  0.4400420000000  0.5383250000000 1.0
C      1  0.4487230000000  0.4421620000000  0.5047100000000 1.0
C      1  0.5187960000000  0.4430980000000  0.4526750000000 1.0
C      1  0.4648860000000  0.5367640000000  0.4289880000000 1.0
C      1  0.5756460000000  0.5376420000000  0.5052680000000 1.0
C      1  0.4596890000000  0.5408900000000  0.5649760000000 1.0
C      1  0.5176650000000  0.4365200000000  0.4801540000000 1.0
C      1  0.5093540000000  0.4293030000000  0.5228960000000 1.0
C      1  0.4702060000000  0.4320080000000  0.4892190000000 1.0
C      1  0.4497960000000  0.5071760000000  0.4283090000000 1.0
C      1  0.5836940000000  0.5082740000000  0.4932400000000 1.0
C      1  0.4710500000000  0.5147860000000  0.5798500000000 1.0
C      1  0.5549980000000  0.5466090000000  0.4823580000000 1.0
C      1  0.4876390000000  0.5530240000000  0.5553280000000 1.0
C      1  0.4572370000000  0.5451060000000  0.4590230000000 1.0
C      1  0.5612740000000  0.5348050000000  0.5308350000000 1.0
C      1  0.4432120000000  0.5333700000000  0.5414960000000 1.0
C      1  0.4942310000000  0.5337280000000  0.4258500000000 1.0
C      1  0.5413320000000  0.5535240000000  0.5362240000000 1.0
C      1  0.4467870000000  0.5470330000000  0.5172450000000 1.0
C      1  0.5109700000000  0.5476700000000  0.4433920000000 1.0
END
