TITL C-38189-4514-561 -8.71822377759422e-06 125000 -364.978674986337 0 0 60 (Cs) n - 1
REM
REM in /home/bkarasulu/CARBON/AIRSS/Generating-Clusters/EDIP-Nigel-Params/Higher-Symm/Box-15A/Only-C60/SD-CG/FIRE-HFTN
REM
REM
REM
REM
REM
REM ./C.cell (414f73aa93bd7a1190c7fd0f31ff2f98)
REM
REM compiler GCC version 9.2.1 20190827 (Red Hat 9.2.1-1)
REM options -cpp -mtune=generic -march=x86-64 -g -O0 -fpre-include=/usr/include/finclude/math-vector-fortran.h
REM seed -1263919681 85967159 431807312 413732041 9778076 -2143238434 -1048780858 533185771 -109242036 -790605142 492642589 1600932566 105365283 -2101008906 -1638070649 454355313 930401083 1344573003 375216458 1841768582 -1089867166 -2075708753 -1003181478 110910216 -1228358133 -1298215420 -366290772 333467659 618101062 257475394 392178708 -556878717 1350147606
REM
CELL 1.54180   50.00000   50.00000   50.00000   90.00000   90.00000   90.00000
LATT -1
SFAC C  
C      1  0.4417560000000  0.4622670000000  0.5126260000000 1.0
C      1  0.5563410000000  0.5378020000000  0.5173020000000 1.0
C      1  0.5574260000000  0.4622670000000  0.5126260000000 1.0
C      1  0.4428410000000  0.5378020000000  0.5173020000000 1.0
C      1  0.5245560000000  0.5166450000000  0.5093670000000 1.0
C      1  0.4745400000000  0.4824290000000  0.5074880000000 1.0
C      1  0.4746260000000  0.5166450000000  0.5093670000000 1.0
C      1  0.5246420000000  0.4824290000000  0.5074880000000 1.0
C      1  0.5233720000000  0.5430380000000  0.4513130000000 1.0
C      1  0.4757450000000  0.4515580000000  0.4466300000000 1.0
C      1  0.4758100000000  0.5430380000000  0.4513130000000 1.0
C      1  0.5234370000000  0.4515580000000  0.4466300000000 1.0
C      1  0.5255910000000  0.4282690000000  0.4963300000000 1.0
C      1  0.4744180000000  0.5722570000000  0.4999520000000 1.0
C      1  0.4735910000000  0.4282690000000  0.4963300000000 1.0
C      1  0.5247640000000  0.5722570000000  0.4999520000000 1.0
C      1  0.4842540000000  0.5232830000000  0.4300790000000 1.0
C      1  0.5147560000000  0.4696340000000  0.4241250000000 1.0
C      1  0.5149290000000  0.5232830000000  0.4300790000000 1.0
C      1  0.4844260000000  0.4696340000000  0.4241250000000 1.0
C      1  0.4489650000000  0.4691090000000  0.5404730000000 1.0
C      1  0.5498660000000  0.5262990000000  0.5435660000000 1.0
C      1  0.5502170000000  0.4691090000000  0.5404730000000 1.0
C      1  0.4493160000000  0.5262990000000  0.5435660000000 1.0
C      1  0.5251860000000  0.4573950000000  0.5533800000000 1.0
C      1  0.4727980000000  0.5387710000000  0.5591340000000 1.0
C      1  0.4739960000000  0.4573950000000  0.5533800000000 1.0
C      1  0.5263840000000  0.5387710000000  0.5591340000000 1.0
C      1  0.4535240000000  0.4480470000000  0.4903600000000 1.0
C      1  0.5451120000000  0.5526730000000  0.4951850000000 1.0
C      1  0.5456580000000  0.4480470000000  0.4903600000000 1.0
C      1  0.4540700000000  0.5526730000000  0.4951850000000 1.0
C      1  0.5260400000000  0.4928720000000  0.5690920000000 1.0
C      1  0.4763960000000  0.5190340000000  0.5815950000000 1.0
C      1  0.4731420000000  0.4928720000000  0.5690920000000 1.0
C      1  0.5227860000000  0.5190340000000  0.5815950000000 1.0
C      1  0.5438180000000  0.4634330000000  0.4641420000000 1.0
C      1  0.4534210000000  0.5374360000000  0.4697090000000 1.0
C      1  0.4553640000000  0.4634330000000  0.4641420000000 1.0
C      1  0.5457610000000  0.5374360000000  0.4697090000000 1.0
C      1  0.4392490000000  0.5119000000000  0.4676670000000 1.0
C      1  0.5537980000000  0.4895680000000  0.4498950000000 1.0
C      1  0.5599330000000  0.5119000000000  0.4676670000000 1.0
C      1  0.4453850000000  0.4895680000000  0.4498950000000 1.0
C      1  0.4577180000000  0.4975580000000  0.5451600000000 1.0
C      1  0.5414640000000  0.4975580000000  0.5451600000000 1.0
C      1  0.4995910000000  0.5585550000000  0.4944480000000 1.0
C      1  0.4995910000000  0.4410470000000  0.4914640000000 1.0
C      1  0.5260080000000  0.4949520000000  0.4366080000000 1.0
C      1  0.4731740000000  0.4949520000000  0.4366080000000 1.0
C      1  0.4995910000000  0.5330770000000  0.5136500000000 1.0
C      1  0.4995910000000  0.4659630000000  0.5110070000000 1.0
C      1  0.4995910000000  0.4562390000000  0.5392970000000 1.0
C      1  0.4995910000000  0.5408690000000  0.5432660000000 1.0
C      1  0.4995910000000  0.5533630000000  0.4645630000000 1.0
C      1  0.4995910000000  0.4461170000000  0.4618370000000 1.0
C      1  0.5254430000000  0.5001040000000  0.4808850000000 1.0
C      1  0.4737390000000  0.5001040000000  0.4808850000000 1.0
C      1  0.4995910000000  0.5236400000000  0.5966160000000 1.0
C      1  0.4995910000000  0.5010450000000  0.4644820000000 1.0
END
