TITL C-38184-643-388 -4.84728047081069e-07 125000 -352.717953272338 0 0 60 (C2h) n - 1
REM
REM in /home/bkarasulu/CARBON/AIRSS/Generating-Clusters/EDIP-Nigel-Params/Higher-Symm/Box-15A/Only-C60/SD-CG/FIRE-HFTN
REM
REM
REM
REM
REM
REM ./C.cell (414f73aa93bd7a1190c7fd0f31ff2f98)
REM
REM compiler GCC version 9.2.1 20190827 (Red Hat 9.2.1-1)
REM options -cpp -mtune=generic -march=x86-64 -g -O0 -fpre-include=/usr/include/finclude/math-vector-fortran.h
REM seed -1707733522 -1223835677 -2054470008 -333288756 -336439265 2037262836 -1142214221 1014334976 -1595774584 1682569824 986570547 1267470845 925492345 1096981053 -1874450070 -1685361117 -1483513496 2127903213 -122242433 -1337597549 -299633880 986960254 -1564000499 -1917308212 1319563748 1753107937 473374575 -927387532 -1390077467 -1765026893 2107202390 211621725 1472858112
REM
CELL 1.54180   50.00000   50.00000   50.00000   90.00000   90.00000   90.00000
LATT -1
SFAC C  
C      1  0.5397630000000  0.4409860000000  0.5148070000000 1.0
C      1  0.4602370000000  0.4409860000000  0.4851930000000 1.0
C      1  0.5397630000000  0.5590140000000  0.5148070000000 1.0
C      1  0.4602370000000  0.5590140000000  0.4851930000000 1.0
C      1  0.4986090000000  0.5257160000000  0.5529510000000 1.0
C      1  0.5013910000000  0.5257160000000  0.4470490000000 1.0
C      1  0.4986090000000  0.4742840000000  0.5529510000000 1.0
C      1  0.5013910000000  0.4742840000000  0.4470490000000 1.0
C      1  0.4541710000000  0.4849540000000  0.4812980000000 1.0
C      1  0.5458290000000  0.4849540000000  0.5187020000000 1.0
C      1  0.4541710000000  0.5150460000000  0.4812980000000 1.0
C      1  0.5458290000000  0.5150460000000  0.5187020000000 1.0
C      1  0.4684250000000  0.4427140000000  0.5124540000000 1.0
C      1  0.5315750000000  0.4427140000000  0.4875460000000 1.0
C      1  0.4684250000000  0.5572860000000  0.5124540000000 1.0
C      1  0.5315750000000  0.5572860000000  0.4875460000000 1.0
C      1  0.4996110000000  0.5694530000000  0.4476110000000 1.0
C      1  0.5003890000000  0.5694530000000  0.5523890000000 1.0
C      1  0.4996110000000  0.4305470000000  0.4476110000000 1.0
C      1  0.5003890000000  0.4305470000000  0.5523890000000 1.0
C      1  0.5271540000000  0.5291560000000  0.4753200000000 1.0
C      1  0.4728460000000  0.5291560000000  0.5246800000000 1.0
C      1  0.5271540000000  0.4708440000000  0.4753200000000 1.0
C      1  0.4728460000000  0.4708440000000  0.5246800000000 1.0
C      1  0.4754360000000  0.5144830000000  0.4423210000000 1.0
C      1  0.5245640000000  0.5144830000000  0.5576790000000 1.0
C      1  0.4754360000000  0.4855170000000  0.4423210000000 1.0
C      1  0.5245640000000  0.4855170000000  0.5576790000000 1.0
C      1  0.4893640000000  0.4521080000000  0.5681670000000 1.0
C      1  0.5106360000000  0.4521080000000  0.4318330000000 1.0
C      1  0.4893640000000  0.5478920000000  0.5681670000000 1.0
C      1  0.5106360000000  0.5478920000000  0.4318330000000 1.0
C      1  0.5508880000000  0.4851350000000  0.4626020000000 1.0
C      1  0.4491120000000  0.4851350000000  0.5373980000000 1.0
C      1  0.5508880000000  0.5148650000000  0.4626020000000 1.0
C      1  0.4491120000000  0.5148650000000  0.5373980000000 1.0
C      1  0.4625210000000  0.5420980000000  0.5742010000000 1.0
C      1  0.5374790000000  0.5420980000000  0.4257990000000 1.0
C      1  0.4625210000000  0.4579020000000  0.5742010000000 1.0
C      1  0.5374790000000  0.4579020000000  0.4257990000000 1.0
C      1  0.4853590000000  0.4406800000000  0.4713450000000 1.0
C      1  0.5146410000000  0.4406800000000  0.5286550000000 1.0
C      1  0.4853590000000  0.5593200000000  0.4713450000000 1.0
C      1  0.5146410000000  0.5593200000000  0.5286550000000 1.0
C      1  0.5468090000000  0.4737230000000  0.5448660000000 1.0
C      1  0.4531910000000  0.4737230000000  0.4551340000000 1.0
C      1  0.5468090000000  0.5262770000000  0.5448660000000 1.0
C      1  0.4531910000000  0.5262770000000  0.4551340000000 1.0
C      1  0.5195040000000  0.4843170000000  0.5007300000000 1.0
C      1  0.4804960000000  0.4843170000000  0.4992700000000 1.0
C      1  0.5195040000000  0.5156830000000  0.5007300000000 1.0
C      1  0.4804960000000  0.5156830000000  0.4992700000000 1.0
C      1  0.4485890000000  0.5189770000000  0.5662030000000 1.0
C      1  0.5514110000000  0.5189770000000  0.4337970000000 1.0
C      1  0.4485890000000  0.4810230000000  0.5662030000000 1.0
C      1  0.5514110000000  0.4810230000000  0.4337970000000 1.0
C      1  0.5069890000000  0.5742340000000  0.4856680000000 1.0
C      1  0.4930110000000  0.5742340000000  0.5143320000000 1.0
C      1  0.5069890000000  0.4257660000000  0.4856680000000 1.0
C      1  0.4930110000000  0.4257660000000  0.5143320000000 1.0
END
