TITL C-38186-4112-431 -5.2687751028436e-05 125000 -349.580832378236 0 0 60 (C1) n - 1
REM
REM in /home/bkarasulu/CARBON/AIRSS/Generating-Clusters/EDIP-Nigel-Params/Higher-Symm/Box-15A/Only-C60/SD-CG/FIRE-HFTN
REM
REM
REM
REM
REM
REM ./C.cell (414f73aa93bd7a1190c7fd0f31ff2f98)
REM
REM compiler GCC version 9.2.1 20190827 (Red Hat 9.2.1-1)
REM options -cpp -mtune=generic -march=x86-64 -g -O0 -fpre-include=/usr/include/finclude/math-vector-fortran.h
REM seed -936032400 1206431711 371632600 -726355617 -1487027942 1926908768 -1279194594 -935647727 671289011 1535269771 -225560874 -191225479 396035264 1060985627 727094365 -435340544 -523088772 1821126745 184072031 1589125560 -945238024 -334005714 -77695460 175037031 171374769 -465805530 2047371384 -1515718447 767193747 265895862 -2111771409 -690911720 395568998
REM
CELL 1.54180   50.00000   50.00000   50.00000   90.00000   90.00000   90.00000
LATT -1
SFAC C  
C      1  0.4575320000000  0.5255760000000  0.4410750000000 1.0
C      1  0.4747630000000  0.5197130000000  0.5654140000000 1.0
C      1  0.5714190000000  0.5311260000000  0.4865330000000 1.0
C      1  0.4582440000000  0.4743920000000  0.4550870000000 1.0
C      1  0.4836850000000  0.4684510000000  0.5638940000000 1.0
C      1  0.5537380000000  0.4788010000000  0.4808740000000 1.0
C      1  0.5419760000000  0.5271280000000  0.4395690000000 1.0
C      1  0.5266640000000  0.5250220000000  0.5660860000000 1.0
C      1  0.4307060000000  0.5304680000000  0.4879920000000 1.0
C      1  0.5428690000000  0.4748880000000  0.4519780000000 1.0
C      1  0.5139170000000  0.4712850000000  0.5632460000000 1.0
C      1  0.4436640000000  0.4770090000000  0.4826400000000 1.0
C      1  0.4735570000000  0.4506160000000  0.4482790000000 1.0
C      1  0.4697800000000  0.4457430000000  0.5527940000000 1.0
C      1  0.5538820000000  0.4634520000000  0.5151960000000 1.0
C      1  0.4745960000000  0.5483310000000  0.4368150000000 1.0
C      1  0.4605200000000  0.5393050000000  0.5504800000000 1.0
C      1  0.5644560000000  0.5493210000000  0.5071030000000 1.0
C      1  0.5276200000000  0.4509690000000  0.4451920000000 1.0
C      1  0.5299430000000  0.4491450000000  0.5551280000000 1.0
C      1  0.4378840000000  0.4614750000000  0.5168300000000 1.0
C      1  0.5239080000000  0.5492960000000  0.4362350000000 1.0
C      1  0.5418090000000  0.5422910000000  0.5494610000000 1.0
C      1  0.4375700000000  0.5485100000000  0.5086440000000 1.0
C      1  0.4999850000000  0.5140380000000  0.4414370000000 1.0
C      1  0.4505930000000  0.5080400000000  0.5212070000000 1.0
C      1  0.5438000000000  0.4845580000000  0.5338580000000 1.0
C      1  0.5513000000000  0.5094370000000  0.5216390000000 1.0
C      1  0.5003200000000  0.4841070000000  0.4466110000000 1.0
C      1  0.4576710000000  0.4817970000000  0.5308910000000 1.0
C      1  0.5172570000000  0.4393370000000  0.5151650000000 1.0
C      1  0.5026620000000  0.4497260000000  0.4812270000000 1.0
C      1  0.4742710000000  0.4417210000000  0.5066760000000 1.0
C      1  0.4816790000000  0.5486330000000  0.5098980000000 1.0
C      1  0.4997320000000  0.5545760000000  0.4756720000000 1.0
C      1  0.5204300000000  0.5508770000000  0.5102620000000 1.0
C      1  0.4661710000000  0.4917280000000  0.5670610000000 1.0
C      1  0.5328610000000  0.4947270000000  0.5699590000000 1.0
C      1  0.5688050000000  0.5017790000000  0.4982730000000 1.0
C      1  0.4654680000000  0.4965020000000  0.4342240000000 1.0
C      1  0.4310680000000  0.5011830000000  0.4993000000000 1.0
C      1  0.5344360000000  0.4979770000000  0.4329280000000 1.0
C      1  0.4581400000000  0.5551120000000  0.5269340000000 1.0
C      1  0.5417730000000  0.4405580000000  0.5302580000000 1.0
C      1  0.4550830000000  0.4379100000000  0.5290340000000 1.0
C      1  0.5009550000000  0.4402810000000  0.4528490000000 1.0
C      1  0.4991050000000  0.5605030000000  0.4456500000000 1.0
C      1  0.5447480000000  0.5575700000000  0.5257340000000 1.0
C      1  0.5106790000000  0.4699700000000  0.5195200000000 1.0
C      1  0.5252870000000  0.5204240000000  0.5110710000000 1.0
C      1  0.5007280000000  0.5239700000000  0.4705830000000 1.0
C      1  0.4775840000000  0.5183070000000  0.5110830000000 1.0
C      1  0.5032200000000  0.4797920000000  0.4771760000000 1.0
C      1  0.4808570000000  0.4702520000000  0.5134200000000 1.0
C      1  0.5015090000000  0.5122070000000  0.5540550000000 1.0
C      1  0.5493210000000  0.5190910000000  0.4682140000000 1.0
C      1  0.4525710000000  0.5170280000000  0.4701240000000 1.0
C      1  0.4785630000000  0.5093580000000  0.4835210000000 1.0
C      1  0.5243720000000  0.5114880000000  0.4833000000000 1.0
C      1  0.5022960000000  0.5069550000000  0.5246410000000 1.0
END
