TITL C-38185-7677-366 0.013585217941749 125000 -344.454660585891 0 0 60 (C1) n - 1
REM
REM in /home/bkarasulu/CARBON/AIRSS/Generating-Clusters/EDIP-Nigel-Params/Higher-Symm/Box-15A/Only-C60/SD-CG/FIRE-HFTN
REM
REM
REM
REM
REM
REM ./C.cell (414f73aa93bd7a1190c7fd0f31ff2f98)
REM
REM compiler GCC version 9.2.1 20190827 (Red Hat 9.2.1-1)
REM options -cpp -mtune=generic -march=x86-64 -g -O0 -fpre-include=/usr/include/finclude/math-vector-fortran.h
REM seed 1021797466 -1368349448 2028764815 22702392 -381238529 740499118 1537017201 -1226718702 -1924731035 -1225611618 611526680 -1581824875 1145618435 626941047 -468297223 1046949753 -1051322992 -1380657057 633653024 -1227536774 -1603405541 540183461 1891044955 113046723 466595747 2115080300 1500991861 1571777230 -114262996 1794707837 576441923 1043358396 1098745798
REM
CELL 1.54180   50.00000   50.00000   50.00000   90.00000   90.00000   90.00000
LATT -1
SFAC C  
C      1  0.5343960000000  0.4696400000000  0.5280530000000 1.0
C      1  0.5257060000000  0.5315800000000  0.4784370000000 1.0
C      1  0.5250230000000  0.5176080000000  0.5082590000000 1.0
C      1  0.5286860000000  0.4727740000000  0.4810900000000 1.0
C      1  0.5397930000000  0.4811400000000  0.4546170000000 1.0
C      1  0.5503000000000  0.5276140000000  0.5676940000000 1.0
C      1  0.5510700000000  0.5238950000000  0.4310660000000 1.0
C      1  0.5437410000000  0.4800320000000  0.5545040000000 1.0
C      1  0.4880810000000  0.5108980000000  0.5312160000000 1.0
C      1  0.4894550000000  0.4872610000000  0.4695970000000 1.0
C      1  0.4918310000000  0.4815830000000  0.5296340000000 1.0
C      1  0.4880930000000  0.5155710000000  0.4615690000000 1.0
C      1  0.5199750000000  0.4748240000000  0.4339180000000 1.0
C      1  0.5221340000000  0.5249310000000  0.5680430000000 1.0
C      1  0.5238380000000  0.5213910000000  0.4238760000000 1.0
C      1  0.5196900000000  0.4787680000000  0.5715870000000 1.0
C      1  0.5555760000000  0.5576330000000  0.4949570000000 1.0
C      1  0.5497940000000  0.4436710000000  0.5210470000000 1.0
C      1  0.5536820000000  0.4445470000000  0.4910850000000 1.0
C      1  0.5430550000000  0.5420840000000  0.5189580000000 1.0
C      1  0.4385380000000  0.4869880000000  0.5461740000000 1.0
C      1  0.4317360000000  0.5143150000000  0.4491440000000 1.0
C      1  0.4362240000000  0.5137580000000  0.5477540000000 1.0
C      1  0.4330730000000  0.4874850000000  0.4517790000000 1.0
C      1  0.4438790000000  0.4682780000000  0.4688980000000 1.0
C      1  0.4452490000000  0.5354970000000  0.5327870000000 1.0
C      1  0.4439530000000  0.5371290000000  0.4591100000000 1.0
C      1  0.4457580000000  0.4648320000000  0.5305070000000 1.0
C      1  0.4972610000000  0.4691020000000  0.4494770000000 1.0
C      1  0.5089080000000  0.5270230000000  0.5422610000000 1.0
C      1  0.5066910000000  0.5306170000000  0.4453800000000 1.0
C      1  0.5000280000000  0.4690080000000  0.5537820000000 1.0
C      1  0.4704580000000  0.4675680000000  0.5140250000000 1.0
C      1  0.4665710000000  0.5297520000000  0.4763600000000 1.0
C      1  0.4669890000000  0.5252610000000  0.5154500000000 1.0
C      1  0.4650010000000  0.4806910000000  0.4864940000000 1.0
C      1  0.5204910000000  0.4355290000000  0.5150700000000 1.0
C      1  0.5275740000000  0.5620370000000  0.4830200000000 1.0
C      1  0.5219150000000  0.5643430000000  0.5127880000000 1.0
C      1  0.5235240000000  0.4421140000000  0.4856640000000 1.0
C      1  0.4256070000000  0.4487720000000  0.5180260000000 1.0
C      1  0.4358270000000  0.5594180000000  0.4893630000000 1.0
C      1  0.4261150000000  0.5510990000000  0.5169880000000 1.0
C      1  0.4260010000000  0.4488140000000  0.4796200000000 1.0
C      1  0.5532210000000  0.5071910000000  0.4539350000000 1.0
C      1  0.5587640000000  0.5055030000000  0.5520100000000 1.0
C      1  0.5174420000000  0.4954040000000  0.4149090000000 1.0
C      1  0.5137240000000  0.5033190000000  0.5840520000000 1.0
C      1  0.5610930000000  0.5171850000000  0.4796520000000 1.0
C      1  0.5713130000000  0.5090550000000  0.5268980000000 1.0
C      1  0.4287700000000  0.5784710000000  0.5087170000000 1.0
C      1  0.4322990000000  0.4298500000000  0.4988430000000 1.0
C      1  0.4530370000000  0.5078520000000  0.4937200000000 1.0
C      1  0.5376090000000  0.4896500000000  0.5054100000000 1.0
C      1  0.4239050000000  0.5086900000000  0.4936610000000 1.0
C      1  0.6290660000000  0.4969390000000  0.4874660000000 1.0
C      1  0.3997130000000  0.4995120000000  0.5007630000000 1.0
C      1  0.3754420000000  0.4931570000000  0.5057840000000 1.0
C      1  0.6050020000000  0.5029420000000  0.4938410000000 1.0
C      1  0.5783540000000  0.5057220000000  0.4999270000000 1.0
END
