TITL C-38186-4112-92 -1.18905068335057e-06 125000 -372.830349193004 0 0 60 (C5) n - 1
REM
REM in /home/bkarasulu/CARBON/AIRSS/Generating-Clusters/EDIP-Nigel-Params/Higher-Symm/Box-15A/Only-C60/SD-CG/FIRE-HFTN
REM
REM
REM
REM
REM
REM ./C.cell (414f73aa93bd7a1190c7fd0f31ff2f98)
REM
REM compiler GCC version 9.2.1 20190827 (Red Hat 9.2.1-1)
REM options -cpp -mtune=generic -march=x86-64 -g -O0 -fpre-include=/usr/include/finclude/math-vector-fortran.h
REM seed 1198509231 -1972995842 -1942017626 489559459 -1093896417 473785279 1861172566 -695014902 2052462838 1606715478 -1798014336 -736429771 -1020861821 144273918 -357970599 -1367745994 1454835709 1546523529 -848451347 -916524968 1255189676 -852526892 -1146577760 -673339963 992985143 2038519110 2137550775 1204167246 701157467 1322501399 879387969 -1892038381 -224511349
REM
CELL 1.54180   50.00000   50.00000   50.00000   90.00000   90.00000   90.00000
LATT -1
SFAC C  
C      1  0.5034250000000  0.4747810000000  0.5626930000000 1.0
C      1  0.4770740000000  0.4889500000000  0.5626930000000 1.0
C      1  0.4824060000000  0.5183900000000  0.5626930000000 1.0
C      1  0.5120530000000  0.5224160000000  0.5626930000000 1.0
C      1  0.5250430000000  0.4954640000000  0.5626930000000 1.0
C      1  0.5425850000000  0.4933230000000  0.5374860000000 1.0
C      1  0.5068090000000  0.4574360000000  0.5374860000000 1.0
C      1  0.4616230000000  0.4803710000000  0.5374860000000 1.0
C      1  0.4694720000000  0.5304330000000  0.5374860000000 1.0
C      1  0.5195100000000  0.5384380000000  0.5374860000000 1.0
C      1  0.4355700000000  0.5464310000000  0.5294180000000 1.0
C      1  0.5242480000000  0.5756250000000  0.5294180000000 1.0
C      1  0.5794170000000  0.5003080000000  0.5294180000000 1.0
C      1  0.5248340000000  0.4245660000000  0.5294180000000 1.0
C      1  0.4359320000000  0.4530710000000  0.5294180000000 1.0
C      1  0.4693060000000  0.5317730000000  0.4627750000000 1.0
C      1  0.5207330000000  0.5390100000000  0.4627750000000 1.0
C      1  0.5435080000000  0.4923360000000  0.4627750000000 1.0
C      1  0.5061560000000  0.4562540000000  0.4627750000000 1.0
C      1  0.4602970000000  0.4806270000000  0.4627750000000 1.0
C      1  0.5566290000000  0.4401230000000  0.4961260000000 1.0
C      1  0.4605530000000  0.4276390000000  0.4961260000000 1.0
C      1  0.4189910000000  0.5151560000000  0.4961260000000 1.0
C      1  0.4893810000000  0.5817280000000  0.4961260000000 1.0
C      1  0.5744460000000  0.5353550000000  0.4961260000000 1.0
C      1  0.5267030000000  0.4956800000000  0.5112870000000 1.0
C      1  0.5041430000000  0.4732690000000  0.5112870000000 1.0
C      1  0.4758580000000  0.4877990000000  0.5112870000000 1.0
C      1  0.4809360000000  0.5191900000000  0.5112870000000 1.0
C      1  0.5123600000000  0.5240610000000  0.5112870000000 1.0
C      1  0.5073160000000  0.4480500000000  0.4921630000000 1.0
C      1  0.4528530000000  0.4769880000000  0.4921630000000 1.0
C      1  0.4635450000000  0.5377280000000  0.4921630000000 1.0
C      1  0.5246170000000  0.5463290000000  0.4921630000000 1.0
C      1  0.5516690000000  0.4909050000000  0.4921630000000 1.0
C      1  0.5466000000000  0.5562750000000  0.5313960000000 1.0
C      1  0.5679210000000  0.4730710000000  0.5313960000000 1.0
C      1  0.4953770000000  0.4270820000000  0.5313960000000 1.0
C      1  0.4292220000000  0.4818640000000  0.5313960000000 1.0
C      1  0.4608800000000  0.5617090000000  0.5313960000000 1.0
C      1  0.4878330000000  0.4771070000000  0.4230610000000 1.0
C      1  0.4744680000000  0.5044980000000  0.4230610000000 1.0
C      1  0.4963880000000  0.5256720000000  0.4230610000000 1.0
C      1  0.5233000000000  0.5113690000000  0.4230610000000 1.0
C      1  0.5180120000000  0.4813540000000  0.4230610000000 1.0
C      1  0.4872200000000  0.4271370000000  0.5025700000000 1.0
C      1  0.4267540000000  0.4896380000000  0.5025700000000 1.0
C      1  0.4675110000000  0.5664600000000  0.5025700000000 1.0
C      1  0.5531670000000  0.5514360000000  0.5025700000000 1.0
C      1  0.5653480000000  0.4653300000000  0.5025700000000 1.0
C      1  0.4348660000000  0.5364900000000  0.5021470000000 1.0
C      1  0.5145760000000  0.5732230000000  0.5021470000000 1.0
C      1  0.5741430000000  0.5087640000000  0.5021470000000 1.0
C      1  0.5312470000000  0.4321940000000  0.5021480000000 1.0
C      1  0.4451680000000  0.4493290000000  0.5021470000000 1.0
C      1  0.4941940000000  0.5412600000000  0.4488770000000 1.0
C      1  0.5374470000000  0.5182720000000  0.4488770000000 1.0
C      1  0.5289490000000  0.4700320000000  0.4488770000000 1.0
C      1  0.4804450000000  0.4632070000000  0.4488770000000 1.0
C      1  0.4589650000000  0.5072290000000  0.4488770000000 1.0
END
