TITL C-38194-9318-197 9.98927996034926e-07 125000 -370.489467317639 0 0 60 (Td) n - 1
REM
REM in /home/bkarasulu/CARBON/AIRSS/Generating-Clusters/EDIP-Nigel-Params/Higher-Symm/Box-15A/Only-C60/SD-CG/FIRE-HFTN
REM
REM
REM
REM
REM
REM ./C.cell (414f73aa93bd7a1190c7fd0f31ff2f98)
REM
REM compiler GCC version 9.2.1 20190827 (Red Hat 9.2.1-1)
REM options -cpp -mtune=generic -march=x86-64 -g -O0 -fpre-include=/usr/include/finclude/math-vector-fortran.h
REM seed 826591989 -1895319362 -2215172 -653140241 1479813867 -1657714100 451064685 -743375102 151338481 763168106 -196896254 -92873918 215580499 1393846952 -1544082030 -1368618858 1721623068 130997482 -205607226 2047860458 375444424 752642542 1996790794 604151142 -1842838969 427937606 -164430559 -1831107690 -559791931 -99649497 -225148648 39639035 -2018891973
REM
CELL 1.54180   50.00000   50.00000   50.00000   90.00000   90.00000   90.00000
LATT -1
SFAC C  
C      1  0.4641910000000  0.4245310000000  0.5169810000000 1.0
C      1  0.4245310000000  0.5169810000000  0.4641910000000 1.0
C      1  0.5169810000000  0.4641910000000  0.4245310000000 1.0
C      1  0.4641910000000  0.5754690000000  0.4830190000000 1.0
C      1  0.5358090000000  0.4245310000000  0.4830190000000 1.0
C      1  0.5358090000000  0.5754690000000  0.5169810000000 1.0
C      1  0.4245310000000  0.4830190000000  0.5358090000000 1.0
C      1  0.5754690000000  0.5169810000000  0.5358090000000 1.0
C      1  0.5754690000000  0.4830190000000  0.4641910000000 1.0
C      1  0.5169810000000  0.5358090000000  0.5754690000000 1.0
C      1  0.4830190000000  0.4641910000000  0.5754690000000 1.0
C      1  0.4830190000000  0.5358090000000  0.4245310000000 1.0
C      1  0.4641910000000  0.5169810000000  0.4245310000000 1.0
C      1  0.4245310000000  0.4641910000000  0.5169810000000 1.0
C      1  0.5169810000000  0.4245310000000  0.4641910000000 1.0
C      1  0.4641910000000  0.4830190000000  0.5754690000000 1.0
C      1  0.5358090000000  0.4830190000000  0.4245310000000 1.0
C      1  0.5358090000000  0.5169810000000  0.5754690000000 1.0
C      1  0.4245310000000  0.5358090000000  0.4830190000000 1.0
C      1  0.5754690000000  0.5358090000000  0.5169810000000 1.0
C      1  0.5754690000000  0.4641910000000  0.4830190000000 1.0
C      1  0.5169810000000  0.5754690000000  0.5358090000000 1.0
C      1  0.4830190000000  0.5754690000000  0.4641910000000 1.0
C      1  0.4830190000000  0.4245310000000  0.5358090000000 1.0
C      1  0.5067210000000  0.4559650000000  0.5641890000000 1.0
C      1  0.4559650000000  0.5641890000000  0.5067210000000 1.0
C      1  0.5641890000000  0.5067210000000  0.4559650000000 1.0
C      1  0.5067210000000  0.5440350000000  0.4358110000000 1.0
C      1  0.4932790000000  0.4559650000000  0.4358110000000 1.0
C      1  0.4932790000000  0.5440350000000  0.5641890000000 1.0
C      1  0.4559650000000  0.4358110000000  0.4932790000000 1.0
C      1  0.5440350000000  0.5641890000000  0.4932790000000 1.0
C      1  0.5440350000000  0.4358110000000  0.5067210000000 1.0
C      1  0.5641890000000  0.4932790000000  0.5440350000000 1.0
C      1  0.4358110000000  0.5067210000000  0.5440350000000 1.0
C      1  0.4358110000000  0.4932790000000  0.4559650000000 1.0
C      1  0.5067210000000  0.5641890000000  0.4559650000000 1.0
C      1  0.4559650000000  0.5067210000000  0.5641890000000 1.0
C      1  0.5641890000000  0.4559650000000  0.5067210000000 1.0
C      1  0.5067210000000  0.4358110000000  0.5440350000000 1.0
C      1  0.4932790000000  0.4358110000000  0.4559650000000 1.0
C      1  0.4932790000000  0.5641890000000  0.5440350000000 1.0
C      1  0.4559650000000  0.4932790000000  0.4358110000000 1.0
C      1  0.5440350000000  0.4932790000000  0.5641890000000 1.0
C      1  0.5440350000000  0.5067210000000  0.4358110000000 1.0
C      1  0.5641890000000  0.5440350000000  0.4932790000000 1.0
C      1  0.4358110000000  0.5440350000000  0.5067210000000 1.0
C      1  0.4358110000000  0.4559650000000  0.4932790000000 1.0
C      1  0.5692060000000  0.4702380000000  0.5297620000000 1.0
C      1  0.4702380000000  0.5297620000000  0.5692060000000 1.0
C      1  0.5297620000000  0.5692060000000  0.4702380000000 1.0
C      1  0.5692060000000  0.5297620000000  0.4702380000000 1.0
C      1  0.4307940000000  0.4702380000000  0.4702380000000 1.0
C      1  0.4307940000000  0.5297620000000  0.5297620000000 1.0
C      1  0.4702380000000  0.4702380000000  0.4307940000000 1.0
C      1  0.5297620000000  0.5297620000000  0.4307940000000 1.0
C      1  0.5297620000000  0.4702380000000  0.5692060000000 1.0
C      1  0.5297620000000  0.4307940000000  0.5297620000000 1.0
C      1  0.4702380000000  0.5692060000000  0.5297620000000 1.0
C      1  0.4702380000000  0.4307940000000  0.4702380000000 1.0
END
