TITL C-38198-1686-174 4.09776933435054e-07 125000 -351.356933010266 0 0 60 (Th) n - 1
REM
REM in /home/bkarasulu/CARBON/AIRSS/Generating-Clusters/EDIP-Nigel-Params/Higher-Symm/Box-15A/Only-C60/SD-CG/FIRE-HFTN
REM
REM
REM
REM
REM
REM ./C.cell (414f73aa93bd7a1190c7fd0f31ff2f98)
REM
REM compiler GCC version 9.2.1 20190827 (Red Hat 9.2.1-1)
REM options -cpp -mtune=generic -march=x86-64 -g -O0 -fpre-include=/usr/include/finclude/math-vector-fortran.h
REM seed -1529482950 -1094628115 976735465 1346372958 -522716893 -853138177 596019766 1197429096 2074789216 29940001 695341039 1725332630 -297966399 -738362619 976715911 2018618427 95251374 -1281544762 1975397123 2040622724 472291038 486871478 152539400 -1968323539 -62943035 -1456557210 -1639646817 -1314359854 -1151588989 -949144088 300522992 -651325655 -1237280121
REM
CELL 1.54180   50.00000   50.00000   50.00000   90.00000   90.00000   90.00000
LATT -1
SFAC C  
C      1  0.4453270000000  0.5484640000000  0.4847300000000 1.0
C      1  0.4847300000000  0.4453270000000  0.5484640000000 1.0
C      1  0.5484640000000  0.4847300000000  0.4453270000000 1.0
C      1  0.5546730000000  0.4515360000000  0.4847300000000 1.0
C      1  0.5546730000000  0.5484640000000  0.5152700000000 1.0
C      1  0.4453270000000  0.4515360000000  0.5152700000000 1.0
C      1  0.5152700000000  0.5546730000000  0.5484640000000 1.0
C      1  0.5152700000000  0.4453270000000  0.4515360000000 1.0
C      1  0.4847300000000  0.5546730000000  0.4515360000000 1.0
C      1  0.4515360000000  0.5152700000000  0.4453270000000 1.0
C      1  0.4515360000000  0.4847300000000  0.5546730000000 1.0
C      1  0.5484640000000  0.5152700000000  0.5546730000000 1.0
C      1  0.4453270000000  0.5484640000000  0.5152700000000 1.0
C      1  0.4847300000000  0.4453270000000  0.4515360000000 1.0
C      1  0.5484640000000  0.4847300000000  0.5546730000000 1.0
C      1  0.5546730000000  0.4515360000000  0.5152700000000 1.0
C      1  0.5546730000000  0.5484640000000  0.4847300000000 1.0
C      1  0.4453270000000  0.4515360000000  0.4847300000000 1.0
C      1  0.5152700000000  0.5546730000000  0.4515360000000 1.0
C      1  0.5152700000000  0.4453270000000  0.5484640000000 1.0
C      1  0.4847300000000  0.5546730000000  0.5484640000000 1.0
C      1  0.4515360000000  0.5152700000000  0.5546730000000 1.0
C      1  0.4515360000000  0.4847300000000  0.4453270000000 1.0
C      1  0.5484640000000  0.5152700000000  0.4453270000000 1.0
C      1  0.5201410000000  0.5260780000000  0.4418110000000 1.0
C      1  0.4418110000000  0.5201410000000  0.5260780000000 1.0
C      1  0.5260780000000  0.4418110000000  0.5201410000000 1.0
C      1  0.4798590000000  0.4739220000000  0.4418110000000 1.0
C      1  0.4798590000000  0.5260780000000  0.5581890000000 1.0
C      1  0.5201410000000  0.4739220000000  0.5581890000000 1.0
C      1  0.5581890000000  0.4798590000000  0.5260780000000 1.0
C      1  0.5581890000000  0.5201410000000  0.4739220000000 1.0
C      1  0.4418110000000  0.4798590000000  0.4739220000000 1.0
C      1  0.4739220000000  0.5581890000000  0.5201410000000 1.0
C      1  0.4739220000000  0.4418110000000  0.4798590000000 1.0
C      1  0.5260780000000  0.5581890000000  0.4798590000000 1.0
C      1  0.5201410000000  0.5260780000000  0.5581890000000 1.0
C      1  0.4418110000000  0.5201410000000  0.4739220000000 1.0
C      1  0.5260780000000  0.4418110000000  0.4798590000000 1.0
C      1  0.4798590000000  0.4739220000000  0.5581890000000 1.0
C      1  0.4798590000000  0.5260780000000  0.4418110000000 1.0
C      1  0.5201410000000  0.4739220000000  0.4418110000000 1.0
C      1  0.5581890000000  0.4798590000000  0.4739220000000 1.0
C      1  0.5581890000000  0.5201410000000  0.5260780000000 1.0
C      1  0.4418110000000  0.4798590000000  0.5260780000000 1.0
C      1  0.4739220000000  0.5581890000000  0.4798590000000 1.0
C      1  0.4739220000000  0.4418110000000  0.5201410000000 1.0
C      1  0.5260780000000  0.5581890000000  0.5201410000000 1.0
C      1  0.5000000000000  0.4851050000000  0.5346050000000 1.0
C      1  0.5346050000000  0.5000000000000  0.4851050000000 1.0
C      1  0.5000000000000  0.5148950000000  0.4653950000000 1.0
C      1  0.4653950000000  0.5000000000000  0.4851050000000 1.0
C      1  0.4653950000000  0.5000000000000  0.5148950000000 1.0
C      1  0.5346050000000  0.5000000000000  0.5148950000000 1.0
C      1  0.4851050000000  0.5346050000000  0.5000000000000 1.0
C      1  0.5148950000000  0.4653950000000  0.5000000000000 1.0
C      1  0.5148950000000  0.5346050000000  0.5000000000000 1.0
C      1  0.4851050000000  0.4653950000000  0.5000000000000 1.0
C      1  0.5000000000000  0.5148950000000  0.5346050000000 1.0
C      1  0.5000000000000  0.4851050000000  0.4653950000000 1.0
END
