TITL C-38191-7580-422 3.17887789751701e-05 125000 -359.582018964472 0 0 60 (C3) n - 1
REM
REM in /home/bkarasulu/CARBON/AIRSS/Generating-Clusters/EDIP-Nigel-Params/Higher-Symm/Box-15A/Only-C60/SD-CG/FIRE-HFTN
REM
REM
REM
REM
REM
REM ./C.cell (414f73aa93bd7a1190c7fd0f31ff2f98)
REM
REM compiler GCC version 9.2.1 20190827 (Red Hat 9.2.1-1)
REM options -cpp -mtune=generic -march=x86-64 -g -O0 -fpre-include=/usr/include/finclude/math-vector-fortran.h
REM seed 914289008 39918508 -1635275032 2084373246 -1422222705 -2056364772 -1979358424 114735119 -178227574 -840912976 -20712304 662656840 -658275521 -525981425 1354274456 -580070008 2079865462 492788494 1786301756 -2079326788 -1420830043 -1332569397 1019403697 1469935897 -1107138261 459862681 1430814048 -1807543939 1859757868 667192091 329695923 1524411327 421763414
REM
CELL 1.54180   50.00000   50.00000   50.00000   90.00000   90.00000   90.00000
LATT -1
SFAC C  
C      1  0.4546850000000  0.5052430000000  0.4369550000000 1.0
C      1  0.4417620000000  0.4588450000000  0.5038640000000 1.0
C      1  0.5048100000000  0.4390710000000  0.4550140000000 1.0
C      1  0.5449770000000  0.4951880000000  0.4390650000000 1.0
C      1  0.5411610000000  0.5038570000000  0.5582340000000 1.0
C      1  0.4634830000000  0.4978230000000  0.5586880000000 1.0
C      1  0.5630510000000  0.5453080000000  0.5052360000000 1.0
C      1  0.5609300000000  0.4550160000000  0.4951770000000 1.0
C      1  0.4413160000000  0.5365230000000  0.4978330000000 1.0
C      1  0.4961360000000  0.5582390000000  0.4588480000000 1.0
C      1  0.4947640000000  0.4369480000000  0.5453070000000 1.0
C      1  0.5021790000000  0.5586820000000  0.5365250000000 1.0
C      1  0.5009660000000  0.4655150000000  0.4431050000000 1.0
C      1  0.4665430000000  0.4439920000000  0.5005910000000 1.0
C      1  0.4406910000000  0.5028270000000  0.4624050000000 1.0
C      1  0.4994050000000  0.5334590000000  0.4439930000000 1.0
C      1  0.5042200000000  0.5423810000000  0.5604480000000 1.0
C      1  0.4971810000000  0.4623960000000  0.5593040000000 1.0
C      1  0.5376020000000  0.5593050000000  0.5028240000000 1.0
C      1  0.4576170000000  0.5604470000000  0.4957930000000 1.0
C      1  0.5344870000000  0.4431070000000  0.4990220000000 1.0
C      1  0.5568900000000  0.4990290000000  0.4655070000000 1.0
C      1  0.4395580000000  0.4957850000000  0.5423890000000 1.0
C      1  0.5560120000000  0.5005880000000  0.5334510000000 1.0
C      1  0.5694890000000  0.4753610000000  0.5398680000000 1.0
C      1  0.5416230000000  0.5710660000000  0.4764190000000 1.0
C      1  0.4766790000000  0.5456680000000  0.5701750000000 1.0
C      1  0.4298350000000  0.5233270000000  0.5456790000000 1.0
C      1  0.4289300000000  0.4764230000000  0.4583820000000 1.0
C      1  0.5704850000000  0.5244360000000  0.4601170000000 1.0
C      1  0.4601210000000  0.4305160000000  0.4753640000000 1.0
C      1  0.4543320000000  0.5701690000000  0.5233360000000 1.0
C      1  0.5398790000000  0.4295090000000  0.5244280000000 1.0
C      1  0.5235870000000  0.4583720000000  0.5710620000000 1.0
C      1  0.5246300000000  0.5398790000000  0.4305140000000 1.0
C      1  0.4755580000000  0.4601260000000  0.4295110000000 1.0
C      1  0.4761980000000  0.5708990000000  0.5416250000000 1.0
C      1  0.5714230000000  0.5473500000000  0.4771090000000 1.0
C      1  0.5451730000000  0.4769070000000  0.5691350000000 1.0
C      1  0.5228900000000  0.4285730000000  0.5473440000000 1.0
C      1  0.4770050000000  0.4296490000000  0.4523060000000 1.0
C      1  0.5230860000000  0.5691420000000  0.4548340000000 1.0
C      1  0.4308570000000  0.4548350000000  0.4769150000000 1.0
C      1  0.5703560000000  0.4523060000000  0.5229800000000 1.0
C      1  0.4291020000000  0.5416190000000  0.5238150000000 1.0
C      1  0.4583880000000  0.5238040000000  0.5709060000000 1.0
C      1  0.5476860000000  0.5229920000000  0.4296430000000 1.0
C      1  0.4526430000000  0.4771170000000  0.4285790000000 1.0
C      1  0.4382650000000  0.4824030000000  0.5181200000000 1.0
C      1  0.4293130000000  0.5237690000000  0.4764230000000 1.0
C      1  0.5188360000000  0.4338310000000  0.4783810000000 1.0
C      1  0.4762400000000  0.4764120000000  0.5706860000000 1.0
C      1  0.4784860000000  0.5190540000000  0.4333250000000 1.0
C      1  0.5216080000000  0.4811640000000  0.4338270000000 1.0
C      1  0.4818840000000  0.5617380000000  0.4824080000000 1.0
C      1  0.5666800000000  0.5215060000000  0.5190450000000 1.0
C      1  0.5235880000000  0.5706840000000  0.5237680000000 1.0
C      1  0.5661680000000  0.4783860000000  0.4811540000000 1.0
C      1  0.4809510000000  0.4333210000000  0.5215060000000 1.0
C      1  0.5176030000000  0.5181110000000  0.5617360000000 1.0
END
