TITL C-38194-9318-95 0.000866919880578218 125000 -356.011669776454 0 0 60 (C1) n - 1
REM
REM in /home/bkarasulu/CARBON/AIRSS/Generating-Clusters/EDIP-Nigel-Params/Higher-Symm/Box-15A/Only-C60/SD-CG/FIRE-HFTN
REM
REM
REM
REM
REM
REM ./C.cell (414f73aa93bd7a1190c7fd0f31ff2f98)
REM
REM compiler GCC version 9.2.1 20190827 (Red Hat 9.2.1-1)
REM options -cpp -mtune=generic -march=x86-64 -g -O0 -fpre-include=/usr/include/finclude/math-vector-fortran.h
REM seed 2026994646 -173327050 -2018724989 510243872 -605614346 1252981217 -74368771 -787719679 -954681121 -2107095126 -958470903 1431277927 -737529759 1100947922 2124667074 24792301 2028889353 -182098288 85728799 -1975667528 -652222440 1816678479 -1132458490 891820651 1808379138 -157953543 403886014 -1711535841 1944006432 633591945 -485322939 -1156039966 -664943137
REM
CELL 1.54180   50.00000   50.00000   50.00000   90.00000   90.00000   90.00000
LATT -1
SFAC C  
C      1  0.4680790000000  0.5368030000000  0.5755280000000 1.0
C      1  0.5658390000000  0.5374740000000  0.4785470000000 1.0
C      1  0.4937490000000  0.4989660000000  0.4908450000000 1.0
C      1  0.5170700000000  0.5358620000000  0.5777000000000 1.0
C      1  0.5290680000000  0.4381370000000  0.4696340000000 1.0
C      1  0.5440890000000  0.4877650000000  0.4600810000000 1.0
C      1  0.5336700000000  0.4703290000000  0.5580700000000 1.0
C      1  0.4555420000000  0.5146220000000  0.5679420000000 1.0
C      1  0.5081510000000  0.5124810000000  0.4375190000000 1.0
C      1  0.4863480000000  0.4760840000000  0.4757460000000 1.0
C      1  0.5368760000000  0.5719370000000  0.5145530000000 1.0
C      1  0.4768660000000  0.4798020000000  0.4213030000000 1.0
C      1  0.5181340000000  0.5739830000000  0.4941330000000 1.0
C      1  0.4884220000000  0.5332040000000  0.4398810000000 1.0
C      1  0.4673760000000  0.4988710000000  0.5006160000000 1.0
C      1  0.4571410000000  0.4441850000000  0.5442030000000 1.0
C      1  0.4330550000000  0.5127970000000  0.4637920000000 1.0
C      1  0.5102520000000  0.4576270000000  0.5656580000000 1.0
C      1  0.5410110000000  0.5060680000000  0.5122240000000 1.0
C      1  0.4610640000000  0.5242770000000  0.4389350000000 1.0
C      1  0.5328000000000  0.4382890000000  0.4985480000000 1.0
C      1  0.4829770000000  0.4598610000000  0.5686460000000 1.0
C      1  0.4119200000000  0.5079350000000  0.4859090000000 1.0
C      1  0.4647680000000  0.4709910000000  0.5495700000000 1.0
C      1  0.5047870000000  0.5994670000000  0.4920060000000 1.0
C      1  0.5354330000000  0.5414460000000  0.5559770000000 1.0
C      1  0.4770250000000  0.6034890000000  0.4876410000000 1.0
C      1  0.4513070000000  0.4309750000000  0.4930530000000 1.0
C      1  0.5704100000000  0.4682600000000  0.4945830000000 1.0
C      1  0.5501800000000  0.4599460000000  0.5378990000000 1.0
C      1  0.5395870000000  0.5637650000000  0.5399320000000 1.0
C      1  0.4983260000000  0.4664190000000  0.4503960000000 1.0
C      1  0.4462720000000  0.4928940000000  0.5537740000000 1.0
C      1  0.5622810000000  0.5108690000000  0.5286580000000 1.0
C      1  0.4284880000000  0.4989310000000  0.5332710000000 1.0
C      1  0.4553910000000  0.4374500000000  0.4666070000000 1.0
C      1  0.5206560000000  0.5584290000000  0.4696660000000 1.0
C      1  0.4482080000000  0.5192960000000  0.4934990000000 1.0
C      1  0.4921450000000  0.5476780000000  0.5792780000000 1.0
C      1  0.4799480000000  0.4293150000000  0.4553680000000 1.0
C      1  0.4423830000000  0.4601500000000  0.4569790000000 1.0
C      1  0.5783720000000  0.5132890000000  0.4790990000000 1.0
C      1  0.5194310000000  0.5092370000000  0.5870210000000 1.0
C      1  0.4366790000000  0.4861420000000  0.4480320000000 1.0
C      1  0.4554740000000  0.4974320000000  0.4290030000000 1.0
C      1  0.5153050000000  0.4999430000000  0.5076950000000 1.0
C      1  0.4975430000000  0.5549800000000  0.4544390000000 1.0
C      1  0.5218140000000  0.4181520000000  0.5118420000000 1.0
C      1  0.4236640000000  0.5158360000000  0.5117050000000 1.0
C      1  0.5061340000000  0.4244490000000  0.4611190000000 1.0
C      1  0.5024940000000  0.4906550000000  0.4204490000000 1.0
C      1  0.5282360000000  0.4634380000000  0.4546400000000 1.0
C      1  0.5514870000000  0.5176910000000  0.5536160000000 1.0
C      1  0.5399200000000  0.5366520000000  0.4677760000000 1.0
C      1  0.4543820000000  0.4337410000000  0.5192340000000 1.0
C      1  0.5692640000000  0.4872250000000  0.4741510000000 1.0
C      1  0.5370920000000  0.4973140000000  0.5684180000000 1.0
C      1  0.5338860000000  0.5137000000000  0.4508300000000 1.0
C      1  0.4873810000000  0.6104350000000  0.5115610000000 1.0
C      1  0.5543470000000  0.4525590000000  0.5111970000000 1.0
END
