TITL C-38186-4112-250 -1.04666192969899e-06 125000 -373.487686114763 0 0 60 (C1) n - 1
REM
REM in /home/bkarasulu/CARBON/AIRSS/Generating-Clusters/EDIP-Nigel-Params/Higher-Symm/Box-15A/Only-C60/SD-CG/FIRE-HFTN
REM
REM
REM
REM
REM
REM ./C.cell (414f73aa93bd7a1190c7fd0f31ff2f98)
REM
REM compiler GCC version 9.2.1 20190827 (Red Hat 9.2.1-1)
REM options -cpp -mtune=generic -march=x86-64 -g -O0 -fpre-include=/usr/include/finclude/math-vector-fortran.h
REM seed -529396601 1335189057 1782657864 951814515 -1729833343 -1251746132 494606417 1277736036 -1691831469 983904824 1340863856 811577808 -60236715 -1337918324 -825559802 -1777558865 148293446 -1161056850 1052827652 672896917 -35588038 -348776643 -513555328 -683595985 1575460778 573685624 214568738 1230511287 -525447791 -736830690 635844626 2062585645 684408690
REM
CELL 1.54180   50.00000   50.00000   50.00000   90.00000   90.00000   90.00000
LATT -1
SFAC C  
C      1  0.5251260000000  0.5452670000000  0.5095590000000 1.0
C      1  0.4912920000000  0.4522610000000  0.5289410000000 1.0
C      1  0.4688840000000  0.5525940000000  0.4904100000000 1.0
C      1  0.5122940000000  0.4454290000000  0.4703930000000 1.0
C      1  0.4852210000000  0.5125050000000  0.5114670000000 1.0
C      1  0.5067760000000  0.4868290000000  0.4840350000000 1.0
C      1  0.4954870000000  0.5138860000000  0.4833340000000 1.0
C      1  0.5132050000000  0.4874940000000  0.5131190000000 1.0
C      1  0.4750240000000  0.4648880000000  0.4289540000000 1.0
C      1  0.5662880000000  0.5344520000000  0.4749980000000 1.0
C      1  0.5255770000000  0.4637890000000  0.5717650000000 1.0
C      1  0.4279010000000  0.5369510000000  0.5272850000000 1.0
C      1  0.5418540000000  0.5328790000000  0.5528190000000 1.0
C      1  0.4471490000000  0.4669630000000  0.5420670000000 1.0
C      1  0.4561320000000  0.5366240000000  0.4459010000000 1.0
C      1  0.5555980000000  0.4632780000000  0.4562970000000 1.0
C      1  0.4557120000000  0.5122180000000  0.5573230000000 1.0
C      1  0.4467530000000  0.4902220000000  0.4574070000000 1.0
C      1  0.5424760000000  0.5084820000000  0.4441460000000 1.0
C      1  0.5572290000000  0.4875400000000  0.5448070000000 1.0
C      1  0.5407840000000  0.5315330000000  0.4630570000000 1.0
C      1  0.5384930000000  0.4637800000000  0.5465180000000 1.0
C      1  0.4537890000000  0.5363940000000  0.5388640000000 1.0
C      1  0.4666010000000  0.4674830000000  0.4559530000000 1.0
C      1  0.4929180000000  0.5562760000000  0.4708010000000 1.0
C      1  0.5313350000000  0.4455420000000  0.4950930000000 1.0
C      1  0.5034540000000  0.5510400000000  0.5295200000000 1.0
C      1  0.4739310000000  0.4523890000000  0.5046720000000 1.0
C      1  0.5798970000000  0.4647790000000  0.4991820000000 1.0
C      1  0.5008900000000  0.5345900000000  0.5798880000000 1.0
C      1  0.4231430000000  0.4673880000000  0.4996570000000 1.0
C      1  0.4994390000000  0.5331510000000  0.4258030000000 1.0
C      1  0.5486710000000  0.5313680000000  0.5238420000000 1.0
C      1  0.4756930000000  0.4673080000000  0.5514820000000 1.0
C      1  0.4476300000000  0.5362650000000  0.4748990000000 1.0
C      1  0.5267910000000  0.4616610000000  0.4473100000000 1.0
C      1  0.5757380000000  0.4927170000000  0.4997180000000 1.0
C      1  0.4998580000000  0.5062380000000  0.5776710000000 1.0
C      1  0.4236180000000  0.4958560000000  0.4997350000000 1.0
C      1  0.5006450000000  0.5051110000000  0.4233820000000 1.0
C      1  0.5576540000000  0.4551140000000  0.4845990000000 1.0
C      1  0.5141780000000  0.5421080000000  0.5559430000000 1.0
C      1  0.4470210000000  0.4608890000000  0.5135130000000 1.0
C      1  0.4832200000000  0.5489820000000  0.4428060000000 1.0
C      1  0.4527200000000  0.5079310000000  0.4344930000000 1.0
C      1  0.5659650000000  0.4917160000000  0.4509970000000 1.0
C      1  0.5484170000000  0.5063510000000  0.5661990000000 1.0
C      1  0.4339900000000  0.4937090000000  0.5487870000000 1.0
C      1  0.4770350000000  0.5397280000000  0.5187080000000 1.0
C      1  0.4874070000000  0.4624900000000  0.4785920000000 1.0
C      1  0.5154460000000  0.5370780000000  0.4808760000000 1.0
C      1  0.5199420000000  0.4605120000000  0.5219020000000 1.0
C      1  0.5764280000000  0.5075820000000  0.4743670000000 1.0
C      1  0.5255350000000  0.4914820000000  0.5788280000000 1.0
C      1  0.4210990000000  0.5091870000000  0.5261060000000 1.0
C      1  0.4746760000000  0.4922500000000  0.4201280000000 1.0
C      1  0.5572040000000  0.5028060000000  0.5195400000000 1.0
C      1  0.4806080000000  0.4962790000000  0.5583490000000 1.0
C      1  0.4432110000000  0.5070390000000  0.4813580000000 1.0
C      1  0.5189500000000  0.4913460000000  0.4418310000000 1.0
END
