TITL C-38193-7935-105 5.35199258849983e-07 125000 -370.548227398121 0 0 60 (C1) n - 1
REM
REM in /home/bkarasulu/CARBON/AIRSS/Generating-Clusters/EDIP-Nigel-Params/Higher-Symm/Box-15A/Only-C60/SD-CG/FIRE-HFTN
REM
REM
REM
REM
REM
REM ./C.cell (414f73aa93bd7a1190c7fd0f31ff2f98)
REM
REM compiler GCC version 9.2.1 20190827 (Red Hat 9.2.1-1)
REM options -cpp -mtune=generic -march=x86-64 -g -O0 -fpre-include=/usr/include/finclude/math-vector-fortran.h
REM seed 497699620 495028563 -1252372256 -2010264726 -938390776 -2054116829 -1098151188 733385412 -730479636 -188336783 -385882593 -1918863353 2095701480 2020109685 -597738104 903939711 -1047669019 -779362832 807111952 -89203700 -43747748 877613251 -1256949266 -847809142 -1916732803 -883007154 1842776550 -631066583 1744092907 -1512783311 313969696 1671600376 2096030567
REM
CELL 1.54180   50.00000   50.00000   50.00000   90.00000   90.00000   90.00000
LATT -1
SFAC C  
C      1  0.4295270000000  0.5262760000000  0.4778640000000 1.0
C      1  0.4294950000000  0.4994490000000  0.4667390000000 1.0
C      1  0.4274100000000  0.4740360000000  0.4809450000000 1.0
C      1  0.4259270000000  0.4689780000000  0.5097370000000 1.0
C      1  0.4257700000000  0.4881990000000  0.5316600000000 1.0
C      1  0.4261680000000  0.5173340000000  0.5298570000000 1.0
C      1  0.4276730000000  0.5342150000000  0.5059590000000 1.0
C      1  0.5780880000000  0.4876620000000  0.5242540000000 1.0
C      1  0.5901300000000  0.5152540000000  0.5183240000000 1.0
C      1  0.5716110000000  0.5360210000000  0.5038440000000 1.0
C      1  0.5841910000000  0.5290760000000  0.4766060000000 1.0
C      1  0.5745250000000  0.5023040000000  0.4636840000000 1.0
C      1  0.5953150000000  0.4863640000000  0.4799700000000 1.0
C      1  0.5840580000000  0.4714520000000  0.5015930000000 1.0
C      1  0.4315360000000  0.4425150000000  0.5175560000000 1.0
C      1  0.4312030000000  0.4775020000000  0.5570780000000 1.0
C      1  0.4324610000000  0.5304010000000  0.5540260000000 1.0
C      1  0.4341570000000  0.5611370000000  0.5111440000000 1.0
C      1  0.4377000000000  0.5461450000000  0.4598450000000 1.0
C      1  0.4379990000000  0.4978420000000  0.4400870000000 1.0
C      1  0.4337590000000  0.4515090000000  0.4653230000000 1.0
C      1  0.5037010000000  0.4436620000000  0.4937680000000 1.0
C      1  0.5037450000000  0.4567610000000  0.5419350000000 1.0
C      1  0.5038500000000  0.5014850000000  0.5602400000000 1.0
C      1  0.5045850000000  0.5445920000000  0.5340000000000 1.0
C      1  0.5069160000000  0.5556620000000  0.4855310000000 1.0
C      1  0.5128100000000  0.5189670000000  0.4394170000000 1.0
C      1  0.5075010000000  0.4703610000000  0.4518890000000 1.0
C      1  0.5161210000000  0.5331250000000  0.4670420000000 1.0
C      1  0.5266060000000  0.4922830000000  0.4438180000000 1.0
C      1  0.5204470000000  0.4523400000000  0.4711720000000 1.0
C      1  0.5184210000000  0.4477500000000  0.5185620000000 1.0
C      1  0.5199340000000  0.4771270000000  0.5557260000000 1.0
C      1  0.5183540000000  0.5239470000000  0.5492490000000 1.0
C      1  0.5218300000000  0.5531010000000  0.5113110000000 1.0
C      1  0.5443920000000  0.4662040000000  0.4825580000000 1.0
C      1  0.5415220000000  0.4650060000000  0.5127840000000 1.0
C      1  0.5489000000000  0.4854470000000  0.5362070000000 1.0
C      1  0.5410670000000  0.5147770000000  0.5339790000000 1.0
C      1  0.5425350000000  0.5299740000000  0.5085170000000 1.0
C      1  0.5294260000000  0.5135190000000  0.4858850000000 1.0
C      1  0.5456920000000  0.4935350000000  0.4688420000000 1.0
C      1  0.4742600000000  0.5028570000000  0.5602080000000 1.0
C      1  0.4756440000000  0.5481850000000  0.5360630000000 1.0
C      1  0.4776350000000  0.5576260000000  0.4862180000000 1.0
C      1  0.4826880000000  0.5216230000000  0.4498330000000 1.0
C      1  0.4780420000000  0.4709880000000  0.4509440000000 1.0
C      1  0.4746010000000  0.4412500000000  0.4923330000000 1.0
C      1  0.4739890000000  0.4565470000000  0.5411250000000 1.0
C      1  0.4596220000000  0.4767280000000  0.5581840000000 1.0
C      1  0.4609410000000  0.5294810000000  0.5546030000000 1.0
C      1  0.4626090000000  0.5608480000000  0.5122820000000 1.0
C      1  0.4659430000000  0.5458450000000  0.4615030000000 1.0
C      1  0.4662280000000  0.4964890000000  0.4418100000000 1.0
C      1  0.4621810000000  0.4505100000000  0.4665560000000 1.0
C      1  0.4599870000000  0.4419190000000  0.5186340000000 1.0
C      1  0.4815390000000  0.4989000000000  0.5027020000000 1.0
C      1  0.5073940000000  0.5001420000000  0.4972950000000 1.0
C      1  0.6068610000000  0.5118280000000  0.4923150000000 1.0
C      1  0.4561630000000  0.5004590000000  0.5019820000000 1.0
END
