TITL C-38189-4514-624 2.70463443590176e-05 125000 -365.016169554631 0 0 60 (C1) n - 1
REM
REM in /home/bkarasulu/CARBON/AIRSS/Generating-Clusters/EDIP-Nigel-Params/Higher-Symm/Box-15A/Only-C60/SD-CG/FIRE-HFTN
REM
REM
REM
REM
REM
REM ./C.cell (414f73aa93bd7a1190c7fd0f31ff2f98)
REM
REM compiler GCC version 9.2.1 20190827 (Red Hat 9.2.1-1)
REM options -cpp -mtune=generic -march=x86-64 -g -O0 -fpre-include=/usr/include/finclude/math-vector-fortran.h
REM seed 411735028 -130280233 -985153325 334850528 1958178002 531114805 1085358280 279315074 -2112995934 -294757010 487661870 1121772106 -549279980 1473857786 1335319368 -96369161 81943669 1921801210 -1779979945 -1520057018 867471597 -1455519286 1203425861 -883200995 -2087205603 -1222746765 1580103950 -1542996462 -2010200165 -1991309009 -110496544 972495389 980894788
REM
CELL 1.54180   50.00000   50.00000   50.00000   90.00000   90.00000   90.00000
LATT -1
SFAC C  
C      1  0.4643900000000  0.4426220000000  0.5179820000000 1.0
C      1  0.4656800000000  0.5099050000000  0.4435210000000 1.0
C      1  0.4679630000000  0.5428870000000  0.5362850000000 1.0
C      1  0.4967120000000  0.4602030000000  0.5429030000000 1.0
C      1  0.4987290000000  0.4802050000000  0.4472600000000 1.0
C      1  0.5072470000000  0.5617000000000  0.5166500000000 1.0
C      1  0.4426570000000  0.4737910000000  0.4706280000000 1.0
C      1  0.4445490000000  0.5344840000000  0.4930590000000 1.0
C      1  0.4487190000000  0.4885410000000  0.5332210000000 1.0
C      1  0.5271800000000  0.4876230000000  0.5213360000000 1.0
C      1  0.5401260000000  0.4919620000000  0.4782390000000 1.0
C      1  0.5372760000000  0.5087320000000  0.5027930000000 1.0
C      1  0.4965260000000  0.4322120000000  0.4467160000000 1.0
C      1  0.4948250000000  0.5766450000000  0.4715160000000 1.0
C      1  0.4925350000000  0.4878800000000  0.5862070000000 1.0
C      1  0.5125310000000  0.4547690000000  0.4409410000000 1.0
C      1  0.5126380000000  0.5632950000000  0.4881990000000 1.0
C      1  0.5088330000000  0.4773810000000  0.5655380000000 1.0
C      1  0.5589370000000  0.4770060000000  0.5520110000000 1.0
C      1  0.5589830000000  0.4736790000000  0.4433130000000 1.0
C      1  0.5594000000000  0.5494770000000  0.4963290000000 1.0
C      1  0.5394490000000  0.4548120000000  0.4535210000000 1.0
C      1  0.5388960000000  0.5558340000000  0.4777860000000 1.0
C      1  0.5362900000000  0.4908730000000  0.5633270000000 1.0
C      1  0.4764500000000  0.4976720000000  0.5430580000000 1.0
C      1  0.4706540000000  0.4639830000000  0.4747510000000 1.0
C      1  0.4712220000000  0.5320220000000  0.4800690000000 1.0
C      1  0.5379230000000  0.5216600000000  0.5623350000000 1.0
C      1  0.5380910000000  0.4491630000000  0.4832180000000 1.0
C      1  0.5386700000000  0.5411600000000  0.4516980000000 1.0
C      1  0.4925300000000  0.5092700000000  0.4904630000000 1.0
C      1  0.4981980000000  0.5136710000000  0.5225520000000 1.0
C      1  0.4838990000000  0.4809590000000  0.4969030000000 1.0
C      1  0.5498180000000  0.4695120000000  0.5267790000000 1.0
C      1  0.5617630000000  0.4975880000000  0.4584270000000 1.0
C      1  0.5564930000000  0.5275040000000  0.5132150000000 1.0
C      1  0.4840640000000  0.5354370000000  0.4435540000000 1.0
C      1  0.4812000000000  0.5318450000000  0.5615070000000 1.0
C      1  0.4834970000000  0.4327590000000  0.4945910000000 1.0
C      1  0.4269600000000  0.4670190000000  0.4929790000000 1.0
C      1  0.4267810000000  0.5198720000000  0.4771400000000 1.0
C      1  0.4301760000000  0.5095520000000  0.5321480000000 1.0
C      1  0.4750940000000  0.4423650000000  0.5442610000000 1.0
C      1  0.4776360000000  0.4882140000000  0.4305520000000 1.0
C      1  0.4807120000000  0.5648680000000  0.5244540000000 1.0
C      1  0.4742380000000  0.5040000000000  0.5728350000000 1.0
C      1  0.4756120000000  0.4343950000000  0.4652410000000 1.0
C      1  0.4763330000000  0.5577010000000  0.4631540000000 1.0
C      1  0.5123770000000  0.5011810000000  0.4648740000000 1.0
C      1  0.5171880000000  0.5370650000000  0.5304970000000 1.0
C      1  0.5047480000000  0.4677480000000  0.5148280000000 1.0
C      1  0.4439370000000  0.5021810000000  0.4628900000000 1.0
C      1  0.4451680000000  0.5311440000000  0.5220200000000 1.0
C      1  0.4461220000000  0.4659810000000  0.5140470000000 1.0
C      1  0.5606280000000  0.5236000000000  0.4482580000000 1.0
C      1  0.5564170000000  0.5306330000000  0.5414140000000 1.0
C      1  0.5571990000000  0.4641330000000  0.4989060000000 1.0
C      1  0.5109820000000  0.5387100000000  0.5605460000000 1.0
C      1  0.5128580000000  0.4432950000000  0.4994070000000 1.0
C      1  0.5132920000000  0.5256170000000  0.4471490000000 1.0
END
