TITL C-38194-9318-108 -1.31781495625065e-06 125000 -358.339428224266 0 0 60 (D5h) n - 1
REM
REM in /home/bkarasulu/CARBON/AIRSS/Generating-Clusters/EDIP-Nigel-Params/Higher-Symm/Box-15A/Only-C60/SD-CG/FIRE-HFTN
REM
REM
REM
REM
REM
REM ./C.cell (414f73aa93bd7a1190c7fd0f31ff2f98)
REM
REM compiler GCC version 9.2.1 20190827 (Red Hat 9.2.1-1)
REM options -cpp -mtune=generic -march=x86-64 -g -O0 -fpre-include=/usr/include/finclude/math-vector-fortran.h
REM seed -693241958 -1568491355 -788145909 115273202 -608601370 1000389984 1896890681 1660486268 2120297876 -1996950236 -1874794993 1715899180 162524435 1765980234 259611827 272885419 -416748930 1915464530 -624396868 -952898169 -1954370976 353323129 -835259453 -696224518 1948950873 -1625885690 665369117 458157592 1131990620 862169742 677286446 740707804 -1741973494
REM
CELL 1.54180   50.00000   50.00000   50.00000   90.00000   90.00000   90.00000
LATT -1
SFAC C  
C      1  0.5291250000000  0.5476690000000  0.4426650000000 1.0
C      1  0.5291250000000  0.5692590000000  0.5276190000000 1.0
C      1  0.5291250000000  0.4951350000000  0.5744040000000 1.0
C      1  0.5291250000000  0.4277340000000  0.5183650000000 1.0
C      1  0.5291250000000  0.4602020000000  0.4369460000000 1.0
C      1  0.4708750000000  0.5476690000000  0.4426650000000 1.0
C      1  0.4708750000000  0.5692590000000  0.5276190000000 1.0
C      1  0.4708750000000  0.4951350000000  0.5744040000000 1.0
C      1  0.4708750000000  0.4277340000000  0.5183650000000 1.0
C      1  0.4708750000000  0.4602020000000  0.4369460000000 1.0
C      1  0.5485580000000  0.4917080000000  0.4679320000000 1.0
C      1  0.5485580000000  0.5279360000000  0.4822050000000 1.0
C      1  0.5485580000000  0.5255570000000  0.5210700000000 1.0
C      1  0.5485580000000  0.4878590000000  0.5308170000000 1.0
C      1  0.5485580000000  0.4669390000000  0.4979760000000 1.0
C      1  0.4514420000000  0.4917080000000  0.4679320000000 1.0
C      1  0.4514420000000  0.5279360000000  0.4822050000000 1.0
C      1  0.4514420000000  0.5255570000000  0.5210700000000 1.0
C      1  0.4514420000000  0.4878590000000  0.5308170000000 1.0
C      1  0.4514420000000  0.4669390000000  0.4979760000000 1.0
C      1  0.4708440000000  0.5400220000000  0.5628880000000 1.0
C      1  0.4708440000000  0.4525570000000  0.5574970000000 1.0
C      1  0.4708440000000  0.4306560000000  0.4726470000000 1.0
C      1  0.4708440000000  0.5045860000000  0.4255980000000 1.0
C      1  0.4708440000000  0.5721780000000  0.4813700000000 1.0
C      1  0.5291560000000  0.5400220000000  0.5628880000000 1.0
C      1  0.5291560000000  0.4525570000000  0.5574970000000 1.0
C      1  0.5291560000000  0.4306560000000  0.4726470000000 1.0
C      1  0.5291560000000  0.5045860000000  0.4255980000000 1.0
C      1  0.5291560000000  0.5721780000000  0.4813700000000 1.0
C      1  0.4803080000000  0.4917080000000  0.5234960000000 1.0
C      1  0.4803080000000  0.4750920000000  0.4993740000000 1.0
C      1  0.4803080000000  0.4928980000000  0.4761180000000 1.0
C      1  0.4803080000000  0.5205190000000  0.4858660000000 1.0
C      1  0.4803080000000  0.5197830000000  0.5151470000000 1.0
C      1  0.5196920000000  0.4917080000000  0.5234960000000 1.0
C      1  0.5196920000000  0.4750920000000  0.4993740000000 1.0
C      1  0.5196920000000  0.4928980000000  0.4761180000000 1.0
C      1  0.5196920000000  0.5205190000000  0.4858660000000 1.0
C      1  0.5196920000000  0.5197830000000  0.5151470000000 1.0
C      1  0.4574240000000  0.4844440000000  0.4393190000000 1.0
C      1  0.4574240000000  0.5529040000000  0.4664540000000 1.0
C      1  0.4574240000000  0.5482520000000  0.5399490000000 1.0
C      1  0.4574240000000  0.4769170000000  0.5582350000000 1.0
C      1  0.4574240000000  0.4374820000000  0.4960430000000 1.0
C      1  0.5425760000000  0.4844440000000  0.4393190000000 1.0
C      1  0.5425760000000  0.5529040000000  0.4664540000000 1.0
C      1  0.5425760000000  0.5482520000000  0.5399490000000 1.0
C      1  0.5425760000000  0.4769170000000  0.5582350000000 1.0
C      1  0.5425760000000  0.4374820000000  0.4960430000000 1.0
C      1  0.5145260000000  0.5742840000000  0.5047090000000 1.0
C      1  0.5145260000000  0.5184770000000  0.5721030000000 1.0
C      1  0.5145260000000  0.4371350000000  0.5398540000000 1.0
C      1  0.5145260000000  0.4426710000000  0.4525280000000 1.0
C      1  0.5145260000000  0.5274330000000  0.4308070000000 1.0
C      1  0.4854740000000  0.5742840000000  0.5047090000000 1.0
C      1  0.4854740000000  0.5184770000000  0.5721030000000 1.0
C      1  0.4854740000000  0.4371350000000  0.5398540000000 1.0
C      1  0.4854740000000  0.4426710000000  0.4525280000000 1.0
C      1  0.4854740000000  0.5274330000000  0.4308070000000 1.0
END
