TITL C-38198-1686-161 0.0119083484078256 125000 -369.526259323382 0 0 60 (C1) n - 1
REM
REM in /home/bkarasulu/CARBON/AIRSS/Generating-Clusters/EDIP-Nigel-Params/Higher-Symm/Box-15A/Only-C60/SD-CG/FIRE-HFTN
REM
REM
REM
REM
REM
REM ./C.cell (414f73aa93bd7a1190c7fd0f31ff2f98)
REM
REM compiler GCC version 9.2.1 20190827 (Red Hat 9.2.1-1)
REM options -cpp -mtune=generic -march=x86-64 -g -O0 -fpre-include=/usr/include/finclude/math-vector-fortran.h
REM seed 836569636 -2048078493 909605993 290565590 238736566 2115419845 977669530 496384008 229651328 1808546144 -1831350439 206958309 -630153892 -687688851 -435751871 89240190 -48703894 55285906 -1489755913 -1936011388 -608226770 -827456413 678577829 1285901500 1795579794 -113703563 -2043311807 -1716072835 -1828930522 417472320 1838196293 1105398321 -1245299388
REM
CELL 1.54180   50.00000   50.00000   50.00000   90.00000   90.00000   90.00000
LATT -1
SFAC C  
C      1  0.5350070000000  0.4398280000000  0.4918510000000 1.0
C      1  0.5363490000000  0.4609760000000  0.5381510000000 1.0
C      1  0.5409610000000  0.5065730000000  0.5649900000000 1.0
C      1  0.5391090000000  0.5474130000000  0.5334030000000 1.0
C      1  0.5403200000000  0.5570810000000  0.4830570000000 1.0
C      1  0.5338260000000  0.5198870000000  0.4471800000000 1.0
C      1  0.5318610000000  0.4688260000000  0.4480310000000 1.0
C      1  0.4872960000000  0.4746820000000  0.5148480000000 1.0
C      1  0.4938010000000  0.4938860000000  0.5358240000000 1.0
C      1  0.5221170000000  0.5067650000000  0.5308730000000 1.0
C      1  0.5204900000000  0.5277650000000  0.4985750000000 1.0
C      1  0.4940440000000  0.5261060000000  0.4851730000000 1.0
C      1  0.4866770000000  0.5006970000000  0.4757110000000 1.0
C      1  0.4963530000000  0.4788370000000  0.4891530000000 1.0
C      1  0.4906890000000  0.4549890000000  0.4723580000000 1.0
C      1  0.4924090000000  0.4461600000000  0.5209690000000 1.0
C      1  0.4951410000000  0.4755480000000  0.5620980000000 1.0
C      1  0.4961640000000  0.5324530000000  0.5558740000000 1.0
C      1  0.4959140000000  0.5623160000000  0.5107110000000 1.0
C      1  0.4924990000000  0.5450550000000  0.4616520000000 1.0
C      1  0.4883410000000  0.4969570000000  0.4463150000000 1.0
C      1  0.5099190000000  0.5488260000000  0.5346210000000 1.0
C      1  0.5102940000000  0.5668270000000  0.4833740000000 1.0
C      1  0.5046180000000  0.5238070000000  0.4420530000000 1.0
C      1  0.5019380000000  0.4682360000000  0.4463730000000 1.0
C      1  0.5052820000000  0.4357910000000  0.4936640000000 1.0
C      1  0.5092660000000  0.4525960000000  0.5464570000000 1.0
C      1  0.5099940000000  0.5090130000000  0.5710200000000 1.0
C      1  0.4601990000000  0.4533420000000  0.4728000000000 1.0
C      1  0.4631510000000  0.4386120000000  0.5235750000000 1.0
C      1  0.4644790000000  0.4740050000000  0.5621020000000 1.0
C      1  0.4681760000000  0.5267760000000  0.5495240000000 1.0
C      1  0.4664050000000  0.5586270000000  0.5094690000000 1.0
C      1  0.4625180000000  0.5475020000000  0.4589240000000 1.0
C      1  0.4577900000000  0.4972270000000  0.4426010000000 1.0
C      1  0.4577530000000  0.5008890000000  0.5549260000000 1.0
C      1  0.4563340000000  0.5440930000000  0.5310910000000 1.0
C      1  0.4540350000000  0.5566690000000  0.4841410000000 1.0
C      1  0.4506590000000  0.5244790000000  0.4472090000000 1.0
C      1  0.4451760000000  0.4762030000000  0.4602290000000 1.0
C      1  0.4516500000000  0.4424510000000  0.4977370000000 1.0
C      1  0.4539080000000  0.4535660000000  0.5456710000000 1.0
C      1  0.5544810000000  0.5295440000000  0.5508090000000 1.0
C      1  0.5546980000000  0.5535480000000  0.5093560000000 1.0
C      1  0.5517830000000  0.5383520000000  0.4617650000000 1.0
C      1  0.5470360000000  0.4938350000000  0.4429980000000 1.0
C      1  0.5474660000000  0.4516830000000  0.4670990000000 1.0
C      1  0.5506940000000  0.4482670000000  0.5157130000000 1.0
C      1  0.5520690000000  0.4816460000000  0.5517740000000 1.0
C      1  0.5726010000000  0.4661520000000  0.4746380000000 1.0
C      1  0.5745880000000  0.4640170000000  0.5062360000000 1.0
C      1  0.5759040000000  0.4893840000000  0.5356470000000 1.0
C      1  0.5783130000000  0.5199630000000  0.5356390000000 1.0
C      1  0.5775360000000  0.5345870000000  0.5086190000000 1.0
C      1  0.5747140000000  0.5217310000000  0.4720440000000 1.0
C      1  0.5724650000000  0.4931610000000  0.4588000000000 1.0
C      1  0.5613750000000  0.4995660000000  0.5007750000000 1.0
C      1  0.3922580000000  0.4725630000000  0.4584880000000 1.0
C      1  0.5325300000000  0.5003970000000  0.5026930000000 1.0
C      1  0.4178440000000  0.4735440000000  0.4581280000000 1.0
END
