TITL C-38197-8510-134 5.74784181706206e-05 125000 -356.177156846452 0 0 60 (Ci) n - 1
REM
REM in /home/bkarasulu/CARBON/AIRSS/Generating-Clusters/EDIP-Nigel-Params/Higher-Symm/Box-15A/Only-C60/SD-CG/FIRE-HFTN
REM
REM
REM
REM
REM
REM ./C.cell (414f73aa93bd7a1190c7fd0f31ff2f98)
REM
REM compiler GCC version 9.2.1 20190827 (Red Hat 9.2.1-1)
REM options -cpp -mtune=generic -march=x86-64 -g -O0 -fpre-include=/usr/include/finclude/math-vector-fortran.h
REM seed -1260372034 -726761684 1156123895 -43549155 -1324059211 -989678784 -175916950 468402351 -196197882 1444885427 -83561735 1543993191 -165648204 -569786255 711174874 -686949162 1296582506 1983525597 -316046947 2026382554 -1676184502 125636897 1597885242 1633445372 427957871 1592288127 173120473 1006401908 -1070670749 603229071 2075590241 -1725745094 -244176221
REM
CELL 1.54180   50.00000   50.00000   50.00000   90.00000   90.00000   90.00000
LATT -1
SFAC C  
C      1  0.4450500000000  0.5288490000000  0.4630220000000 1.0
C      1  0.5549500000000  0.4711510000000  0.5369780000000 1.0
C      1  0.4358700000000  0.4660640000000  0.5365050000000 1.0
C      1  0.5641300000000  0.5339360000000  0.4634950000000 1.0
C      1  0.4785880000000  0.5035120000000  0.5472060000000 1.0
C      1  0.5214120000000  0.4964880000000  0.4527940000000 1.0
C      1  0.4834660000000  0.5539150000000  0.5396120000000 1.0
C      1  0.5165340000000  0.4460850000000  0.4603880000000 1.0
C      1  0.5224430000000  0.5746240000000  0.5182150000000 1.0
C      1  0.4775570000000  0.4253760000000  0.4817850000000 1.0
C      1  0.4409000000000  0.4770690000000  0.4895960000000 1.0
C      1  0.5591000000000  0.5229310000000  0.5104040000000 1.0
C      1  0.5624680000000  0.5224820000000  0.5392090000000 1.0
C      1  0.4375320000000  0.4775180000000  0.4607910000000 1.0
C      1  0.5201300000000  0.4200940000000  0.5009150000000 1.0
C      1  0.4798700000000  0.5799060000000  0.4990850000000 1.0
C      1  0.4586260000000  0.4600330000000  0.5532090000000 1.0
C      1  0.5413740000000  0.5399670000000  0.4467910000000 1.0
C      1  0.4648220000000  0.4852490000000  0.5643310000000 1.0
C      1  0.5351780000000  0.5147510000000  0.4356690000000 1.0
C      1  0.4572540000000  0.4599010000000  0.4488090000000 1.0
C      1  0.5427460000000  0.5400990000000  0.5511910000000 1.0
C      1  0.4944110000000  0.5093450000000  0.4572150000000 1.0
C      1  0.5055890000000  0.4906550000000  0.5427850000000 1.0
C      1  0.5144960000000  0.4826280000000  0.5136040000000 1.0
C      1  0.4855040000000  0.5173720000000  0.4863960000000 1.0
C      1  0.5063700000000  0.5293100000000  0.5027050000000 1.0
C      1  0.4936300000000  0.4706900000000  0.4972950000000 1.0
C      1  0.4340940000000  0.4579290000000  0.5094520000000 1.0
C      1  0.5659060000000  0.5420710000000  0.4905480000000 1.0
C      1  0.5030900000000  0.5356790000000  0.4430390000000 1.0
C      1  0.4969100000000  0.4643210000000  0.5569610000000 1.0
C      1  0.5401640000000  0.4499120000000  0.5482940000000 1.0
C      1  0.4598360000000  0.5500880000000  0.4517060000000 1.0
C      1  0.5177010000000  0.5787270000000  0.4899880000000 1.0
C      1  0.4822990000000  0.4212730000000  0.5100120000000 1.0
C      1  0.4549800000000  0.5234540000000  0.4908640000000 1.0
C      1  0.5450200000000  0.4765460000000  0.5091360000000 1.0
C      1  0.5428770000000  0.5651330000000  0.5367710000000 1.0
C      1  0.4571230000000  0.4348670000000  0.4632290000000 1.0
C      1  0.5258540000000  0.4694330000000  0.4488580000000 1.0
C      1  0.4741460000000  0.5305670000000  0.5511420000000 1.0
C      1  0.4651570000000  0.5662770000000  0.5197960000000 1.0
C      1  0.5348430000000  0.4337230000000  0.4802040000000 1.0
C      1  0.4345400000000  0.4938080000000  0.5300330000000 1.0
C      1  0.5654600000000  0.5061920000000  0.4699670000000 1.0
C      1  0.5132160000000  0.4424940000000  0.5455520000000 1.0
C      1  0.4867840000000  0.5575060000000  0.4544480000000 1.0
C      1  0.5539370000000  0.4968740000000  0.5532690000000 1.0
C      1  0.4460630000000  0.5031260000000  0.4467310000000 1.0
C      1  0.4737540000000  0.4939530000000  0.4420220000000 1.0
C      1  0.5262460000000  0.5060470000000  0.5579780000000 1.0
C      1  0.5495480000000  0.4537360000000  0.4926250000000 1.0
C      1  0.4504520000000  0.5462640000000  0.5073750000000 1.0
C      1  0.5092690000000  0.5480820000000  0.5261480000000 1.0
C      1  0.4907310000000  0.4519180000000  0.4738520000000 1.0
C      1  0.4953840000000  0.5606720000000  0.4831690000000 1.0
C      1  0.5046160000000  0.4393280000000  0.5168310000000 1.0
C      1  0.4384830000000  0.5015560000000  0.5027470000000 1.0
C      1  0.5615170000000  0.4984440000000  0.4972530000000 1.0
END
