TITL C-38195-9455-59 -1.32467262772226e-06 125000 -368.907398179332 0 0 60 (C2) n - 1
REM
REM in /home/bkarasulu/CARBON/AIRSS/Generating-Clusters/EDIP-Nigel-Params/Higher-Symm/Box-15A/Only-C60/SD-CG/FIRE-HFTN
REM
REM
REM
REM
REM
REM ./C.cell (414f73aa93bd7a1190c7fd0f31ff2f98)
REM
REM compiler GCC version 9.2.1 20190827 (Red Hat 9.2.1-1)
REM options -cpp -mtune=generic -march=x86-64 -g -O0 -fpre-include=/usr/include/finclude/math-vector-fortran.h
REM seed 198814857 -1462336270 -71472209 1975509514 -1068461569 -1737022801 962566534 -202666829 1559860009 -1005527593 75250420 1869427919 -635851746 1802039781 -1302424622 -2118384231 1270449474 -1635905909 90665469 -1429851315 847921755 1007481372 286357810 2080710381 372411784 -379222671 1563231465 374112657 -1121983753 472724324 716411384 1127915011 1987058756
REM
CELL 1.54180   50.00000   50.00000   50.00000   90.00000   90.00000   90.00000
LATT -1
SFAC C  
C      1  0.5105000000000  0.5505320000000  0.4413100000000 1.0
C      1  0.4862020000000  0.5394110000000  0.4533720000000 1.0
C      1  0.4646920000000  0.5199190000000  0.4472290000000 1.0
C      1  0.4608160000000  0.4913500000000  0.4541450000000 1.0
C      1  0.4640900000000  0.4634700000000  0.4448090000000 1.0
C      1  0.4895000000000  0.4494680000000  0.4413100000000 1.0
C      1  0.5137980000000  0.4605890000000  0.4533720000000 1.0
C      1  0.5353080000000  0.4800810000000  0.4472290000000 1.0
C      1  0.5391840000000  0.5086500000000  0.4541450000000 1.0
C      1  0.5359100000000  0.5365300000000  0.4448090000000 1.0
C      1  0.5559580000000  0.4952300000000  0.5584730000000 1.0
C      1  0.5523560000000  0.5351460000000  0.5527820000000 1.0
C      1  0.5333930000000  0.5811310000000  0.5502360000000 1.0
C      1  0.4953160000000  0.5875350000000  0.5504610000000 1.0
C      1  0.4587930000000  0.5522470000000  0.5497720000000 1.0
C      1  0.4440420000000  0.5047700000000  0.5584730000000 1.0
C      1  0.4476440000000  0.4648540000000  0.5527820000000 1.0
C      1  0.4666070000000  0.4188690000000  0.5502360000000 1.0
C      1  0.5046840000000  0.4124650000000  0.5504610000000 1.0
C      1  0.5412070000000  0.4477530000000  0.5497720000000 1.0
C      1  0.4866070000000  0.5630940000000  0.5117910000000 1.0
C      1  0.4420690000000  0.5219490000000  0.5141590000000 1.0
C      1  0.4388270000000  0.4933990000000  0.5141660000000 1.0
C      1  0.4637810000000  0.4437960000000  0.5104800000000 1.0
C      1  0.4864400000000  0.4237760000000  0.5062670000000 1.0
C      1  0.5133930000000  0.4369060000000  0.5117910000000 1.0
C      1  0.5579310000000  0.4780510000000  0.5141590000000 1.0
C      1  0.5611730000000  0.5066010000000  0.5141660000000 1.0
C      1  0.5362190000000  0.5562040000000  0.5104800000000 1.0
C      1  0.5135600000000  0.5762240000000  0.5062670000000 1.0
C      1  0.4491290000000  0.5375160000000  0.4905120000000 1.0
C      1  0.4319490000000  0.4769430000000  0.4913640000000 1.0
C      1  0.4443340000000  0.4504820000000  0.4893500000000 1.0
C      1  0.4854820000000  0.4140120000000  0.4787150000000 1.0
C      1  0.5335060000000  0.4396340000000  0.4914110000000 1.0
C      1  0.5508710000000  0.4624840000000  0.4905120000000 1.0
C      1  0.5680510000000  0.5230570000000  0.4913640000000 1.0
C      1  0.5556660000000  0.5495180000000  0.4893500000000 1.0
C      1  0.5145180000000  0.5859880000000  0.4787150000000 1.0
C      1  0.4664940000000  0.5603660000000  0.4914110000000 1.0
C      1  0.4342080000000  0.4855690000000  0.5413230000000 1.0
C      1  0.4543690000000  0.4415920000000  0.5379340000000 1.0
C      1  0.4837690000000  0.4048700000000  0.5308360000000 1.0
C      1  0.5229850000000  0.4304620000000  0.5379180000000 1.0
C      1  0.5523780000000  0.4719350000000  0.5419380000000 1.0
C      1  0.5657920000000  0.5144310000000  0.5413230000000 1.0
C      1  0.5456310000000  0.5584080000000  0.5379340000000 1.0
C      1  0.5162310000000  0.5951300000000  0.5308360000000 1.0
C      1  0.4770150000000  0.5695380000000  0.5379180000000 1.0
C      1  0.4476220000000  0.5280650000000  0.5419380000000 1.0
C      1  0.4753590000000  0.5629030000000  0.4650980000000 1.0
C      1  0.4434820000000  0.5312120000000  0.4632070000000 1.0
C      1  0.4352160000000  0.4895360000000  0.4664520000000 1.0
C      1  0.4499320000000  0.4456700000000  0.4618150000000 1.0
C      1  0.4857510000000  0.4232360000000  0.4526770000000 1.0
C      1  0.5246410000000  0.4370970000000  0.4650980000000 1.0
C      1  0.5565180000000  0.4687880000000  0.4632070000000 1.0
C      1  0.5647840000000  0.5104640000000  0.4664520000000 1.0
C      1  0.5500680000000  0.5543300000000  0.4618150000000 1.0
C      1  0.5142490000000  0.5767640000000  0.4526770000000 1.0
END
