TITL C-38195-9455-203 4.74333062114707e-06 125000 -373.350809046435 0 0 60 (Ci) n - 1
REM
REM in /home/bkarasulu/CARBON/AIRSS/Generating-Clusters/EDIP-Nigel-Params/Higher-Symm/Box-15A/Only-C60/SD-CG/FIRE-HFTN
REM
REM
REM
REM
REM
REM ./C.cell (414f73aa93bd7a1190c7fd0f31ff2f98)
REM
REM compiler GCC version 9.2.1 20190827 (Red Hat 9.2.1-1)
REM options -cpp -mtune=generic -march=x86-64 -g -O0 -fpre-include=/usr/include/finclude/math-vector-fortran.h
REM seed -1543376205 1309349046 585081617 -1830869521 -283140412 1387286078 1560857064 1506244203 -1279340607 -38065259 -68754834 -1718355191 1277658400 1688627109 -1079982032 2033009175 -2130174150 1334921400 -1318110161 -1715566556 338006547 -2049056977 -459485979 -349876222 861115499 -1680256752 -1305702719 -650044966 -1326110285 -986067283 1541458964 -1813832229 -2074081848
REM
CELL 1.54180   50.00000   50.00000   50.00000   90.00000   90.00000   90.00000
LATT -1
SFAC C  
C      1  0.4930740000000  0.5588860000000  0.4814500000000 1.0
C      1  0.5043670000000  0.4796970000000  0.5685720000000 1.0
C      1  0.4842240000000  0.4648990000000  0.4475710000000 1.0
C      1  0.5055260000000  0.4472970000000  0.4888600000000 1.0
C      1  0.4963820000000  0.5150150000000  0.5593530000000 1.0
C      1  0.5164030000000  0.5394600000000  0.4400290000000 1.0
C      1  0.5069260000000  0.4411140000000  0.5185500000000 1.0
C      1  0.4956330000000  0.5203030000000  0.4314280000000 1.0
C      1  0.5157760000000  0.5351010000000  0.5524290000000 1.0
C      1  0.4944740000000  0.5527030000000  0.5111400000000 1.0
C      1  0.5036180000000  0.4849850000000  0.4406470000000 1.0
C      1  0.4835970000000  0.4605400000000  0.5599710000000 1.0
C      1  0.5303900000000  0.4754860000000  0.5558470000000 1.0
C      1  0.5267690000000  0.4686130000000  0.4845680000000 1.0
C      1  0.5163440000000  0.5433160000000  0.4709070000000 1.0
C      1  0.4782610000000  0.5079060000000  0.5371560000000 1.0
C      1  0.4681050000000  0.5446960000000  0.4675810000000 1.0
C      1  0.4796180000000  0.4602360000000  0.4782300000000 1.0
C      1  0.4696100000000  0.5245140000000  0.4441530000000 1.0
C      1  0.4732310000000  0.5313870000000  0.5154320000000 1.0
C      1  0.4836560000000  0.4566840000000  0.5290930000000 1.0
C      1  0.5217390000000  0.4920940000000  0.4628440000000 1.0
C      1  0.5318950000000  0.4553040000000  0.5324190000000 1.0
C      1  0.5203820000000  0.5397640000000  0.5217700000000 1.0
C      1  0.5742670000000  0.4733750000000  0.4846310000000 1.0
C      1  0.5704570000000  0.5263240000000  0.4855270000000 1.0
C      1  0.5633990000000  0.4972460000000  0.5255910000000 1.0
C      1  0.4257400000000  0.5274020000000  0.4854340000000 1.0
C      1  0.4293920000000  0.4761590000000  0.4843700000000 1.0
C      1  0.4312420000000  0.4998500000000  0.5281710000000 1.0
C      1  0.4257330000000  0.5266250000000  0.5153690000000 1.0
C      1  0.4295430000000  0.4736760000000  0.5144730000000 1.0
C      1  0.4366010000000  0.5027540000000  0.4744090000000 1.0
C      1  0.5742600000000  0.4725980000000  0.5145660000000 1.0
C      1  0.5706080000000  0.5238410000000  0.5156300000000 1.0
C      1  0.5687580000000  0.5001500000000  0.4718290000000 1.0
C      1  0.4405890000000  0.5523400000000  0.4776290000000 1.0
C      1  0.4517770000000  0.4984930000000  0.5495760000000 1.0
C      1  0.4432240000000  0.4569900000000  0.4673120000000 1.0
C      1  0.5531790000000  0.4537140000000  0.4791890000000 1.0
C      1  0.5495850000000  0.4982000000000  0.5511450000000 1.0
C      1  0.5547060000000  0.5445260000000  0.4686820000000 1.0
C      1  0.5594110000000  0.4476600000000  0.5223710000000 1.0
C      1  0.5482230000000  0.5015070000000  0.4504240000000 1.0
C      1  0.5567760000000  0.5430100000000  0.5326880000000 1.0
C      1  0.4468210000000  0.5462860000000  0.5208110000000 1.0
C      1  0.4504150000000  0.5018000000000  0.4488550000000 1.0
C      1  0.4452940000000  0.4554740000000  0.5313180000000 1.0
C      1  0.5574270000000  0.4326710000000  0.4981020000000 1.0
C      1  0.4425730000000  0.5673290000000  0.5018980000000 1.0
C      1  0.5466640000000  0.5307820000000  0.4427380000000 1.0
C      1  0.4533360000000  0.4692180000000  0.5572620000000 1.0
C      1  0.4554440000000  0.4718530000000  0.4439440000000 1.0
C      1  0.5445560000000  0.5281470000000  0.5560560000000 1.0
C      1  0.4909530000000  0.4842110000000  0.5194330000000 1.0
C      1  0.5090470000000  0.5157890000000  0.4805670000000 1.0
C      1  0.5223470000000  0.5140060000000  0.5061020000000 1.0
C      1  0.4776530000000  0.4859940000000  0.4938980000000 1.0
C      1  0.4771770000000  0.5156130000000  0.4867330000000 1.0
C      1  0.5228230000000  0.4843870000000  0.5132670000000 1.0
END
