TITL C-38185-7677-369 31.7396274218477 125000 -326.644068693306 0 0 60 (C1) n - 1
REM
REM in /home/bkarasulu/CARBON/AIRSS/Generating-Clusters/EDIP-Nigel-Params/Higher-Symm/Box-15A/Only-C60/SD-CG/FIRE-HFTN
REM
REM
REM
REM
REM
REM ./C.cell (414f73aa93bd7a1190c7fd0f31ff2f98)
REM
REM compiler GCC version 9.2.1 20190827 (Red Hat 9.2.1-1)
REM options -cpp -mtune=generic -march=x86-64 -g -O0 -fpre-include=/usr/include/finclude/math-vector-fortran.h
REM seed -1248166626 -788070254 -2135043174 -1144839492 -155020577 552523652 -1672429932 -925381548 2027845463 790483650 1856493704 -1676114500 -1461981970 1051173774 297553214 1641295718 1469031246 809289876 -793341246 -440279200 2100351047 -604877191 -1499322268 997402365 -1631638326 -388048061 309454651 -1989215620 423914579 676023507 646712831 1587631876 -309740151
REM
CELL 1.54180   50.00000   50.00000   50.00000   90.00000   90.00000   90.00000
LATT -1
SFAC C  
C      1  0.6148960000000  0.4964560000000  0.5075350000000 1.0
C      1  0.5402440000000  0.5872050000000  0.5947030000000 1.0
C      1  0.3912760000000  0.5936630000000  0.5166120000000 1.0
C      1  0.4654990000000  0.4053500000000  0.5539730000000 1.0
C      1  0.6163230000000  0.3835380000000  0.4766320000000 1.0
C      1  0.5351300000000  0.6528350000000  0.4982280000000 1.0
C      1  0.3673200000000  0.4808010000000  0.4965100000000 1.0
C      1  0.4521160000000  0.3553630000000  0.4492750000000 1.0
C      1  0.6057090000000  0.4071560000000  0.4817040000000 1.0
C      1  0.5350400000000  0.6305660000000  0.5123790000000 1.0
C      1  0.3823690000000  0.5023560000000  0.4987630000000 1.0
C      1  0.4573810000000  0.3748150000000  0.4663070000000 1.0
C      1  0.5996760000000  0.4761200000000  0.5002440000000 1.0
C      1  0.5377530000000  0.5862090000000  0.5684180000000 1.0
C      1  0.4016500000000  0.5702090000000  0.5102560000000 1.0
C      1  0.4667820000000  0.4098180000000  0.5279630000000 1.0
C      1  0.5034490000000  0.4794410000000  0.5498070000000 1.0
C      1  0.5039270000000  0.5087010000000  0.5501570000000 1.0
C      1  0.4773310000000  0.5133540000000  0.5372210000000 1.0
C      1  0.4806100000000  0.4755420000000  0.5327280000000 1.0
C      1  0.5257430000000  0.5035230000000  0.4234460000000 1.0
C      1  0.5116960000000  0.5514550000000  0.4517310000000 1.0
C      1  0.4950700000000  0.5383090000000  0.4329190000000 1.0
C      1  0.5100300000000  0.5236600000000  0.4137670000000 1.0
C      1  0.5418110000000  0.4826350000000  0.4938190000000 1.0
C      1  0.5270360000000  0.5375740000000  0.5152180000000 1.0
C      1  0.4552270000000  0.5214090000000  0.4919500000000 1.0
C      1  0.4818740000000  0.4649600000000  0.4849090000000 1.0
C      1  0.5366850000000  0.4823750000000  0.4658590000000 1.0
C      1  0.5356130000000  0.5348770000000  0.4890860000000 1.0
C      1  0.4582030000000  0.5331500000000  0.4660990000000 1.0
C      1  0.4819770000000  0.4726490000000  0.4585080000000 1.0
C      1  0.6295630000000  0.5159650000000  0.5151590000000 1.0
C      1  0.5428170000000  0.5881750000000  0.6201250000000 1.0
C      1  0.3807780000000  0.6160870000000  0.5230020000000 1.0
C      1  0.4642610000000  0.4010130000000  0.5791420000000 1.0
C      1  0.6264560000000  0.3606420000000  0.4714390000000 1.0
C      1  0.5351380000000  0.6744200000000  0.4845180000000 1.0
C      1  0.3527260000000  0.4599290000000  0.4942220000000 1.0
C      1  0.4470130000000  0.3365140000000  0.4327660000000 1.0
C      1  0.5349210000000  0.5851690000000  0.5412210000000 1.0
C      1  0.4130620000000  0.5463210000000  0.5033270000000 1.0
C      1  0.4681110000000  0.4144630000000  0.5010300000000 1.0
C      1  0.5839910000000  0.4552960000000  0.4918480000000 1.0
C      1  0.5350850000000  0.6082610000000  0.5265420000000 1.0
C      1  0.3974550000000  0.5239200000000  0.5011630000000 1.0
C      1  0.4626540000000  0.3942890000000  0.4833670000000 1.0
C      1  0.5952950000000  0.4308180000000  0.4871590000000 1.0
C      1  0.4903660000000  0.4844480000000  0.5060320000000 1.0
C      1  0.5208780000000  0.4860360000000  0.5155860000000 1.0
C      1  0.5258490000000  0.5127470000000  0.5303180000000 1.0
C      1  0.4777480000000  0.5121630000000  0.5077250000000 1.0
C      1  0.4920770000000  0.4985650000000  0.4577370000000 1.0
C      1  0.5211710000000  0.5036240000000  0.4523930000000 1.0
C      1  0.5274520000000  0.5312560000000  0.4629030000000 1.0
C      1  0.4754750000000  0.5202340000000  0.4468970000000 1.0
C      1  0.4409630000000  0.5448570000000  0.4990620000000 1.0
C      1  0.5323480000000  0.5609590000000  0.5286370000000 1.0
C      1  0.4749200000000  0.4393240000000  0.4917410000000 1.0
C      1  0.5559840000000  0.4584280000000  0.4895970000000 1.0
END
