TITL C-38187-2739-300 0.194872600121299 125000 -348.133665452499 0 0 60 (D2) n - 1
REM
REM in /home/bkarasulu/CARBON/AIRSS/Generating-Clusters/EDIP-Nigel-Params/Higher-Symm/Box-15A/Only-C60/SD-CG/FIRE-HFTN
REM
REM
REM
REM
REM
REM ./C.cell (414f73aa93bd7a1190c7fd0f31ff2f98)
REM
REM compiler GCC version 9.2.1 20190827 (Red Hat 9.2.1-1)
REM options -cpp -mtune=generic -march=x86-64 -g -O0 -fpre-include=/usr/include/finclude/math-vector-fortran.h
REM seed -1036769182 303984549 1860565475 1885183505 -1393253599 -736876976 -348674856 947347735 835808896 2094783066 1603781337 1500168630 -1934916462 337946060 -431283086 545989825 888279836 776887745 -1502728928 -1098671084 1751059817 -1159056479 1897601418 977971335 -1933998499 -320355141 -701916868 565939682 828920209 -251387672 1978695155 -1088157196 -816862603
REM
CELL 1.54180   50.00000   50.00000   50.00000   90.00000   90.00000   90.00000
LATT -1
SFAC C  
C      1  0.5364620000000  0.4845280000000  0.5274690000000 1.0
C      1  0.4635380000000  0.4845280000000  0.4725310000000 1.0
C      1  0.5364620000000  0.5154720000000  0.4725310000000 1.0
C      1  0.4635380000000  0.5154720000000  0.5274690000000 1.0
C      1  0.5087310000000  0.4549080000000  0.5759490000000 1.0
C      1  0.4912690000000  0.4549080000000  0.4240510000000 1.0
C      1  0.5087310000000  0.5450920000000  0.4240510000000 1.0
C      1  0.4912690000000  0.5450920000000  0.5759490000000 1.0
C      1  0.4992000000000  0.5655170000000  0.4383690000000 1.0
C      1  0.5008000000000  0.5655170000000  0.5616310000000 1.0
C      1  0.4992000000000  0.4344830000000  0.5616310000000 1.0
C      1  0.5008000000000  0.4344830000000  0.4383690000000 1.0
C      1  0.4648880000000  0.5593250000000  0.4991420000000 1.0
C      1  0.5351120000000  0.5593250000000  0.5008580000000 1.0
C      1  0.4648880000000  0.4406750000000  0.5008580000000 1.0
C      1  0.5351120000000  0.4406750000000  0.4991420000000 1.0
C      1  0.5075250000000  0.5125050000000  0.4608620000000 1.0
C      1  0.4924750000000  0.5125050000000  0.5391380000000 1.0
C      1  0.5075250000000  0.4874950000000  0.5391380000000 1.0
C      1  0.4924750000000  0.4874950000000  0.4608620000000 1.0
C      1  0.5110140000000  0.4300750000000  0.4906020000000 1.0
C      1  0.4889860000000  0.4300750000000  0.5093980000000 1.0
C      1  0.5110140000000  0.5699250000000  0.5093980000000 1.0
C      1  0.4889860000000  0.5699250000000  0.4906020000000 1.0
C      1  0.4581840000000  0.4645400000000  0.4908800000000 1.0
C      1  0.5418160000000  0.4645400000000  0.5091200000000 1.0
C      1  0.4581840000000  0.5354600000000  0.5091200000000 1.0
C      1  0.5418160000000  0.5354600000000  0.4908800000000 1.0
C      1  0.6134710000000  0.4966130000000  0.4400110000000 1.0
C      1  0.3865290000000  0.4966130000000  0.5599890000000 1.0
C      1  0.6134710000000  0.5033870000000  0.5599890000000 1.0
C      1  0.3865290000000  0.5033870000000  0.4400110000000 1.0
C      1  0.4813280000000  0.5207460000000  0.5670660000000 1.0
C      1  0.5186720000000  0.5207460000000  0.4329340000000 1.0
C      1  0.4813280000000  0.4792540000000  0.4329340000000 1.0
C      1  0.5186720000000  0.4792540000000  0.5670660000000 1.0
C      1  0.4527140000000  0.4796080000000  0.4442210000000 1.0
C      1  0.5472860000000  0.4796080000000  0.5557790000000 1.0
C      1  0.4527140000000  0.5203920000000  0.5557790000000 1.0
C      1  0.5472860000000  0.5203920000000  0.4442210000000 1.0
C      1  0.4941560000000  0.4275720000000  0.5364450000000 1.0
C      1  0.5058440000000  0.4275720000000  0.4635550000000 1.0
C      1  0.4941560000000  0.5724280000000  0.4635550000000 1.0
C      1  0.5058440000000  0.5724280000000  0.5364450000000 1.0
C      1  0.3937930000000  0.4951550000000  0.5123000000000 1.0
C      1  0.6062070000000  0.4951550000000  0.4877000000000 1.0
C      1  0.3937930000000  0.5048450000000  0.4877000000000 1.0
C      1  0.6062070000000  0.5048450000000  0.5123000000000 1.0
C      1  0.5882860000000  0.4871310000000  0.4332230000000 1.0
C      1  0.4117140000000  0.4871310000000  0.5667770000000 1.0
C      1  0.5882860000000  0.5128690000000  0.5667770000000 1.0
C      1  0.4117140000000  0.5128690000000  0.4332230000000 1.0
C      1  0.6103970000000  0.5173520000000  0.5362030000000 1.0
C      1  0.3896030000000  0.5173520000000  0.4637970000000 1.0
C      1  0.6103970000000  0.4826480000000  0.4637970000000 1.0
C      1  0.3896030000000  0.4826480000000  0.5362030000000 1.0
C      1  0.4340600000000  0.4971150000000  0.4340270000000 1.0
C      1  0.5659400000000  0.4971150000000  0.5659730000000 1.0
C      1  0.4340600000000  0.5028850000000  0.5659730000000 1.0
C      1  0.5659400000000  0.5028850000000  0.4340270000000 1.0
END
