TITL C-38189-4514-580 1.92807722072385e-05 125000 -359.762673438857 0 0 60 (C1) n - 1
REM
REM in /home/bkarasulu/CARBON/AIRSS/Generating-Clusters/EDIP-Nigel-Params/Higher-Symm/Box-15A/Only-C60/SD-CG/FIRE-HFTN
REM
REM
REM
REM
REM
REM ./C.cell (414f73aa93bd7a1190c7fd0f31ff2f98)
REM
REM compiler GCC version 9.2.1 20190827 (Red Hat 9.2.1-1)
REM options -cpp -mtune=generic -march=x86-64 -g -O0 -fpre-include=/usr/include/finclude/math-vector-fortran.h
REM seed -1814424560 -1632015923 1830122048 -1650695530 1708451315 -1423370631 1280097959 -1643123419 -1397781180 898351600 766094915 -1030604992 -2046952458 -1491521549 -1675157252 1071128213 -1533984468 372133498 -385871748 -583240991 1015321717 1106903799 -582921948 -595683877 -1115775490 1677737645 1782943936 170151720 2141229658 -918700565 -2006678891 -1197668406 1691182628
REM
CELL 1.54180   50.00000   50.00000   50.00000   90.00000   90.00000   90.00000
LATT -1
SFAC C  
C      1  0.5079910000000  0.4897140000000  0.5722980000000 1.0
C      1  0.4884430000000  0.4607090000000  0.4749610000000 1.0
C      1  0.4778610000000  0.5374410000000  0.4361570000000 1.0
C      1  0.5591510000000  0.4670920000000  0.5063060000000 1.0
C      1  0.4781000000000  0.4944140000000  0.4479310000000 1.0
C      1  0.5621630000000  0.4664410000000  0.5347780000000 1.0
C      1  0.4454810000000  0.4873990000000  0.5480880000000 1.0
C      1  0.5533080000000  0.4991300000000  0.5515170000000 1.0
C      1  0.4621930000000  0.4415380000000  0.5289550000000 1.0
C      1  0.5613410000000  0.5187020000000  0.4719780000000 1.0
C      1  0.4852850000000  0.4992990000000  0.5257910000000 1.0
C      1  0.4747080000000  0.4969590000000  0.5536690000000 1.0
C      1  0.5146560000000  0.5689190000000  0.4874190000000 1.0
C      1  0.5038360000000  0.5179430000000  0.5768650000000 1.0
C      1  0.5104920000000  0.4759000000000  0.4920180000000 1.0
C      1  0.5230330000000  0.5347220000000  0.5628160000000 1.0
C      1  0.4303960000000  0.4696900000000  0.5054130000000 1.0
C      1  0.4981050000000  0.4238550000000  0.4630050000000 1.0
C      1  0.4657620000000  0.5683470000000  0.5013230000000 1.0
C      1  0.5423640000000  0.5359600000000  0.5159750000000 1.0
C      1  0.4807540000000  0.5172830000000  0.5001160000000 1.0
C      1  0.5063810000000  0.5055240000000  0.4546320000000 1.0
C      1  0.4474460000000  0.4579790000000  0.4585420000000 1.0
C      1  0.5081650000000  0.5096290000000  0.4858520000000 1.0
C      1  0.5576770000000  0.4951560000000  0.4578650000000 1.0
C      1  0.4713120000000  0.5597430000000  0.5289130000000 1.0
C      1  0.5425660000000  0.4561330000000  0.5547990000000 1.0
C      1  0.4556150000000  0.5124440000000  0.4571550000000 1.0
C      1  0.5387760000000  0.5218970000000  0.5419010000000 1.0
C      1  0.4545330000000  0.5399430000000  0.5428860000000 1.0
C      1  0.4576290000000  0.5042400000000  0.4861480000000 1.0
C      1  0.4407210000000  0.4617540000000  0.5326520000000 1.0
C      1  0.4997520000000  0.5521690000000  0.5295570000000 1.0
C      1  0.4632640000000  0.4352290000000  0.5005650000000 1.0
C      1  0.4892160000000  0.5826220000000  0.4892760000000 1.0
C      1  0.4359050000000  0.5096180000000  0.5308190000000 1.0
C      1  0.5051950000000  0.5314850000000  0.4407330000000 1.0
C      1  0.4977630000000  0.4531050000000  0.5350890000000 1.0
C      1  0.5157520000000  0.5439940000000  0.5041190000000 1.0
C      1  0.5483230000000  0.4505230000000  0.4666960000000 1.0
C      1  0.4692850000000  0.5249690000000  0.5632720000000 1.0
C      1  0.5016020000000  0.4770160000000  0.5198720000000 1.0
C      1  0.4679590000000  0.4680290000000  0.4430660000000 1.0
C      1  0.5309840000000  0.4888120000000  0.4461930000000 1.0
C      1  0.5259050000000  0.5435150000000  0.4263420000000 1.0
C      1  0.5297530000000  0.4589200000000  0.4449420000000 1.0
C      1  0.5129050000000  0.5590300000000  0.5537880000000 1.0
C      1  0.4330660000000  0.4996990000000  0.5027560000000 1.0
C      1  0.5199790000000  0.4413390000000  0.5465230000000 1.0
C      1  0.4463970000000  0.4538220000000  0.4861770000000 1.0
C      1  0.5697000000000  0.4713350000000  0.4695770000000 1.0
C      1  0.5353710000000  0.4574830000000  0.4931140000000 1.0
C      1  0.4873210000000  0.4246220000000  0.4890420000000 1.0
C      1  0.5361590000000  0.4817530000000  0.5680120000000 1.0
C      1  0.5314980000000  0.5727150000000  0.4658340000000 1.0
C      1  0.5362610000000  0.5632010000000  0.4413560000000 1.0
C      1  0.4773450000000  0.5459720000000  0.4839910000000 1.0
C      1  0.4617690000000  0.5421570000000  0.4587370000000 1.0
C      1  0.5604560000000  0.5268190000000  0.4973360000000 1.0
C      1  0.5048710000000  0.4441480000000  0.4444890000000 1.0
END
