TITL C-38196-2854-489 4.78744913653985e-05 125000 -353.746539045567 0 0 60 (D2h) n - 1
REM
REM in /home/bkarasulu/CARBON/AIRSS/Generating-Clusters/EDIP-Nigel-Params/Higher-Symm/Box-15A/Only-C60/SD-CG/FIRE-HFTN
REM
REM
REM
REM
REM
REM ./C.cell (414f73aa93bd7a1190c7fd0f31ff2f98)
REM
REM compiler GCC version 9.2.1 20190827 (Red Hat 9.2.1-1)
REM options -cpp -mtune=generic -march=x86-64 -g -O0 -fpre-include=/usr/include/finclude/math-vector-fortran.h
REM seed 708863856 234992686 -309342901 -632483749 -1794135723 -233042413 -1909144506 -1090416712 -1918858482 -1015711224 -588291536 -283459230 973408555 -1684442104 -84706749 927458459 -230856549 -1822740404 911264111 -209239699 743411657 -1870298704 500926479 -877590825 -264674278 319403332 1729906287 633701863 -448769070 1864461792 148198638 -19465723 499216393
REM
CELL 1.54180   50.00000   50.00000   50.00000   90.00000   90.00000   90.00000
LATT -1
SFAC C  
C      1  0.5149410000000  0.5236760000000  0.4737580000000 1.0
C      1  0.4850590000000  0.4763240000000  0.4737580000000 1.0
C      1  0.5149410000000  0.5236760000000  0.5262420000000 1.0
C      1  0.4850590000000  0.4763240000000  0.5262420000000 1.0
C      1  0.4850590000000  0.5236760000000  0.4737580000000 1.0
C      1  0.5149410000000  0.4763240000000  0.4737580000000 1.0
C      1  0.4850590000000  0.5236760000000  0.5262420000000 1.0
C      1  0.5149410000000  0.4763240000000  0.5262420000000 1.0
C      1  0.5164620000000  0.4850590000000  0.4440800000000 1.0
C      1  0.4835380000000  0.5149410000000  0.4440800000000 1.0
C      1  0.5164620000000  0.4850590000000  0.5559200000000 1.0
C      1  0.4835380000000  0.5149410000000  0.5559200000000 1.0
C      1  0.4835380000000  0.4850590000000  0.4440800000000 1.0
C      1  0.5164620000000  0.5149410000000  0.4440800000000 1.0
C      1  0.4835380000000  0.4850590000000  0.5559200000000 1.0
C      1  0.5164620000000  0.5149410000000  0.5559200000000 1.0
C      1  0.4486970000000  0.5532390000000  0.5261540000000 1.0
C      1  0.5513030000000  0.4467610000000  0.5261540000000 1.0
C      1  0.4486970000000  0.5532390000000  0.4738460000000 1.0
C      1  0.5513030000000  0.4467610000000  0.4738460000000 1.0
C      1  0.5513030000000  0.5532390000000  0.5261540000000 1.0
C      1  0.4486970000000  0.4467610000000  0.5261540000000 1.0
C      1  0.5513030000000  0.5532390000000  0.4738460000000 1.0
C      1  0.4486970000000  0.4467610000000  0.4738460000000 1.0
C      1  0.5264500000000  0.5488030000000  0.5153660000000 1.0
C      1  0.4735500000000  0.4511970000000  0.5153660000000 1.0
C      1  0.5264500000000  0.5488030000000  0.4846340000000 1.0
C      1  0.4735500000000  0.4511970000000  0.4846340000000 1.0
C      1  0.4735500000000  0.5488030000000  0.5153660000000 1.0
C      1  0.5264500000000  0.4511970000000  0.5153660000000 1.0
C      1  0.4735500000000  0.5488030000000  0.4846340000000 1.0
C      1  0.5264500000000  0.4511970000000  0.4846340000000 1.0
C      1  0.5704510000000  0.5135220000000  0.5475640000000 1.0
C      1  0.4295490000000  0.4864780000000  0.5475640000000 1.0
C      1  0.5704510000000  0.5135220000000  0.4524360000000 1.0
C      1  0.4295490000000  0.4864780000000  0.4524360000000 1.0
C      1  0.4295490000000  0.5135220000000  0.5475640000000 1.0
C      1  0.5704510000000  0.4864780000000  0.5475640000000 1.0
C      1  0.4295490000000  0.5135220000000  0.4524360000000 1.0
C      1  0.5704510000000  0.4864780000000  0.4524360000000 1.0
C      1  0.5139960000000  0.4291100000000  0.4740370000000 1.0
C      1  0.4860040000000  0.5708900000000  0.4740370000000 1.0
C      1  0.5139960000000  0.4291100000000  0.5259630000000 1.0
C      1  0.4860040000000  0.5708900000000  0.5259630000000 1.0
C      1  0.4860040000000  0.4291100000000  0.4740370000000 1.0
C      1  0.5139960000000  0.5708900000000  0.4740370000000 1.0
C      1  0.4860040000000  0.4291100000000  0.5259630000000 1.0
C      1  0.5139960000000  0.5708900000000  0.5259630000000 1.0
C      1  0.4319280000000  0.4700580000000  0.4749490000000 1.0
C      1  0.5680720000000  0.5299420000000  0.4749490000000 1.0
C      1  0.4319280000000  0.4700580000000  0.5250510000000 1.0
C      1  0.5680720000000  0.5299420000000  0.5250510000000 1.0
C      1  0.5680720000000  0.4700580000000  0.4749490000000 1.0
C      1  0.4319280000000  0.5299420000000  0.4749490000000 1.0
C      1  0.5680720000000  0.4700580000000  0.5250510000000 1.0
C      1  0.4319280000000  0.5299420000000  0.5250510000000 1.0
C      1  0.4315750000000  0.5149040000000  0.5000000000000 1.0
C      1  0.5684250000000  0.4850960000000  0.5000000000000 1.0
C      1  0.4315750000000  0.4850960000000  0.5000000000000 1.0
C      1  0.5684250000000  0.5149040000000  0.5000000000000 1.0
END
