TITL C-38194-9318-422 -0.100519722014124 125000 -355.016024420073 0 0 60 (C1) n - 1
REM
REM in /home/bkarasulu/CARBON/AIRSS/Generating-Clusters/EDIP-Nigel-Params/Higher-Symm/Box-15A/Only-C60/SD-CG/FIRE-HFTN
REM
REM
REM
REM
REM
REM ./C.cell (414f73aa93bd7a1190c7fd0f31ff2f98)
REM
REM compiler GCC version 9.2.1 20190827 (Red Hat 9.2.1-1)
REM options -cpp -mtune=generic -march=x86-64 -g -O0 -fpre-include=/usr/include/finclude/math-vector-fortran.h
REM seed -903976583 -1576719176 1608710697 -413940571 400566419 790264260 -352666525 -1226257983 269863828 -21004943 -1584643807 1097947843 -75271207 1429194263 877708514 -472670004 1285046466 1456411071 -428509769 1533255558 1129149213 2118525108 464767024 1297126552 620160482 1947941083 1916612406 -1281610523 1074737288 158230019 -1982351350 -956754582 583108426
REM
CELL 1.54180   50.00000   50.00000   50.00000   90.00000   90.00000   90.00000
LATT -1
SFAC C  
C      1  0.4613670000000  0.5782000000000  0.5079620000000 1.0
C      1  0.5297860000000  0.5290560000000  0.4257990000000 1.0
C      1  0.4280900000000  0.5233290000000  0.4305820000000 1.0
C      1  0.4863470000000  0.4646910000000  0.5832360000000 1.0
C      1  0.4822110000000  0.5392900000000  0.4267330000000 1.0
C      1  0.4709050000000  0.4513930000000  0.5646190000000 1.0
C      1  0.5407260000000  0.5459070000000  0.4435570000000 1.0
C      1  0.5535660000000  0.5222250000000  0.5512360000000 1.0
C      1  0.4880440000000  0.5009470000000  0.4247420000000 1.0
C      1  0.5460400000000  0.4483270000000  0.5000040000000 1.0
C      1  0.5649020000000  0.4741930000000  0.5490040000000 1.0
C      1  0.5105840000000  0.5717260000000  0.5336770000000 1.0
C      1  0.4836060000000  0.5720610000000  0.4928870000000 1.0
C      1  0.5079920000000  0.4446190000000  0.5310800000000 1.0
C      1  0.5853000000000  0.4884360000000  0.4750130000000 1.0
C      1  0.5033060000000  0.4848150000000  0.5881000000000 1.0
C      1  0.5255600000000  0.4469370000000  0.5526300000000 1.0
C      1  0.5086070000000  0.5677220000000  0.5063080000000 1.0
C      1  0.4232170000000  0.5458370000000  0.5008890000000 1.0
C      1  0.5271510000000  0.4903610000000  0.5754220000000 1.0
C      1  0.4666240000000  0.4863850000000  0.4394010000000 1.0
C      1  0.5478180000000  0.5478030000000  0.5393360000000 1.0
C      1  0.4437790000000  0.4508410000000  0.5689180000000 1.0
C      1  0.4366870000000  0.4984560000000  0.5136550000000 1.0
C      1  0.5755800000000  0.4515800000000  0.5360830000000 1.0
C      1  0.5086010000000  0.4552050000000  0.4519600000000 1.0
C      1  0.5726020000000  0.4507290000000  0.5084010000000 1.0
C      1  0.5447610000000  0.4704830000000  0.4457830000000 1.0
C      1  0.4182360000000  0.4475410000000  0.5749570000000 1.0
C      1  0.5334560000000  0.5600110000000  0.4942120000000 1.0
C      1  0.5185150000000  0.4485340000000  0.5042220000000 1.0
C      1  0.4504190000000  0.4890370000000  0.4884430000000 1.0
C      1  0.5533480000000  0.5528740000000  0.5123680000000 1.0
C      1  0.3932210000000  0.4456500000000  0.5799120000000 1.0
C      1  0.4447530000000  0.4833160000000  0.4209360000000 1.0
C      1  0.4262420000000  0.5018250000000  0.4144490000000 1.0
C      1  0.4434960000000  0.5289760000000  0.4541810000000 1.0
C      1  0.4730880000000  0.4498060000000  0.4758900000000 1.0
C      1  0.4243720000000  0.5231850000000  0.5163130000000 1.0
C      1  0.5402800000000  0.4684300000000  0.5626930000000 1.0
C      1  0.4367880000000  0.5679600000000  0.5102560000000 1.0
C      1  0.5208930000000  0.4813910000000  0.4533570000000 1.0
C      1  0.5374750000000  0.5576500000000  0.4671770000000 1.0
C      1  0.4652330000000  0.5489350000000  0.4474030000000 1.0
C      1  0.5668160000000  0.5007240000000  0.5370650000000 1.0
C      1  0.5292910000000  0.5646420000000  0.5518830000000 1.0
C      1  0.5039700000000  0.5227370000000  0.4340600000000 1.0
C      1  0.4787360000000  0.5630760000000  0.4672990000000 1.0
C      1  0.4556770000000  0.5024550000000  0.4627590000000 1.0
C      1  0.4800500000000  0.4484660000000  0.5374030000000 1.0
C      1  0.5019180000000  0.4442440000000  0.4808290000000 1.0
C      1  0.4603670000000  0.4445980000000  0.5179820000000 1.0
C      1  0.4498410000000  0.4704190000000  0.5129910000000 1.0
C      1  0.5860660000000  0.5043260000000  0.5159760000000 1.0
C      1  0.4768390000000  0.4593590000000  0.4480540000000 1.0
C      1  0.5398810000000  0.5150750000000  0.5745430000000 1.0
C      1  0.5901460000000  0.4706150000000  0.4972040000000 1.0
C      1  0.5817080000000  0.5131300000000  0.4890890000000 1.0
C      1  0.4264740000000  0.5401290000000  0.4741560000000 1.0
C      1  0.5686470000000  0.4793260000000  0.4549250000000 1.0
END
