TITL C-38189-4514-588 -3.82170866102429e-05 125000 -363.205457701891 0 0 60 (Ci) n - 1
REM
REM in /home/bkarasulu/CARBON/AIRSS/Generating-Clusters/EDIP-Nigel-Params/Higher-Symm/Box-15A/Only-C60/SD-CG/FIRE-HFTN
REM
REM
REM
REM
REM
REM ./C.cell (414f73aa93bd7a1190c7fd0f31ff2f98)
REM
REM compiler GCC version 9.2.1 20190827 (Red Hat 9.2.1-1)
REM options -cpp -mtune=generic -march=x86-64 -g -O0 -fpre-include=/usr/include/finclude/math-vector-fortran.h
REM seed 1907395218 -1275018957 -752845182 228999443 1498076189 1096434289 1674447127 1793494857 907626410 -1658640335 -138627080 1546662453 -1725030626 2026879694 1439155082 50159046 950325713 1715676985 492751799 210726803 -2127503140 -350959182 -1943482775 -1511440524 -242663838 -542924145 -277982105 225929969 -2065096577 753316009 -1460424090 -953901149 -1437611041
REM
CELL 1.54180   50.00000   50.00000   50.00000   90.00000   90.00000   90.00000
LATT -1
SFAC C  
C      1  0.5326660000000  0.5430960000000  0.5520850000000 1.0
C      1  0.4673340000000  0.4569040000000  0.4479150000000 1.0
C      1  0.4839790000000  0.5139440000000  0.5071950000000 1.0
C      1  0.5160210000000  0.4860560000000  0.4928050000000 1.0
C      1  0.5174340000000  0.4654560000000  0.5625700000000 1.0
C      1  0.4825660000000  0.5345440000000  0.4374300000000 1.0
C      1  0.4901490000000  0.5091310000000  0.4771990000000 1.0
C      1  0.5098510000000  0.4908690000000  0.5228010000000 1.0
C      1  0.5713150000000  0.4667730000000  0.4719190000000 1.0
C      1  0.4286850000000  0.5332270000000  0.5280810000000 1.0
C      1  0.4617150000000  0.5564840000000  0.5021840000000 1.0
C      1  0.5382850000000  0.4435160000000  0.4978160000000 1.0
C      1  0.4699440000000  0.4736410000000  0.5487060000000 1.0
C      1  0.5300560000000  0.5263590000000  0.4512940000000 1.0
C      1  0.4455470000000  0.4511670000000  0.5161930000000 1.0
C      1  0.5544530000000  0.5488330000000  0.4838070000000 1.0
C      1  0.4601080000000  0.5454390000000  0.4535250000000 1.0
C      1  0.5398920000000  0.4545610000000  0.5464750000000 1.0
C      1  0.4200850000000  0.4884380000000  0.4932930000000 1.0
C      1  0.5799150000000  0.5115620000000  0.5067070000000 1.0
C      1  0.5488240000000  0.5393780000000  0.5300940000000 1.0
C      1  0.4511760000000  0.4606220000000  0.4699060000000 1.0
C      1  0.5007830000000  0.5589990000000  0.4753700000000 1.0
C      1  0.4992170000000  0.4410010000000  0.5246300000000 1.0
C      1  0.5604790000000  0.5125120000000  0.5277230000000 1.0
C      1  0.4395210000000  0.4874880000000  0.4722770000000 1.0
C      1  0.4451760000000  0.4726760000000  0.5348460000000 1.0
C      1  0.5548240000000  0.5273240000000  0.4651540000000 1.0
C      1  0.4654480000000  0.5235610000000  0.5596390000000 1.0
C      1  0.5345520000000  0.4764390000000  0.4403610000000 1.0
C      1  0.4526600000000  0.5083140000000  0.5091610000000 1.0
C      1  0.5473400000000  0.4916860000000  0.4908390000000 1.0
C      1  0.4205020000000  0.4806100000000  0.5202460000000 1.0
C      1  0.5794980000000  0.5193900000000  0.4797540000000 1.0
C      1  0.5601940000000  0.4627530000000  0.4979750000000 1.0
C      1  0.4398060000000  0.5372470000000  0.5020250000000 1.0
C      1  0.5079110000000  0.5374640000000  0.5626750000000 1.0
C      1  0.4920890000000  0.4625360000000  0.4373250000000 1.0
C      1  0.4710000000000  0.5630200000000  0.4745820000000 1.0
C      1  0.5290000000000  0.4369800000000  0.5254180000000 1.0
C      1  0.4901450000000  0.4430330000000  0.4965100000000 1.0
C      1  0.5098550000000  0.5569670000000  0.5034900000000 1.0
C      1  0.4607920000000  0.5089920000000  0.4648060000000 1.0
C      1  0.5392080000000  0.4910080000000  0.5351940000000 1.0
C      1  0.5578210000000  0.4843790000000  0.4546770000000 1.0
C      1  0.4421790000000  0.5156210000000  0.5453230000000 1.0
C      1  0.5249700000000  0.4922390000000  0.5708150000000 1.0
C      1  0.4750300000000  0.5077610000000  0.4291850000000 1.0
C      1  0.5360650000000  0.5447920000000  0.5049340000000 1.0
C      1  0.4639350000000  0.4552080000000  0.4950660000000 1.0
C      1  0.4837870000000  0.5427990000000  0.5470200000000 1.0
C      1  0.5162130000000  0.4572010000000  0.4529800000000 1.0
C      1  0.4968870000000  0.4675760000000  0.5397220000000 1.0
C      1  0.5031130000000  0.5324240000000  0.4602780000000 1.0
C      1  0.4855990000000  0.5436150000000  0.5160940000000 1.0
C      1  0.5144010000000  0.4563850000000  0.4839060000000 1.0
C      1  0.5228880000000  0.4941270000000  0.4212800000000 1.0
C      1  0.4771120000000  0.5058730000000  0.5787200000000 1.0
C      1  0.5047620000000  0.5122240000000  0.5769540000000 1.0
C      1  0.4952380000000  0.4877760000000  0.4230460000000 1.0
END
