TITL C-38187-2739-636 9.28202437094819e-05 125000 -365.886889457374 0 0 60 (Ci) n - 1
REM
REM in /home/bkarasulu/CARBON/AIRSS/Generating-Clusters/EDIP-Nigel-Params/Higher-Symm/Box-15A/Only-C60/SD-CG/FIRE-HFTN
REM
REM
REM
REM
REM
REM ./C.cell (414f73aa93bd7a1190c7fd0f31ff2f98)
REM
REM compiler GCC version 9.2.1 20190827 (Red Hat 9.2.1-1)
REM options -cpp -mtune=generic -march=x86-64 -g -O0 -fpre-include=/usr/include/finclude/math-vector-fortran.h
REM seed 1469181990 -1558643397 -2023507290 259244876 -1865696449 -1088984351 506627837 766090644 -68003816 1799252928 -1390730278 -1690622253 1339655020 -1214026950 1793699420 -1029611289 2142526655 -942299634 -983714007 301756663 -929527173 1311883426 772987400 -1840283009 1868392147 -765414635 571323373 -1414585024 -1703451195 -1715308432 1004200885 -468175671 -1787659092
REM
CELL 1.54180   50.00000   50.00000   50.00000   90.00000   90.00000   90.00000
LATT -1
SFAC C  
C      1  0.5191960000000  0.4860740000000  0.4309210000000 1.0
C      1  0.4808040000000  0.5139260000000  0.5690790000000 1.0
C      1  0.4574490000000  0.5164850000000  0.4017420000000 1.0
C      1  0.5425510000000  0.4835150000000  0.5982580000000 1.0
C      1  0.5231180000000  0.5386930000000  0.4656940000000 1.0
C      1  0.4768820000000  0.4613070000000  0.5343060000000 1.0
C      1  0.4360700000000  0.4849380000000  0.4913510000000 1.0
C      1  0.5639300000000  0.5150620000000  0.5086490000000 1.0
C      1  0.5015290000000  0.4923070000000  0.5695210000000 1.0
C      1  0.4984710000000  0.5076930000000  0.4304790000000 1.0
C      1  0.5329890000000  0.4830370000000  0.4575580000000 1.0
C      1  0.4670110000000  0.5169630000000  0.5424420000000 1.0
C      1  0.5095610000000  0.5417060000000  0.5501830000000 1.0
C      1  0.4904390000000  0.4582940000000  0.4498170000000 1.0
C      1  0.4740900000000  0.5401130000000  0.4556650000000 1.0
C      1  0.5259100000000  0.4598870000000  0.5443350000000 1.0
C      1  0.5150720000000  0.4899760000000  0.5952660000000 1.0
C      1  0.4849280000000  0.5100240000000  0.4047340000000 1.0
C      1  0.5160560000000  0.5163570000000  0.5352190000000 1.0
C      1  0.4839440000000  0.4836430000000  0.4647810000000 1.0
C      1  0.5159060000000  0.5184900000000  0.4865340000000 1.0
C      1  0.4840940000000  0.4815100000000  0.5134660000000 1.0
C      1  0.5714480000000  0.5434990000000  0.4754780000000 1.0
C      1  0.4285520000000  0.4565010000000  0.5245220000000 1.0
C      1  0.5113370000000  0.4897410000000  0.4770140000000 1.0
C      1  0.4886630000000  0.5102590000000  0.5229860000000 1.0
C      1  0.5559540000000  0.5015800000000  0.4620980000000 1.0
C      1  0.4440460000000  0.4984200000000  0.5379020000000 1.0
C      1  0.5104390000000  0.4715960000000  0.5028840000000 1.0
C      1  0.4895610000000  0.5284040000000  0.4971160000000 1.0
C      1  0.5149570000000  0.4385820000000  0.4733190000000 1.0
C      1  0.4850430000000  0.5614180000000  0.5266810000000 1.0
C      1  0.4798780000000  0.4366510000000  0.5129030000000 1.0
C      1  0.5201220000000  0.5633490000000  0.4870970000000 1.0
C      1  0.4652650000000  0.4443240000000  0.4876740000000 1.0
C      1  0.5347350000000  0.5556760000000  0.5123260000000 1.0
C      1  0.5070180000000  0.4611210000000  0.4254950000000 1.0
C      1  0.4929820000000  0.5388790000000  0.5745050000000 1.0
C      1  0.5540990000000  0.4666830000000  0.4970660000000 1.0
C      1  0.4459010000000  0.5333170000000  0.5029340000000 1.0
C      1  0.5343450000000  0.5081820000000  0.6054320000000 1.0
C      1  0.4656550000000  0.4918180000000  0.3945680000000 1.0
C      1  0.5001170000000  0.5338050000000  0.4452840000000 1.0
C      1  0.4998830000000  0.4661950000000  0.5547160000000 1.0
C      1  0.4598990000000  0.5438160000000  0.5298080000000 1.0
C      1  0.5401010000000  0.4561840000000  0.4701920000000 1.0
C      1  0.4782130000000  0.4345080000000  0.4631690000000 1.0
C      1  0.5217870000000  0.5654920000000  0.5368310000000 1.0
C      1  0.5341010000000  0.4742010000000  0.5207240000000 1.0
C      1  0.4658990000000  0.5257990000000  0.4792760000000 1.0
C      1  0.4197070000000  0.4631140000000  0.4995930000000 1.0
C      1  0.5802930000000  0.5368860000000  0.5004070000000 1.0
C      1  0.5342620000000  0.5245950000000  0.5115980000000 1.0
C      1  0.4657380000000  0.4754050000000  0.4884020000000 1.0
C      1  0.5674260000000  0.4927010000000  0.4887030000000 1.0
C      1  0.4325740000000  0.5072990000000  0.5112970000000 1.0
C      1  0.4926330000000  0.5585110000000  0.4983410000000 1.0
C      1  0.5073670000000  0.4414890000000  0.5016590000000 1.0
C      1  0.4479940000000  0.4689710000000  0.5406570000000 1.0
C      1  0.5520060000000  0.5310290000000  0.4593430000000 1.0
END
