TITL C-38189-4514-336 -4.09543093711733e-05 125000 -359.985135610398 0 0 60 (C2) n - 1
REM
REM in /home/bkarasulu/CARBON/AIRSS/Generating-Clusters/EDIP-Nigel-Params/Higher-Symm/Box-15A/Only-C60/SD-CG/FIRE-HFTN
REM
REM
REM
REM
REM
REM ./C.cell (414f73aa93bd7a1190c7fd0f31ff2f98)
REM
REM compiler GCC version 9.2.1 20190827 (Red Hat 9.2.1-1)
REM options -cpp -mtune=generic -march=x86-64 -g -O0 -fpre-include=/usr/include/finclude/math-vector-fortran.h
REM seed -2091857666 -327704909 1938382262 -1133956752 -1650566765 1957522653 -2077102391 931901408 -674743665 -795718313 1121296088 -1528662664 -1069330390 -873776727 -1955115799 -1981271757 -22363705 290457537 -159228159 834506842 958915651 1339250641 -64980255 -2125996211 640870868 -1807823409 1758132620 -838899335 -253956517 -1821412748 114383784 975424862 347017375
REM
CELL 1.54180   50.00000   50.00000   50.00000   90.00000   90.00000   90.00000
LATT -1
SFAC C  
C      1  0.5763070000000  0.4847040000000  0.5129740000000 1.0
C      1  0.5150580000000  0.5768280000000  0.5133690000000 1.0
C      1  0.4236930000000  0.5152960000000  0.5129740000000 1.0
C      1  0.4849420000000  0.4231720000000  0.5133690000000 1.0
C      1  0.5754740000000  0.5151120000000  0.5131540000000 1.0
C      1  0.5152060000000  0.4243940000000  0.5124570000000 1.0
C      1  0.4245260000000  0.4848880000000  0.5131540000000 1.0
C      1  0.4847940000000  0.5756060000000  0.5124570000000 1.0
C      1  0.5570300000000  0.5280100000000  0.4905920000000 1.0
C      1  0.4721890000000  0.5567930000000  0.4892090000000 1.0
C      1  0.4429700000000  0.4719900000000  0.4905920000000 1.0
C      1  0.5278110000000  0.4432070000000  0.4892090000000 1.0
C      1  0.5571650000000  0.4732060000000  0.4908710000000 1.0
C      1  0.4730120000000  0.4429150000000  0.4921790000000 1.0
C      1  0.4428350000000  0.5267940000000  0.4908710000000 1.0
C      1  0.5269880000000  0.5570850000000  0.4921790000000 1.0
C      1  0.5640280000000  0.4854120000000  0.4624110000000 1.0
C      1  0.5165270000000  0.5618730000000  0.4630230000000 1.0
C      1  0.4359720000000  0.5145880000000  0.4624110000000 1.0
C      1  0.4834730000000  0.4381270000000  0.4630230000000 1.0
C      1  0.5652390000000  0.5170210000000  0.4617960000000 1.0
C      1  0.5150300000000  0.4354680000000  0.4606260000000 1.0
C      1  0.4347610000000  0.4829790000000  0.4617960000000 1.0
C      1  0.4849700000000  0.5645320000000  0.4606260000000 1.0
C      1  0.5129770000000  0.4692050000000  0.4889070000000 1.0
C      1  0.5311840000000  0.5130220000000  0.4895580000000 1.0
C      1  0.4870230000000  0.5307950000000  0.4889070000000 1.0
C      1  0.4688160000000  0.4869780000000  0.4895580000000 1.0
C      1  0.5131490000000  0.5314690000000  0.4993470000000 1.0
C      1  0.5318610000000  0.4866040000000  0.4984570000000 1.0
C      1  0.4868510000000  0.4685310000000  0.4993470000000 1.0
C      1  0.4681390000000  0.5133960000000  0.4984570000000 1.0
C      1  0.4851320000000  0.5399570000000  0.4412900000000 1.0
C      1  0.4601090000000  0.4832400000000  0.4424640000000 1.0
C      1  0.5148680000000  0.4600430000000  0.4412900000000 1.0
C      1  0.5398910000000  0.5167600000000  0.4424640000000 1.0
C      1  0.4846760000000  0.4647920000000  0.4472060000000 1.0
C      1  0.4591340000000  0.5142140000000  0.4423610000000 1.0
C      1  0.5153240000000  0.5352080000000  0.4472060000000 1.0
C      1  0.5408660000000  0.4857860000000  0.4423610000000 1.0
C      1  0.4636720000000  0.4852460000000  0.5460910000000 1.0
C      1  0.5148890000000  0.4633860000000  0.5456860000000 1.0
C      1  0.5363280000000  0.5147540000000  0.5460910000000 1.0
C      1  0.4851110000000  0.5366140000000  0.5456860000000 1.0
C      1  0.4635120000000  0.5153130000000  0.5458490000000 1.0
C      1  0.5151430000000  0.5367050000000  0.5462180000000 1.0
C      1  0.5364880000000  0.4846870000000  0.5458490000000 1.0
C      1  0.4848570000000  0.4632950000000  0.5462180000000 1.0
C      1  0.4721330000000  0.5613910000000  0.5352210000000 1.0
C      1  0.4386640000000  0.4723950000000  0.5361350000000 1.0
C      1  0.5278670000000  0.4386090000000  0.5352210000000 1.0
C      1  0.5613360000000  0.5276050000000  0.5361350000000 1.0
C      1  0.4715380000000  0.4381360000000  0.5362430000000 1.0
C      1  0.4385100000000  0.5286140000000  0.5354460000000 1.0
C      1  0.5284620000000  0.5618640000000  0.5362430000000 1.0
C      1  0.5614900000000  0.4713860000000  0.5354460000000 1.0
C      1  0.5524310000000  0.4468990000000  0.5208930000000 1.0
C      1  0.4475690000000  0.5531010000000  0.5208930000000 1.0
C      1  0.4467000000000  0.4475060000000  0.5224960000000 1.0
C      1  0.5533000000000  0.5524940000000  0.5224960000000 1.0
END
