TITL C-38194-9318-508 3.43742567956956e-05 125000 -358.637438972166 0 0 60 (C3) n - 1
REM
REM in /home/bkarasulu/CARBON/AIRSS/Generating-Clusters/EDIP-Nigel-Params/Higher-Symm/Box-15A/Only-C60/SD-CG/FIRE-HFTN
REM
REM
REM
REM
REM
REM ./C.cell (414f73aa93bd7a1190c7fd0f31ff2f98)
REM
REM compiler GCC version 9.2.1 20190827 (Red Hat 9.2.1-1)
REM options -cpp -mtune=generic -march=x86-64 -g -O0 -fpre-include=/usr/include/finclude/math-vector-fortran.h
REM seed -325268510 836844869 308704849 1400399054 521802666 -1591151809 762471860 1508386404 -827885623 956282012 -1401543995 1659924555 352532449 1493780164 844112137 -1942367718 -690328959 1217434517 -2071063920 -939085842 2120050960 1136641884 1324510937 -243354108 -1869279944 12956123 1718627599 -733196932 -488451063 -2117279585 360571182 926086428 6891884
REM
CELL 1.54180   50.00000   50.00000   50.00000   90.00000   90.00000   90.00000
LATT -1
SFAC C  
C      1  0.4606420000000  0.4745310000000  0.5277160000000 1.0
C      1  0.5417360000000  0.4786500000000  0.5277160000000 1.0
C      1  0.4976220000000  0.5468190000000  0.5277160000000 1.0
C      1  0.4606420000000  0.5254690000000  0.5277160000000 1.0
C      1  0.5417360000000  0.5213500000000  0.5277160000000 1.0
C      1  0.4976220000000  0.4531810000000  0.5277160000000 1.0
C      1  0.4703160000000  0.5782780000000  0.4590030000000 1.0
C      1  0.4470510000000  0.4351530000000  0.4590030000000 1.0
C      1  0.5826330000000  0.4865680000000  0.4590030000000 1.0
C      1  0.4703160000000  0.4217220000000  0.4590030000000 1.0
C      1  0.4470510000000  0.5648470000000  0.4590030000000 1.0
C      1  0.5826330000000  0.5134320000000  0.4590030000000 1.0
C      1  0.4741220000000  0.4850440000000  0.5535650000000 1.0
C      1  0.5258910000000  0.4850670000000  0.5535650000000 1.0
C      1  0.4999870000000  0.5298890000000  0.5535650000000 1.0
C      1  0.4741220000000  0.5149560000000  0.5535650000000 1.0
C      1  0.5258910000000  0.5149330000000  0.5535650000000 1.0
C      1  0.4999870000000  0.4701110000000  0.5535650000000 1.0
C      1  0.4458880000000  0.5554690000000  0.5070440000000 1.0
C      1  0.4790190000000  0.4254030000000  0.5070440000000 1.0
C      1  0.5750930000000  0.5191280000000  0.5070440000000 1.0
C      1  0.4458880000000  0.4445310000000  0.5070440000000 1.0
C      1  0.4790190000000  0.5745970000000  0.5070440000000 1.0
C      1  0.5750930000000  0.4808720000000  0.5070440000000 1.0
C      1  0.4422880000000  0.4538590000000  0.4790930000000 1.0
C      1  0.5688160000000  0.4730910000000  0.4790930000000 1.0
C      1  0.4888960000000  0.5730510000000  0.4790930000000 1.0
C      1  0.4422880000000  0.5461410000000  0.4790930000000 1.0
C      1  0.5688160000000  0.5269090000000  0.4790930000000 1.0
C      1  0.4888960000000  0.4269490000000  0.4790930000000 1.0
C      1  0.4736680000000  0.5150010000000  0.5018100000000 1.0
C      1  0.5001740000000  0.4696950000000  0.5018100000000 1.0
C      1  0.5261570000000  0.5153030000000  0.5018100000000 1.0
C      1  0.4736680000000  0.4849990000000  0.5018100000000 1.0
C      1  0.5001740000000  0.5303050000000  0.5018100000000 1.0
C      1  0.5261570000000  0.4846970000000  0.5018100000000 1.0
C      1  0.5000230000000  0.5301360000000  0.4515770000000 1.0
C      1  0.4738900000000  0.4849520000000  0.4515770000000 1.0
C      1  0.5260870000000  0.4849120000000  0.4515770000000 1.0
C      1  0.5000230000000  0.4698640000000  0.4515770000000 1.0
C      1  0.4738900000000  0.5150480000000  0.4515770000000 1.0
C      1  0.5260870000000  0.5150880000000  0.4515770000000 1.0
C      1  0.5039100000000  0.5763300000000  0.5263770000000 1.0
C      1  0.4319420000000  0.4652210000000  0.5263770000000 1.0
C      1  0.5641490000000  0.4584490000000  0.5263770000000 1.0
C      1  0.5039100000000  0.4236700000000  0.5263770000000 1.0
C      1  0.4319420000000  0.5347790000000  0.5263770000000 1.0
C      1  0.5641490000000  0.5415510000000  0.5263770000000 1.0
C      1  0.4562750000000  0.4803710000000  0.4764830000000 1.0
C      1  0.5388620000000  0.4719480000000  0.4764830000000 1.0
C      1  0.5048630000000  0.5476810000000  0.4764830000000 1.0
C      1  0.4562750000000  0.5196290000000  0.4764830000000 1.0
C      1  0.5388620000000  0.5280520000000  0.4764830000000 1.0
C      1  0.5048630000000  0.4523190000000  0.4764830000000 1.0
C      1  0.5535240000000  0.4342410000000  0.5173310000000 1.0
C      1  0.5301870000000  0.5792320000000  0.5173310000000 1.0
C      1  0.4162890000000  0.4865260000000  0.5173310000000 1.0
C      1  0.5535240000000  0.5657590000000  0.5173310000000 1.0
C      1  0.5301870000000  0.4207680000000  0.5173310000000 1.0
C      1  0.4162890000000  0.5134740000000  0.5173310000000 1.0
END
