TITL C-38197-8510-585 4.12702749186496e-06 125000 -359.874371534681 0 0 60 (C1) n - 1
REM
REM in /home/bkarasulu/CARBON/AIRSS/Generating-Clusters/EDIP-Nigel-Params/Higher-Symm/Box-15A/Only-C60/SD-CG/FIRE-HFTN
REM
REM
REM
REM
REM
REM ./C.cell (414f73aa93bd7a1190c7fd0f31ff2f98)
REM
REM compiler GCC version 9.2.1 20190827 (Red Hat 9.2.1-1)
REM options -cpp -mtune=generic -march=x86-64 -g -O0 -fpre-include=/usr/include/finclude/math-vector-fortran.h
REM seed 150426762 -71124397 1562494177 1831725732 -2144103205 1196785854 -1276380220 2034184586 1517669418 76755389 -515688546 644181886 1167994128 1190945827 -946078607 1712740186 506155460 2062112072 1334574826 -217806095 2132884672 -1798904704 -1141193314 -23100451 191614923 862917773 1279968036 -1246218228 -13571697 -151050098 -814897415 1155578161 677686336
REM
CELL 1.54180   50.00000   50.00000   50.00000   90.00000   90.00000   90.00000
LATT -1
SFAC C  
C      1  0.5362420000000  0.5329140000000  0.4423540000000 1.0
C      1  0.4535210000000  0.5303420000000  0.4484220000000 1.0
C      1  0.4367880000000  0.5306810000000  0.5283240000000 1.0
C      1  0.5050220000000  0.5327210000000  0.5675530000000 1.0
C      1  0.5670160000000  0.5296390000000  0.5137550000000 1.0
C      1  0.5358020000000  0.4680690000000  0.4426740000000 1.0
C      1  0.4541530000000  0.4702850000000  0.4497520000000 1.0
C      1  0.4376590000000  0.4701870000000  0.5278810000000 1.0
C      1  0.5050430000000  0.4676490000000  0.5679170000000 1.0
C      1  0.5680970000000  0.4688430000000  0.5136450000000 1.0
C      1  0.5214380000000  0.5197870000000  0.5155950000000 1.0
C      1  0.5220940000000  0.5147540000000  0.4845900000000 1.0
C      1  0.4926350000000  0.5186790000000  0.4740930000000 1.0
C      1  0.4736460000000  0.5188020000000  0.4996680000000 1.0
C      1  0.4919560000000  0.5146800000000  0.5249980000000 1.0
C      1  0.5224010000000  0.4805190000000  0.5161520000000 1.0
C      1  0.5228960000000  0.4856180000000  0.4849190000000 1.0
C      1  0.4937270000000  0.4800550000000  0.4744220000000 1.0
C      1  0.4748350000000  0.4803620000000  0.5000840000000 1.0
C      1  0.4926540000000  0.4855070000000  0.5252650000000 1.0
C      1  0.4300760000000  0.4863250000000  0.5495540000000 1.0
C      1  0.5224670000000  0.4866890000000  0.5789350000000 1.0
C      1  0.5850910000000  0.4864500000000  0.4997980000000 1.0
C      1  0.5289010000000  0.4869670000000  0.4231600000000 1.0
C      1  0.4309680000000  0.4858710000000  0.4469300000000 1.0
C      1  0.4303040000000  0.5133350000000  0.5494640000000 1.0
C      1  0.5224140000000  0.5137920000000  0.5788160000000 1.0
C      1  0.5853620000000  0.5134810000000  0.4999480000000 1.0
C      1  0.5290780000000  0.5140340000000  0.4229050000000 1.0
C      1  0.4315010000000  0.5128960000000  0.4471630000000 1.0
C      1  0.4790450000000  0.4856640000000  0.4481660000000 1.0
C      1  0.4447680000000  0.4856010000000  0.5039090000000 1.0
C      1  0.4840210000000  0.4813360000000  0.5540840000000 1.0
C      1  0.5493220000000  0.4836820000000  0.5309920000000 1.0
C      1  0.5460800000000  0.4815240000000  0.4658430000000 1.0
C      1  0.4788710000000  0.5156990000000  0.4465200000000 1.0
C      1  0.4428960000000  0.5158410000000  0.5036360000000 1.0
C      1  0.4838010000000  0.5189700000000  0.5539740000000 1.0
C      1  0.5478400000000  0.5139800000000  0.5298210000000 1.0
C      1  0.5455470000000  0.5192820000000  0.4658350000000 1.0
C      1  0.5175450000000  0.4488590000000  0.4519440000000 1.0
C      1  0.4588540000000  0.4483040000000  0.4671220000000 1.0
C      1  0.4561310000000  0.4486810000000  0.5286540000000 1.0
C      1  0.5134200000000  0.4475390000000  0.5501720000000 1.0
C      1  0.5519480000000  0.4486680000000  0.5016810000000 1.0
C      1  0.5185570000000  0.5528600000000  0.4512030000000 1.0
C      1  0.4588370000000  0.5508610000000  0.4673510000000 1.0
C      1  0.4563500000000  0.5512470000000  0.5288370000000 1.0
C      1  0.5136600000000  0.5529900000000  0.5500920000000 1.0
C      1  0.5519990000000  0.5509840000000  0.5023700000000 1.0
C      1  0.4799550000000  0.5592960000000  0.4843890000000 1.0
C      1  0.4788610000000  0.5597970000000  0.5138900000000 1.0
C      1  0.5065870000000  0.5599020000000  0.5237190000000 1.0
C      1  0.5251220000000  0.5603380000000  0.5007470000000 1.0
C      1  0.5083850000000  0.5594060000000  0.4765720000000 1.0
C      1  0.4797300000000  0.4397800000000  0.4845070000000 1.0
C      1  0.4786170000000  0.4392710000000  0.5141270000000 1.0
C      1  0.5064360000000  0.4406520000000  0.5237770000000 1.0
C      1  0.5248350000000  0.4400070000000  0.5007950000000 1.0
C      1  0.5081930000000  0.4390410000000  0.4765390000000 1.0
END
