TITL C-38195-9455-68 1.55837546784287e-06 125000 -373.833054746285 0 0 60 (D2) n - 1
REM
REM in /home/bkarasulu/CARBON/AIRSS/Generating-Clusters/EDIP-Nigel-Params/Higher-Symm/Box-15A/Only-C60/SD-CG/FIRE-HFTN
REM
REM
REM
REM
REM
REM ./C.cell (414f73aa93bd7a1190c7fd0f31ff2f98)
REM
REM compiler GCC version 9.2.1 20190827 (Red Hat 9.2.1-1)
REM options -cpp -mtune=generic -march=x86-64 -g -O0 -fpre-include=/usr/include/finclude/math-vector-fortran.h
REM seed 237906652 -387972461 -1531168414 -1291116379 939700000 259521261 1940954932 -1449084181 1729931379 1539163163 -946381305 1613787798 -534105128 1474180153 -153825275 4437047 -572306028 -1679523060 -1604441878 -560761460 742715460 308188345 -1475993083 252547475 1475129653 -2143835446 145222040 1713886562 1252751604 -1777101826 -1255026233 -1581306805 -492101302
REM
CELL 1.54180   50.00000   50.00000   50.00000   90.00000   90.00000   90.00000
LATT -1
SFAC C  
C      1  0.5030890000000  0.4623350000000  0.4430510000000 1.0
C      1  0.4969110000000  0.5376650000000  0.4430510000000 1.0
C      1  0.4969110000000  0.4623350000000  0.5569490000000 1.0
C      1  0.5030890000000  0.5376650000000  0.5569490000000 1.0
C      1  0.4398570000000  0.5389750000000  0.5154240000000 1.0
C      1  0.5601430000000  0.4610250000000  0.5154240000000 1.0
C      1  0.5601430000000  0.5389750000000  0.4845760000000 1.0
C      1  0.4398570000000  0.4610250000000  0.4845760000000 1.0
C      1  0.5400740000000  0.5134660000000  0.4487090000000 1.0
C      1  0.4599260000000  0.4865340000000  0.4487090000000 1.0
C      1  0.4599260000000  0.5134660000000  0.5512910000000 1.0
C      1  0.5400740000000  0.4865340000000  0.5512910000000 1.0
C      1  0.5750970000000  0.5066160000000  0.5211970000000 1.0
C      1  0.4249030000000  0.4933840000000  0.5211970000000 1.0
C      1  0.4249030000000  0.5066160000000  0.4788030000000 1.0
C      1  0.5750970000000  0.4933840000000  0.4788030000000 1.0
C      1  0.5308070000000  0.5250100000000  0.5176030000000 1.0
C      1  0.4691930000000  0.4749900000000  0.5176030000000 1.0
C      1  0.4691930000000  0.5250100000000  0.4823970000000 1.0
C      1  0.5308070000000  0.4749900000000  0.4823970000000 1.0
C      1  0.5160800000000  0.5254030000000  0.4916060000000 1.0
C      1  0.4839200000000  0.4745970000000  0.4916060000000 1.0
C      1  0.4839200000000  0.5254030000000  0.5083940000000 1.0
C      1  0.5160800000000  0.4745970000000  0.5083940000000 1.0
C      1  0.4805970000000  0.4524010000000  0.5338870000000 1.0
C      1  0.5194030000000  0.5475990000000  0.5338870000000 1.0
C      1  0.5194030000000  0.4524010000000  0.4661130000000 1.0
C      1  0.4805970000000  0.5475990000000  0.4661130000000 1.0
C      1  0.5659910000000  0.5166540000000  0.4654800000000 1.0
C      1  0.4340090000000  0.4833460000000  0.4654800000000 1.0
C      1  0.4340090000000  0.5166540000000  0.5345200000000 1.0
C      1  0.5659910000000  0.4833460000000  0.5345200000000 1.0
C      1  0.5599250000000  0.5287770000000  0.5127890000000 1.0
C      1  0.4400750000000  0.4712230000000  0.5127890000000 1.0
C      1  0.4400750000000  0.5287770000000  0.4872110000000 1.0
C      1  0.5599250000000  0.4712230000000  0.4872110000000 1.0
C      1  0.4782270000000  0.4985870000000  0.4710690000000 1.0
C      1  0.5217730000000  0.5014130000000  0.4710690000000 1.0
C      1  0.5217730000000  0.4985870000000  0.5289310000000 1.0
C      1  0.4782270000000  0.5014130000000  0.5289310000000 1.0
C      1  0.5310420000000  0.4519830000000  0.5224780000000 1.0
C      1  0.4689580000000  0.5480170000000  0.5224780000000 1.0
C      1  0.4689580000000  0.4519830000000  0.4775220000000 1.0
C      1  0.5310420000000  0.5480170000000  0.4775220000000 1.0
C      1  0.4888750000000  0.5729680000000  0.4809440000000 1.0
C      1  0.5111250000000  0.4270320000000  0.4809440000000 1.0
C      1  0.5111250000000  0.5729680000000  0.5190560000000 1.0
C      1  0.4888750000000  0.4270320000000  0.5190560000000 1.0
C      1  0.4736790000000  0.4590210000000  0.4481220000000 1.0
C      1  0.5263210000000  0.5409790000000  0.4481220000000 1.0
C      1  0.5263210000000  0.4590210000000  0.5518780000000 1.0
C      1  0.4736790000000  0.5409790000000  0.5518780000000 1.0
C      1  0.5189010000000  0.5737180000000  0.4884410000000 1.0
C      1  0.4810990000000  0.4262820000000  0.4884410000000 1.0
C      1  0.4810990000000  0.5737180000000  0.5115590000000 1.0
C      1  0.5189010000000  0.4262820000000  0.5115590000000 1.0
C      1  0.5114270000000  0.5093940000000  0.5647390000000 1.0
C      1  0.4885730000000  0.4906060000000  0.5647390000000 1.0
C      1  0.4885730000000  0.5093940000000  0.4352610000000 1.0
C      1  0.5114270000000  0.4906060000000  0.4352610000000 1.0
END
