TITL C-38198-1686-54 6.31815118373275e-07 125000 -361.18616270464 0 0 60 (C1) n - 1
REM
REM in /home/bkarasulu/CARBON/AIRSS/Generating-Clusters/EDIP-Nigel-Params/Higher-Symm/Box-15A/Only-C60/SD-CG/FIRE-HFTN
REM
REM
REM
REM
REM
REM ./C.cell (414f73aa93bd7a1190c7fd0f31ff2f98)
REM
REM compiler GCC version 9.2.1 20190827 (Red Hat 9.2.1-1)
REM options -cpp -mtune=generic -march=x86-64 -g -O0 -fpre-include=/usr/include/finclude/math-vector-fortran.h
REM seed -595506273 1838592013 79611788 1110903554 -1197955754 -839299707 1059656858 -1142687925 -1531938636 1257682847 768639532 -1358673342 1717079937 135120951 -1807833158 -1313940853 -1338196950 705183144 1728044397 -29345883 2088976350 2147356815 -859550366 1255025895 197458841 -1207041871 944546658 1701417302 1698885178 1780919370 1200266534 -1271666340 -1865315126
REM
CELL 1.54180   50.00000   50.00000   50.00000   90.00000   90.00000   90.00000
LATT -1
SFAC C  
C      1  0.4811190000000  0.5088720000000  0.4744290000000 1.0
C      1  0.4963450000000  0.4809910000000  0.4813560000000 1.0
C      1  0.4784970000000  0.4740980000000  0.5032580000000 1.0
C      1  0.5190620000000  0.5208480000000  0.5214560000000 1.0
C      1  0.5351830000000  0.5094000000000  0.4801620000000 1.0
C      1  0.4860330000000  0.4881980000000  0.5272950000000 1.0
C      1  0.5116150000000  0.4732920000000  0.5326160000000 1.0
C      1  0.5001920000000  0.5296720000000  0.4640050000000 1.0
C      1  0.4886050000000  0.5180600000000  0.5218440000000 1.0
C      1  0.5227320000000  0.4858930000000  0.4950570000000 1.0
C      1  0.5384180000000  0.5316230000000  0.5008160000000 1.0
C      1  0.4657330000000  0.5197910000000  0.4992440000000 1.0
C      1  0.5083590000000  0.5015790000000  0.4308090000000 1.0
C      1  0.5055440000000  0.4314770000000  0.5082140000000 1.0
C      1  0.4415820000000  0.5031550000000  0.5087990000000 1.0
C      1  0.4829680000000  0.5117010000000  0.5650670000000 1.0
C      1  0.4812990000000  0.4876920000000  0.4344570000000 1.0
C      1  0.5112560000000  0.5003500000000  0.5670340000000 1.0
C      1  0.4870850000000  0.4349920000000  0.4837090000000 1.0
C      1  0.4898410000000  0.5662470000000  0.5121720000000 1.0
C      1  0.5067720000000  0.5692370000000  0.4880550000000 1.0
C      1  0.5747910000000  0.5028420000000  0.4987200000000 1.0
C      1  0.5628830000000  0.4796930000000  0.5144650000000 1.0
C      1  0.4361390000000  0.4799390000000  0.4909520000000 1.0
C      1  0.4814640000000  0.4600300000000  0.4397890000000 1.0
C      1  0.4588460000000  0.4344120000000  0.4863840000000 1.0
C      1  0.4409450000000  0.4871680000000  0.4641060000000 1.0
C      1  0.5120270000000  0.4709760000000  0.5619570000000 1.0
C      1  0.5048890000000  0.5300780000000  0.4360930000000 1.0
C      1  0.4811080000000  0.5388920000000  0.5532770000000 1.0
C      1  0.5321940000000  0.4393940000000  0.5038940000000 1.0
C      1  0.5319550000000  0.5582580000000  0.4920140000000 1.0
C      1  0.4622860000000  0.5694410000000  0.5084060000000 1.0
C      1  0.5505710000000  0.4888770000000  0.5386650000000 1.0
C      1  0.5626050000000  0.5024210000000  0.4713000000000 1.0
C      1  0.4413980000000  0.4979480000000  0.5367310000000 1.0
C      1  0.4545920000000  0.5469510000000  0.4933800000000 1.0
C      1  0.5349090000000  0.4937900000000  0.4446070000000 1.0
C      1  0.5001090000000  0.4437890000000  0.5366000000000 1.0
C      1  0.5669700000000  0.5297670000000  0.5106110000000 1.0
C      1  0.5444320000000  0.4640250000000  0.4952790000000 1.0
C      1  0.4539670000000  0.4581020000000  0.5024100000000 1.0
C      1  0.4656810000000  0.4894740000000  0.5501950000000 1.0
C      1  0.4618240000000  0.5034520000000  0.4525130000000 1.0
C      1  0.5322510000000  0.5106840000000  0.5464180000000 1.0
C      1  0.4973690000000  0.4553800000000  0.4634710000000 1.0
C      1  0.4999540000000  0.5567840000000  0.5390830000000 1.0
C      1  0.4960880000000  0.5593670000000  0.4603300000000 1.0
C      1  0.4524480000000  0.5307980000000  0.4447560000000 1.0
C      1  0.5240040000000  0.4466630000000  0.4550440000000 1.0
C      1  0.4481790000000  0.4499680000000  0.5300870000000 1.0
C      1  0.5465060000000  0.5360050000000  0.5531060000000 1.0
C      1  0.5431040000000  0.4655500000000  0.4446400000000 1.0
C      1  0.4630670000000  0.4630970000000  0.5633630000000 1.0
C      1  0.4709210000000  0.4409620000000  0.5463180000000 1.0
C      1  0.4681830000000  0.5659040000000  0.4522940000000 1.0
C      1  0.5275150000000  0.5561090000000  0.5468440000000 1.0
C      1  0.5580210000000  0.4589850000000  0.4689510000000 1.0
C      1  0.5704370000000  0.5354780000000  0.5382000000000 1.0
C      1  0.4471320000000  0.5513750000000  0.4648930000000 1.0
END
