TITL C-38197-8510-390 9.24823557209313e-07 125000 -382.175859005227 0 0 60 (C5) n - 1
REM
REM in /home/bkarasulu/CARBON/AIRSS/Generating-Clusters/EDIP-Nigel-Params/Higher-Symm/Box-15A/Only-C60/SD-CG/FIRE-HFTN
REM
REM
REM
REM
REM
REM ./C.cell (414f73aa93bd7a1190c7fd0f31ff2f98)
REM
REM compiler GCC version 9.2.1 20190827 (Red Hat 9.2.1-1)
REM options -cpp -mtune=generic -march=x86-64 -g -O0 -fpre-include=/usr/include/finclude/math-vector-fortran.h
REM seed 766933356 210698843 1122000706 -1763673480 -1526755810 -1264060690 1329930132 612042927 202937121 1336849370 -1369697577 355757796 1316316859 -1705171445 1374784807 -474238284 1192061209 1255382242 -1721942286 -1115045402 698801895 -1281488249 -670616637 1774494961 998475179 -609583001 1626931483 -600092312 -429215755 624666399 -789117465 -1327830759 221051110
REM
CELL 1.54180   50.00000   50.00000   50.00000   90.00000   90.00000   90.00000
LATT -1
SFAC C  
C      1  0.5025470000000  0.5250100000000  0.5572810000000 1.0
C      1  0.4770010000000  0.5101510000000  0.5572810000000 1.0
C      1  0.4832390000000  0.4812640000000  0.5572810000000 1.0
C      1  0.5126390000000  0.4782690000000  0.5572810000000 1.0
C      1  0.5245730000000  0.5053060000000  0.5572810000000 1.0
C      1  0.5392990000000  0.5774790000000  0.4854840000000 1.0
C      1  0.4384570000000  0.5613180000000  0.4854840000000 1.0
C      1  0.4226660000000  0.4604180000000  0.4854840000000 1.0
C      1  0.5137470000000  0.4142190000000  0.4854840000000 1.0
C      1  0.5858310000000  0.4865670000000  0.4854840000000 1.0
C      1  0.5229030000000  0.4900400000000  0.4923300000000 1.0
C      1  0.5165500000000  0.5187040000000  0.4923300000000 1.0
C      1  0.4873250000000  0.5215200000000  0.4923300000000 1.0
C      1  0.4756170000000  0.4945950000000  0.4923300000000 1.0
C      1  0.4976050000000  0.4751400000000  0.4923300000000 1.0
C      1  0.4488030000000  0.5415300000000  0.4680940000000 1.0
C      1  0.4446820000000  0.4641420000000  0.4680940000000 1.0
C      1  0.5170090000000  0.4363080000000  0.4680950000000 1.0
C      1  0.5658300000000  0.4964940000000  0.4680950000000 1.0
C      1  0.5236770000000  0.5615250000000  0.4680940000000 1.0
C      1  0.5044670000000  0.5509400000000  0.5433540000000 1.0
C      1  0.4529330000000  0.5199890000000  0.5433540000000 1.0
C      1  0.4664450000000  0.4614140000000  0.5433540000000 1.0
C      1  0.5263280000000  0.4561630000000  0.5433540000000 1.0
C      1  0.5498270000000  0.5114930000000  0.5433540000000 1.0
C      1  0.5228480000000  0.4882800000000  0.4435330000000 1.0
C      1  0.5182070000000  0.5181070000000  0.4435330000000 1.0
C      1  0.4884050000000  0.5229110000000  0.4435330000000 1.0
C      1  0.4746270000000  0.4960530000000  0.4435330000000 1.0
C      1  0.4959140000000  0.4746490000000  0.4435330000000 1.0
C      1  0.4791210000000  0.5386550000000  0.4686670000000 1.0
C      1  0.4567850000000  0.4920880000000  0.4686670000000 1.0
C      1  0.4941700000000  0.4564550000000  0.4686670000000 1.0
C      1  0.5396120000000  0.4810000000000  0.4686670000000 1.0
C      1  0.5303110000000  0.5318020000000  0.4686670000000 1.0
C      1  0.5235860000000  0.5780760000000  0.5091240000000 1.0
C      1  0.4330340000000  0.5465580000000  0.5091240000000 1.0
C      1  0.4350270000000  0.4506990000000  0.5091240000000 1.0
C      1  0.5268100000000  0.4229720000000  0.5091240000000 1.0
C      1  0.5815430000000  0.5016950000000  0.5091240000000 1.0
C      1  0.4803420000000  0.4427630000000  0.5251550000000 1.0
C      1  0.5483610000000  0.4636170000000  0.5251550000000 1.0
C      1  0.5495470000000  0.5347510000000  0.5251550000000 1.0
C      1  0.4822610000000  0.5578610000000  0.5251550000000 1.0
C      1  0.4394900000000  0.5010090000000  0.5251550000000 1.0
C      1  0.5603690000000  0.5255760000000  0.4735790000000 1.0
C      1  0.4943310000000  0.5653180000000  0.4735790000000 1.0
C      1  0.4361270000000  0.5147930000000  0.4735790000000 1.0
C      1  0.4661930000000  0.4438250000000  0.4735790000000 1.0
C      1  0.5429790000000  0.4504890000000  0.4735790000000 1.0
C      1  0.4262690000000  0.5173900000000  0.5030510000000 1.0
C      1  0.4606770000000  0.4352510000000  0.5030510000000 1.0
C      1  0.5494280000000  0.4425930000000  0.5030510000000 1.0
C      1  0.5698720000000  0.5292690000000  0.5030510000000 1.0
C      1  0.4937550000000  0.5754960000000  0.5030510000000 1.0
C      1  0.4544040000000  0.5467920000000  0.5303480000000 1.0
C      1  0.4414080000000  0.4710950000000  0.5303480000000 1.0
C      1  0.5093840000000  0.4353440000000  0.5303480000000 1.0
C      1  0.5643920000000  0.4889450000000  0.5303480000000 1.0
C      1  0.5304120000000  0.5578240000000  0.5303480000000 1.0
END
