TITL C-38194-9318-661 -0.14428386430028 125000 -354.745475605457 0 0 60 (C1) n - 1
REM
REM in /home/bkarasulu/CARBON/AIRSS/Generating-Clusters/EDIP-Nigel-Params/Higher-Symm/Box-15A/Only-C60/SD-CG/FIRE-HFTN
REM
REM
REM
REM
REM
REM ./C.cell (414f73aa93bd7a1190c7fd0f31ff2f98)
REM
REM compiler GCC version 9.2.1 20190827 (Red Hat 9.2.1-1)
REM options -cpp -mtune=generic -march=x86-64 -g -O0 -fpre-include=/usr/include/finclude/math-vector-fortran.h
REM seed -109202620 182843971 1360748718 -577543440 -317391819 -1348854282 -246439537 2059849403 -362472153 809763130 1765896298 -810541480 448616448 1922337913 -1224047972 -1826990669 -1760073986 -1462941162 1205516270 -1198778419 823719545 -521615020 1326863610 905278036 1047298578 967690342 -304463399 1024382093 89443323 751426156 -341910873 -646477006 1762393704
REM
CELL 1.54180   50.00000   50.00000   50.00000   90.00000   90.00000   90.00000
LATT -1
SFAC C  
C      1  0.4733900000000  0.4698360000000  0.5503740000000 1.0
C      1  0.5289380000000  0.4774670000000  0.5388330000000 1.0
C      1  0.5457730000000  0.4686990000000  0.4896520000000 1.0
C      1  0.4948440000000  0.4724150000000  0.4599090000000 1.0
C      1  0.4506660000000  0.4699750000000  0.4880460000000 1.0
C      1  0.4358600000000  0.4780450000000  0.5231280000000 1.0
C      1  0.5007770000000  0.4789050000000  0.5766230000000 1.0
C      1  0.5743700000000  0.4745090000000  0.5266730000000 1.0
C      1  0.5405610000000  0.4714290000000  0.4512970000000 1.0
C      1  0.4527070000000  0.4779980000000  0.4410410000000 1.0
C      1  0.5194310000000  0.4570470000000  0.4643260000000 1.0
C      1  0.4662370000000  0.4642210000000  0.4619690000000 1.0
C      1  0.4592200000000  0.4616840000000  0.5246490000000 1.0
C      1  0.5058980000000  0.4640160000000  0.5521860000000 1.0
C      1  0.5485200000000  0.4642530000000  0.5204100000000 1.0
C      1  0.4628630000000  0.4978060000000  0.5572050000000 1.0
C      1  0.5411540000000  0.4968600000000  0.5582810000000 1.0
C      1  0.5643170000000  0.4920070000000  0.4825440000000 1.0
C      1  0.4999370000000  0.4939460000000  0.4402770000000 1.0
C      1  0.4374580000000  0.4966900000000  0.4827710000000 1.0
C      1  0.5183430000000  0.5023340000000  0.5775900000000 1.0
C      1  0.5758920000000  0.4973260000000  0.5096630000000 1.0
C      1  0.5298280000000  0.4946380000000  0.4368760000000 1.0
C      1  0.4438070000000  0.5017120000000  0.4540340000000 1.0
C      1  0.4384900000000  0.5015810000000  0.5402090000000 1.0
C      1  0.5047020000000  0.5269330000000  0.5662970000000 1.0
C      1  0.5619750000000  0.5221630000000  0.5188100000000 1.0
C      1  0.5387240000000  0.5214630000000  0.4476090000000 1.0
C      1  0.4617770000000  0.5263770000000  0.4528630000000 1.0
C      1  0.4430300000000  0.5268910000000  0.5243990000000 1.0
C      1  0.4481860000000  0.5201100000000  0.4964270000000 1.0
C      1  0.4800070000000  0.5208430000000  0.5521150000000 1.0
C      1  0.5479810000000  0.5234510000000  0.5454110000000 1.0
C      1  0.5506110000000  0.5170980000000  0.4746760000000 1.0
C      1  0.4912660000000  0.5209900000000  0.4483180000000 1.0
C      1  0.5134580000000  0.5571310000000  0.5249880000000 1.0
C      1  0.5283670000000  0.5545250000000  0.4976990000000 1.0
C      1  0.5162200000000  0.5658460000000  0.4632590000000 1.0
C      1  0.4799620000000  0.5553500000000  0.4890920000000 1.0
C      1  0.4834500000000  0.5590200000000  0.5196350000000 1.0
C      1  0.5526380000000  0.5374270000000  0.4955680000000 1.0
C      1  0.5146430000000  0.5401580000000  0.4465520000000 1.0
C      1  0.4560740000000  0.5410080000000  0.4783120000000 1.0
C      1  0.4660450000000  0.5416960000000  0.5374030000000 1.0
C      1  0.5239960000000  0.5412550000000  0.5485240000000 1.0
C      1  0.4821460000000  0.6544140000000  0.4910260000000 1.0
C      1  0.5004450000000  0.4573630000000  0.5085630000000 1.0
C      1  0.4891220000000  0.6033800000000  0.4795010000000 1.0
C      1  0.4920800000000  0.3547290000000  0.4836270000000 1.0
C      1  0.4898650000000  0.3290330000000  0.4780580000000 1.0
C      1  0.4876680000000  0.3040820000000  0.4729130000000 1.0
C      1  0.4851970000000  0.6289430000000  0.4848520000000 1.0
C      1  0.4943650000000  0.3804900000000  0.4888530000000 1.0
C      1  0.5038750000000  0.5357770000000  0.4874410000000 1.0
C      1  0.4901090000000  0.5773020000000  0.4710850000000 1.0
C      1  0.4990050000000  0.4321400000000  0.4990270000000 1.0
C      1  0.4786130000000  0.6791490000000  0.4964620000000 1.0
C      1  0.5058580000000  0.4834120000000  0.5014450000000 1.0
C      1  0.4965030000000  0.4061080000000  0.4947990000000 1.0
C      1  0.5016250000000  0.5101030000000  0.5003540000000 1.0
END
