TITL C-38185-7677-109 5.19429480722508e-06 125000 -364.367988344903 0 0 60 (C1) n - 1
REM
REM in /home/bkarasulu/CARBON/AIRSS/Generating-Clusters/EDIP-Nigel-Params/Higher-Symm/Box-15A/Only-C60/SD-CG/FIRE-HFTN
REM
REM
REM
REM
REM
REM ./C.cell (414f73aa93bd7a1190c7fd0f31ff2f98)
REM
REM compiler GCC version 9.2.1 20190827 (Red Hat 9.2.1-1)
REM options -cpp -mtune=generic -march=x86-64 -g -O0 -fpre-include=/usr/include/finclude/math-vector-fortran.h
REM seed -1825638473 412017917 -1891514469 -1240328927 -480842531 986745347 1843788636 1508161849 1808823148 1386947172 420051313 -956636068 1908181585 1291445631 1661369273 -220926601 -359506671 -62972895 669785329 1795363876 -1119513264 957703632 -1356094104 -1176307901 -21592470 -2134185022 -1462661998 -2136607703 1067917668 13945243 195199635 -987267372 -1816923401
REM
CELL 1.54180   50.00000   50.00000   50.00000   90.00000   90.00000   90.00000
LATT -1
SFAC C  
C      1  0.4851180000000  0.5772330000000  0.5115560000000 1.0
C      1  0.5156150000000  0.5801040000000  0.4794660000000 1.0
C      1  0.5126200000000  0.5704330000000  0.5062910000000 1.0
C      1  0.4782380000000  0.5883150000000  0.4851170000000 1.0
C      1  0.5305660000000  0.4246210000000  0.4889030000000 1.0
C      1  0.4708910000000  0.4237000000000  0.5111330000000 1.0
C      1  0.4761970000000  0.4222430000000  0.4848210000000 1.0
C      1  0.5252090000000  0.4222440000000  0.5151270000000 1.0
C      1  0.4428430000000  0.4728340000000  0.4730650000000 1.0
C      1  0.5580770000000  0.4726040000000  0.5285560000000 1.0
C      1  0.5608260000000  0.4862370000000  0.4769170000000 1.0
C      1  0.4398980000000  0.4846860000000  0.5247950000000 1.0
C      1  0.5279370000000  0.5569110000000  0.5491010000000 1.0
C      1  0.4690330000000  0.5585170000000  0.4503970000000 1.0
C      1  0.4737740000000  0.5468200000000  0.5485320000000 1.0
C      1  0.5289910000000  0.5491780000000  0.4460380000000 1.0
C      1  0.5116850000000  0.4795210000000  0.5650980000000 1.0
C      1  0.4889150000000  0.4816680000000  0.4371020000000 1.0
C      1  0.4659020000000  0.4596940000000  0.5747970000000 1.0
C      1  0.5348260000000  0.4621530000000  0.4261120000000 1.0
C      1  0.4683340000000  0.4717090000000  0.4866520000000 1.0
C      1  0.5325950000000  0.4718320000000  0.5149470000000 1.0
C      1  0.5353590000000  0.4739880000000  0.4837680000000 1.0
C      1  0.4654710000000  0.4728070000000  0.5177410000000 1.0
C      1  0.5186690000000  0.5325950000000  0.5589730000000 1.0
C      1  0.4820440000000  0.5342330000000  0.4466320000000 1.0
C      1  0.4900570000000  0.5283550000000  0.5617810000000 1.0
C      1  0.5098360000000  0.5298920000000  0.4400540000000 1.0
C      1  0.5217930000000  0.4450580000000  0.4446560000000 1.0
C      1  0.4791600000000  0.4430690000000  0.5559750000000 1.0
C      1  0.4931390000000  0.4529230000000  0.4484890000000 1.0
C      1  0.5077560000000  0.4513160000000  0.5524560000000 1.0
C      1  0.4664510000000  0.5591060000000  0.5246910000000 1.0
C      1  0.5371400000000  0.5673530000000  0.4655470000000 1.0
C      1  0.5343390000000  0.5673590000000  0.5243380000000 1.0
C      1  0.4580900000000  0.5742830000000  0.4705750000000 1.0
C      1  0.4828700000000  0.4479050000000  0.4758530000000 1.0
C      1  0.5182120000000  0.4475090000000  0.5249280000000 1.0
C      1  0.5353730000000  0.4457990000000  0.4713160000000 1.0
C      1  0.4656800000000  0.4442830000000  0.5293090000000 1.0
C      1  0.4397680000000  0.4904860000000  0.5512200000000 1.0
C      1  0.5607780000000  0.4924250000000  0.4505620000000 1.0
C      1  0.5619640000000  0.4720170000000  0.5553770000000 1.0
C      1  0.4388090000000  0.4735780000000  0.4462530000000 1.0
C      1  0.4857360000000  0.4984560000000  0.5583250000000 1.0
C      1  0.5148250000000  0.5003220000000  0.4437180000000 1.0
C      1  0.5312180000000  0.5080530000000  0.5473960000000 1.0
C      1  0.4693070000000  0.5092500000000  0.4562310000000 1.0
C      1  0.4400050000000  0.5595800000000  0.5157460000000 1.0
C      1  0.5565560000000  0.5599770000000  0.4844210000000 1.0
C      1  0.5584180000000  0.5614800000000  0.5114900000000 1.0
C      1  0.4402320000000  0.5628700000000  0.4888610000000 1.0
C      1  0.5400360000000  0.4889500000000  0.4323460000000 1.0
C      1  0.4605400000000  0.4866440000000  0.5693060000000 1.0
C      1  0.4583900000000  0.4901930000000  0.4352710000000 1.0
C      1  0.5423060000000  0.4879580000000  0.5671690000000 1.0
C      1  0.5134420000000  0.4933860000000  0.4726460000000 1.0
C      1  0.4873190000000  0.4920600000000  0.5293640000000 1.0
C      1  0.4843040000000  0.4957910000000  0.4788180000000 1.0
C      1  0.5165170000000  0.4954340000000  0.5238750000000 1.0
END
