TITL C-38196-2854-605 -4.08375563868534e-06 125000 -367.275480067486 0 0 60 (C2) n - 1
REM
REM in /home/bkarasulu/CARBON/AIRSS/Generating-Clusters/EDIP-Nigel-Params/Higher-Symm/Box-15A/Only-C60/SD-CG/FIRE-HFTN
REM
REM
REM
REM
REM
REM ./C.cell (414f73aa93bd7a1190c7fd0f31ff2f98)
REM
REM compiler GCC version 9.2.1 20190827 (Red Hat 9.2.1-1)
REM options -cpp -mtune=generic -march=x86-64 -g -O0 -fpre-include=/usr/include/finclude/math-vector-fortran.h
REM seed 161257387 -272402920 838092637 1880717236 1316884948 669991246 -1414943029 1274841429 -1819344034 695615794 1840933675 -98176967 24855225 -1639889314 257591970 -971368405 -373670400 1185312316 210478276 2112636135 1009758136 -1588693302 -276799705 -313182299 795862998 -721126976 -10622427 -247242003 975770211 -883344044 -1907258645 -38907915 -830844772
REM
CELL 1.54180   50.00000   50.00000   50.00000   90.00000   90.00000   90.00000
LATT -1
SFAC C  
C      1  0.5672550000000  0.5214320000000  0.5147190000000 1.0
C      1  0.5672550000000  0.4785680000000  0.4852810000000 1.0
C      1  0.5660710000000  0.4830810000000  0.5132220000000 1.0
C      1  0.5660710000000  0.5169190000000  0.4867780000000 1.0
C      1  0.5107170000000  0.4385270000000  0.5292610000000 1.0
C      1  0.5107170000000  0.5614730000000  0.4707390000000 1.0
C      1  0.5097380000000  0.5613760000000  0.5290850000000 1.0
C      1  0.5097380000000  0.4386240000000  0.4709150000000 1.0
C      1  0.5444170000000  0.5153690000000  0.5570720000000 1.0
C      1  0.5444170000000  0.4846310000000  0.4429280000000 1.0
C      1  0.5440890000000  0.4854510000000  0.5562600000000 1.0
C      1  0.5440890000000  0.5145490000000  0.4437400000000 1.0
C      1  0.5440520000000  0.5280860000000  0.5301830000000 1.0
C      1  0.5440520000000  0.4719140000000  0.4698170000000 1.0
C      1  0.5439790000000  0.4737230000000  0.5290280000000 1.0
C      1  0.5439790000000  0.5262770000000  0.4709720000000 1.0
C      1  0.4905590000000  0.5785360000000  0.5145580000000 1.0
C      1  0.4905590000000  0.4214640000000  0.4854420000000 1.0
C      1  0.4917750000000  0.4203400000000  0.5150940000000 1.0
C      1  0.4917750000000  0.5796600000000  0.4849060000000 1.0
C      1  0.4691050000000  0.4256910000000  0.5355660000000 1.0
C      1  0.4691050000000  0.5743090000000  0.4644340000000 1.0
C      1  0.4680850000000  0.5738150000000  0.5355950000000 1.0
C      1  0.4680850000000  0.4261850000000  0.4644050000000 1.0
C      1  0.5168740000000  0.4656940000000  0.5167330000000 1.0
C      1  0.5168740000000  0.5343060000000  0.4832670000000 1.0
C      1  0.5166120000000  0.5343810000000  0.5170190000000 1.0
C      1  0.5166120000000  0.4656190000000  0.4829810000000 1.0
C      1  0.5044220000000  0.5149490000000  0.5762860000000 1.0
C      1  0.5044220000000  0.4850510000000  0.4237140000000 1.0
C      1  0.5045050000000  0.4847420000000  0.5762280000000 1.0
C      1  0.5045050000000  0.5152580000000  0.4237720000000 1.0
C      1  0.4866660000000  0.4723980000000  0.4437320000000 1.0
C      1  0.4866660000000  0.5276020000000  0.5562680000000 1.0
C      1  0.4868310000000  0.5279030000000  0.4438420000000 1.0
C      1  0.4868310000000  0.4720970000000  0.5561580000000 1.0
C      1  0.5298570000000  0.5275150000000  0.5783530000000 1.0
C      1  0.5298570000000  0.4724850000000  0.4216470000000 1.0
C      1  0.5301420000000  0.4724400000000  0.5774520000000 1.0
C      1  0.5301420000000  0.5275600000000  0.4225480000000 1.0
C      1  0.4918290000000  0.5162520000000  0.5286660000000 1.0
C      1  0.4918290000000  0.4837480000000  0.4713340000000 1.0
C      1  0.4920610000000  0.4835070000000  0.5285950000000 1.0
C      1  0.4920610000000  0.5164930000000  0.4714050000000 1.0
C      1  0.4912680000000  0.5574070000000  0.4466760000000 1.0
C      1  0.4912680000000  0.4425930000000  0.5533240000000 1.0
C      1  0.4907220000000  0.4428240000000  0.4466740000000 1.0
C      1  0.4907220000000  0.5571760000000  0.5533260000000 1.0
C      1  0.4677110000000  0.5258300000000  0.4857310000000 1.0
C      1  0.4677110000000  0.4741700000000  0.5142690000000 1.0
C      1  0.4672950000000  0.4746880000000  0.4857790000000 1.0
C      1  0.4672950000000  0.5253120000000  0.5142210000000 1.0
C      1  0.4487500000000  0.4574560000000  0.5276430000000 1.0
C      1  0.4487500000000  0.5425440000000  0.4723570000000 1.0
C      1  0.4480250000000  0.5419450000000  0.5274020000000 1.0
C      1  0.4480250000000  0.4580550000000  0.4725980000000 1.0
C      1  0.4386400000000  0.4346010000000  0.5143500000000 1.0
C      1  0.4386400000000  0.5653990000000  0.4856500000000 1.0
C      1  0.4379470000000  0.5649330000000  0.5141140000000 1.0
C      1  0.4379470000000  0.4350670000000  0.4858860000000 1.0
END
