TITL C-38189-4514-387 27.7421906293886 125000 -355.72142901193 0 0 60 (C1) n - 1
REM
REM in /home/bkarasulu/CARBON/AIRSS/Generating-Clusters/EDIP-Nigel-Params/Higher-Symm/Box-15A/Only-C60/SD-CG/FIRE-HFTN
REM
REM
REM
REM
REM
REM ./C.cell (414f73aa93bd7a1190c7fd0f31ff2f98)
REM
REM compiler GCC version 9.2.1 20190827 (Red Hat 9.2.1-1)
REM options -cpp -mtune=generic -march=x86-64 -g -O0 -fpre-include=/usr/include/finclude/math-vector-fortran.h
REM seed -1378089030 961669809 -550339118 -1669822188 111281144 -368428355 1352777531 1249554116 -1011592995 -1089650887 1361218475 -611335658 -211277962 1423078566 923070708 -2047460919 -204415096 -2024464481 -1154590587 113074556 -1295441766 -680406323 -1525318599 1046213464 -941775057 -211114731 262746570 -392146060 1952971644 1374926108 -1430635242 390005479 1694443708
REM
CELL 1.54180   50.00000   50.00000   50.00000   90.00000   90.00000   90.00000
LATT -1
SFAC C  
C      1  0.5031760000000  0.5564080000000  0.4396830000000 1.0
C      1  0.5570070000000  0.5703060000000  0.5217720000000 1.0
C      1  0.5466310000000  0.5540440000000  0.5425680000000 1.0
C      1  0.4483840000000  0.4077510000000  0.4027200000000 1.0
C      1  0.4627770000000  0.5567870000000  0.5285590000000 1.0
C      1  0.4685260000000  0.5196550000000  0.5319460000000 1.0
C      1  0.4996200000000  0.5485550000000  0.5637440000000 1.0
C      1  0.5765880000000  0.5184290000000  0.5252240000000 1.0
C      1  0.4239950000000  0.3804520000000  0.3658520000000 1.0
C      1  0.4682700000000  0.5095660000000  0.5609490000000 1.0
C      1  0.4408850000000  0.5194930000000  0.5200940000000 1.0
C      1  0.4359140000000  0.3938050000000  0.3841140000000 1.0
C      1  0.5853880000000  0.4915530000000  0.5220350000000 1.0
C      1  0.4405420000000  0.5326310000000  0.4615880000000 1.0
C      1  0.4540670000000  0.5543380000000  0.4691360000000 1.0
C      1  0.4235030000000  0.4999380000000  0.5300040000000 1.0
C      1  0.4931880000000  0.4830590000000  0.4934880000000 1.0
C      1  0.5321970000000  0.4621280000000  0.4724710000000 1.0
C      1  0.5203670000000  0.4872950000000  0.4798590000000 1.0
C      1  0.5252310000000  0.5609740000000  0.4844960000000 1.0
C      1  0.4910250000000  0.5226450000000  0.5751500000000 1.0
C      1  0.4606260000000  0.4214750000000  0.4216400000000 1.0
C      1  0.4352750000000  0.4756300000000  0.5222320000000 1.0
C      1  0.5426530000000  0.5009700000000  0.5198410000000 1.0
C      1  0.5944370000000  0.4835210000000  0.4969880000000 1.0
C      1  0.5171110000000  0.5141240000000  0.5585740000000 1.0
C      1  0.5609780000000  0.5282970000000  0.5475850000000 1.0
C      1  0.4727690000000  0.4800600000000  0.5584890000000 1.0
C      1  0.5263860000000  0.4614350000000  0.5546910000000 1.0
C      1  0.5178670000000  0.4400790000000  0.5082460000000 1.0
C      1  0.4753530000000  0.4759080000000  0.4691210000000 1.0
C      1  0.5597100000000  0.4599740000000  0.4684450000000 1.0
C      1  0.4778850000000  0.5612600000000  0.4814010000000 1.0
C      1  0.5389130000000  0.5071300000000  0.4908540000000 1.0
C      1  0.4812180000000  0.5668970000000  0.5092940000000 1.0
C      1  0.5361570000000  0.5803480000000  0.5055880000000 1.0
C      1  0.5120440000000  0.4416090000000  0.4698210000000 1.0
C      1  0.5271770000000  0.4417910000000  0.5343090000000 1.0
C      1  0.4936780000000  0.4553260000000  0.5079680000000 1.0
C      1  0.4461460000000  0.4808090000000  0.4710950000000 1.0
C      1  0.5335810000000  0.5338000000000  0.4852230000000 1.0
C      1  0.5507320000000  0.4785090000000  0.5566070000000 1.0
C      1  0.4923500000000  0.5696350000000  0.4170500000000 1.0
C      1  0.4345900000000  0.4709240000000  0.4947620000000 1.0
C      1  0.4733680000000  0.4356920000000  0.4399010000000 1.0
C      1  0.4604420000000  0.4678050000000  0.5345800000000 1.0
C      1  0.4368690000000  0.5474400000000  0.5213840000000 1.0
C      1  0.4730540000000  0.4451790000000  0.5245200000000 1.0
C      1  0.5012870000000  0.4740140000000  0.5618940000000 1.0
C      1  0.5831630000000  0.4694430000000  0.4771300000000 1.0
C      1  0.5191680000000  0.5681920000000  0.4194400000000 1.0
C      1  0.5459410000000  0.5082050000000  0.5644530000000 1.0
C      1  0.5173410000000  0.5540570000000  0.5415520000000 1.0
C      1  0.5017510000000  0.5666210000000  0.4666180000000 1.0
C      1  0.4850200000000  0.4489090000000  0.4610720000000 1.0
C      1  0.5133800000000  0.4976840000000  0.5331630000000 1.0
C      1  0.5660700000000  0.4736870000000  0.5323590000000 1.0
C      1  0.4380600000000  0.5061260000000  0.4627950000000 1.0
C      1  0.4906700000000  0.5062560000000  0.5150310000000 1.0
C      1  0.5094970000000  0.5713650000000  0.5188330000000 1.0
END
