TITL C-38193-7935-376 2.53370211842806e-06 125000 -369.400505859728 0 0 60 (D2) n - 1
REM
REM in /home/bkarasulu/CARBON/AIRSS/Generating-Clusters/EDIP-Nigel-Params/Higher-Symm/Box-15A/Only-C60/SD-CG/FIRE-HFTN
REM
REM
REM
REM
REM
REM ./C.cell (414f73aa93bd7a1190c7fd0f31ff2f98)
REM
REM compiler GCC version 9.2.1 20190827 (Red Hat 9.2.1-1)
REM options -cpp -mtune=generic -march=x86-64 -g -O0 -fpre-include=/usr/include/finclude/math-vector-fortran.h
REM seed 2029284672 -348011666 1490454163 513259402 -1083948874 1169965752 -1005141473 -1787143122 1141601587 -2121417369 929990663 -1660364092 366581871 623569103 263046357 1432075655 1201176891 1650699004 -874840120 2145095048 -843667254 -831669404 503571834 1780552658 950340628 1439070220 -715307771 -306126153 -1273718284 44762258 -341938981 -1892542045 1831859957
REM
CELL 1.54180   50.00000   50.00000   50.00000   90.00000   90.00000   90.00000
LATT -1
SFAC C  
C      1  0.5561450000000  0.5457180000000  0.4864580000000 1.0
C      1  0.4438550000000  0.4542820000000  0.4864580000000 1.0
C      1  0.5561450000000  0.4542820000000  0.5135420000000 1.0
C      1  0.4438550000000  0.5457180000000  0.5135420000000 1.0
C      1  0.4751260000000  0.4724460000000  0.4350650000000 1.0
C      1  0.5248740000000  0.5275540000000  0.4350650000000 1.0
C      1  0.4751260000000  0.5275540000000  0.5649350000000 1.0
C      1  0.5248740000000  0.4724460000000  0.5649350000000 1.0
C      1  0.5752120000000  0.4641870000000  0.4952260000000 1.0
C      1  0.4247880000000  0.5358130000000  0.4952260000000 1.0
C      1  0.5752120000000  0.5358130000000  0.5047740000000 1.0
C      1  0.4247880000000  0.4641870000000  0.5047740000000 1.0
C      1  0.4813690000000  0.4522080000000  0.5241350000000 1.0
C      1  0.5186310000000  0.5477920000000  0.5241350000000 1.0
C      1  0.4813690000000  0.5477920000000  0.4758650000000 1.0
C      1  0.5186310000000  0.4522080000000  0.4758650000000 1.0
C      1  0.4987450000000  0.4850170000000  0.5637280000000 1.0
C      1  0.5012550000000  0.5149830000000  0.5637280000000 1.0
C      1  0.4987450000000  0.5149830000000  0.4362720000000 1.0
C      1  0.5012550000000  0.4850170000000  0.4362720000000 1.0
C      1  0.4813620000000  0.5679300000000  0.5484350000000 1.0
C      1  0.5186380000000  0.4320700000000  0.5484350000000 1.0
C      1  0.4813620000000  0.4320700000000  0.4515650000000 1.0
C      1  0.5186380000000  0.5679300000000  0.4515650000000 1.0
C      1  0.5269400000000  0.5550560000000  0.4292770000000 1.0
C      1  0.4730600000000  0.4449440000000  0.4292770000000 1.0
C      1  0.5269400000000  0.4449440000000  0.5707230000000 1.0
C      1  0.4730600000000  0.5550560000000  0.5707230000000 1.0
C      1  0.5489790000000  0.5125220000000  0.5502300000000 1.0
C      1  0.4510210000000  0.4874780000000  0.5502300000000 1.0
C      1  0.5489790000000  0.4874780000000  0.4497700000000 1.0
C      1  0.4510210000000  0.5125220000000  0.4497700000000 1.0
C      1  0.4401330000000  0.5020520000000  0.5278110000000 1.0
C      1  0.5598670000000  0.4979480000000  0.5278110000000 1.0
C      1  0.4401330000000  0.4979480000000  0.4721890000000 1.0
C      1  0.5598670000000  0.5020520000000  0.4721890000000 1.0
C      1  0.5597960000000  0.5292390000000  0.4625090000000 1.0
C      1  0.4402040000000  0.4707610000000  0.4625090000000 1.0
C      1  0.5597960000000  0.4707610000000  0.5374910000000 1.0
C      1  0.4402040000000  0.5292390000000  0.5374910000000 1.0
C      1  0.5809590000000  0.4909410000000  0.4883260000000 1.0
C      1  0.4190410000000  0.5090590000000  0.4883260000000 1.0
C      1  0.5809590000000  0.5090590000000  0.5116740000000 1.0
C      1  0.4190410000000  0.4909410000000  0.5116740000000 1.0
C      1  0.4911600000000  0.4402820000000  0.4765500000000 1.0
C      1  0.5088400000000  0.5597180000000  0.4765500000000 1.0
C      1  0.4911600000000  0.5597180000000  0.5234500000000 1.0
C      1  0.5088400000000  0.4402820000000  0.5234500000000 1.0
C      1  0.5225860000000  0.4748000000000  0.4550080000000 1.0
C      1  0.4774140000000  0.5252000000000  0.4550080000000 1.0
C      1  0.5225860000000  0.5252000000000  0.5449920000000 1.0
C      1  0.4774140000000  0.4748000000000  0.5449920000000 1.0
C      1  0.4721600000000  0.5471490000000  0.5043520000000 1.0
C      1  0.5278400000000  0.4528510000000  0.5043520000000 1.0
C      1  0.4721600000000  0.4528510000000  0.4956480000000 1.0
C      1  0.5278400000000  0.5471490000000  0.4956480000000 1.0
C      1  0.4530620000000  0.4898940000000  0.4308330000000 1.0
C      1  0.5469380000000  0.5101060000000  0.4308330000000 1.0
C      1  0.4530620000000  0.5101060000000  0.5691670000000 1.0
C      1  0.5469380000000  0.4898940000000  0.5691670000000 1.0
END
