TITL C-38192-7909-341 2.8926407839542e-05 125000 -366.395641664358 0 0 60 (C2v) n - 1
REM
REM in /home/bkarasulu/CARBON/AIRSS/Generating-Clusters/EDIP-Nigel-Params/Higher-Symm/Box-15A/Only-C60/SD-CG/FIRE-HFTN
REM
REM
REM
REM
REM
REM ./C.cell (414f73aa93bd7a1190c7fd0f31ff2f98)
REM
REM compiler GCC version 9.2.1 20190827 (Red Hat 9.2.1-1)
REM options -cpp -mtune=generic -march=x86-64 -g -O0 -fpre-include=/usr/include/finclude/math-vector-fortran.h
REM seed -434267653 2128552089 243917361 -2039924113 92152199 -150434301 1006914684 -1541959639 -1783109776 482499820 62153412 -573739684 380089005 267701205 -682161186 -1357054467 257333432 -1355461664 -216135841 1270432094 1828206335 -922872431 767804610 1604345975 349623318 572140785 1148813865 -1008377816 -1685474008 2033987343 -900322008 -972374485 965993626
REM
CELL 1.54180   50.00000   50.00000   50.00000   90.00000   90.00000   90.00000
LATT -1
SFAC C  
C      1  0.5100330000000  0.4452440000000  0.5524880000000 1.0
C      1  0.5075680000000  0.5261900000000  0.5543540000000 1.0
C      1  0.5022110000000  0.5653320000000  0.5269950000000 1.0
C      1  0.5100330000000  0.5547560000000  0.4475120000000 1.0
C      1  0.5075680000000  0.4738100000000  0.4456460000000 1.0
C      1  0.5022110000000  0.4346680000000  0.4730050000000 1.0
C      1  0.5100330000000  0.5547560000000  0.5524880000000 1.0
C      1  0.5075680000000  0.4738100000000  0.5543540000000 1.0
C      1  0.5022110000000  0.4346680000000  0.5269950000000 1.0
C      1  0.5100330000000  0.4452440000000  0.4475120000000 1.0
C      1  0.5075680000000  0.5261900000000  0.4456460000000 1.0
C      1  0.5022110000000  0.5653320000000  0.4730050000000 1.0
C      1  0.4361000000000  0.4677200000000  0.4673870000000 1.0
C      1  0.4219270000000  0.4540720000000  0.5133340000000 1.0
C      1  0.4230530000000  0.4867010000000  0.5476140000000 1.0
C      1  0.4361000000000  0.5322800000000  0.5326130000000 1.0
C      1  0.4219270000000  0.5459280000000  0.4866660000000 1.0
C      1  0.4230530000000  0.5132990000000  0.4523860000000 1.0
C      1  0.4361000000000  0.5322800000000  0.4673870000000 1.0
C      1  0.4219270000000  0.5459280000000  0.5133340000000 1.0
C      1  0.4230530000000  0.5132990000000  0.5476140000000 1.0
C      1  0.4361000000000  0.4677200000000  0.5326130000000 1.0
C      1  0.4219270000000  0.4540720000000  0.4866660000000 1.0
C      1  0.4230530000000  0.4867010000000  0.4523860000000 1.0
C      1  0.5266720000000  0.4855310000000  0.4274020000000 1.0
C      1  0.5388890000000  0.4243430000000  0.4736410000000 1.0
C      1  0.5381050000000  0.4361280000000  0.5531290000000 1.0
C      1  0.5266720000000  0.5144690000000  0.5725980000000 1.0
C      1  0.5388890000000  0.5756570000000  0.5263590000000 1.0
C      1  0.5381050000000  0.5638720000000  0.4468710000000 1.0
C      1  0.5266720000000  0.5144690000000  0.4274020000000 1.0
C      1  0.5388890000000  0.5756570000000  0.4736410000000 1.0
C      1  0.5381050000000  0.5638720000000  0.5531290000000 1.0
C      1  0.5266720000000  0.4855310000000  0.5725980000000 1.0
C      1  0.5388890000000  0.4243430000000  0.5263590000000 1.0
C      1  0.5381050000000  0.4361280000000  0.4468710000000 1.0
C      1  0.4812220000000  0.4850330000000  0.5495720000000 1.0
C      1  0.4649010000000  0.5304380000000  0.5297710000000 1.0
C      1  0.4791310000000  0.5524430000000  0.4851670000000 1.0
C      1  0.4812220000000  0.5149670000000  0.4504280000000 1.0
C      1  0.4649010000000  0.4695620000000  0.4702290000000 1.0
C      1  0.4791310000000  0.4475570000000  0.5148330000000 1.0
C      1  0.4812220000000  0.5149670000000  0.5495720000000 1.0
C      1  0.4649010000000  0.4695620000000  0.5297710000000 1.0
C      1  0.4791310000000  0.4475570000000  0.4851670000000 1.0
C      1  0.4812220000000  0.4850330000000  0.4504280000000 1.0
C      1  0.4649010000000  0.5304380000000  0.4702290000000 1.0
C      1  0.4791310000000  0.5524430000000  0.5148330000000 1.0
C      1  0.5579390000000  0.4424150000000  0.5142060000000 1.0
C      1  0.5547520000000  0.4810230000000  0.5656050000000 1.0
C      1  0.5574980000000  0.5421730000000  0.5486790000000 1.0
C      1  0.5579390000000  0.5575850000000  0.4857940000000 1.0
C      1  0.5547520000000  0.5189770000000  0.4343950000000 1.0
C      1  0.5574980000000  0.4578270000000  0.4513210000000 1.0
C      1  0.5579390000000  0.5575850000000  0.5142060000000 1.0
C      1  0.5547520000000  0.5189770000000  0.5656050000000 1.0
C      1  0.5574980000000  0.4578270000000  0.5486790000000 1.0
C      1  0.5579390000000  0.4424150000000  0.4857940000000 1.0
C      1  0.5547520000000  0.4810230000000  0.4343950000000 1.0
C      1  0.5574980000000  0.5421730000000  0.4513210000000 1.0
END
