TITL C-38192-7909-534 -1.15212523098683e-06 125000 -378.512774024218 0 0 60 (Td) n - 1
REM
REM in /home/bkarasulu/CARBON/AIRSS/Generating-Clusters/EDIP-Nigel-Params/Higher-Symm/Box-15A/Only-C60/SD-CG/FIRE-HFTN
REM
REM
REM
REM
REM
REM ./C.cell (414f73aa93bd7a1190c7fd0f31ff2f98)
REM
REM compiler GCC version 9.2.1 20190827 (Red Hat 9.2.1-1)
REM options -cpp -mtune=generic -march=x86-64 -g -O0 -fpre-include=/usr/include/finclude/math-vector-fortran.h
REM seed 1132973490 -1170404178 -1275909786 485664378 325385705 905298301 2039092364 -1294155161 -513379165 1486358257 -162143624 -1866430236 1749760073 1487047926 -516006117 490867326 -430584518 -299308549 -340982351 685502801 -1531750849 397121205 140064169 1551599584 1172760797 -233060334 1989390024 -1962399607 -350916786 -1307630141 -1794115480 -1198125837 -1511550567
REM
CELL 1.54180   50.00000   50.00000   50.00000   90.00000   90.00000   90.00000
LATT -1
SFAC C  
C      1  0.5506240000000  0.5303510000000  0.4902640000000 1.0
C      1  0.4902640000000  0.5506240000000  0.5303510000000 1.0
C      1  0.5303510000000  0.4902640000000  0.5506240000000 1.0
C      1  0.4493760000000  0.4696490000000  0.4902640000000 1.0
C      1  0.4493760000000  0.5303510000000  0.5097360000000 1.0
C      1  0.5506240000000  0.4696490000000  0.5097360000000 1.0
C      1  0.5097360000000  0.4493760000000  0.5303510000000 1.0
C      1  0.5097360000000  0.5506240000000  0.4696490000000 1.0
C      1  0.4902640000000  0.4493760000000  0.4696490000000 1.0
C      1  0.4696490000000  0.5097360000000  0.5506240000000 1.0
C      1  0.4696490000000  0.4902640000000  0.4493760000000 1.0
C      1  0.5303510000000  0.5097360000000  0.4493760000000 1.0
C      1  0.5303510000000  0.5506240000000  0.4902640000000 1.0
C      1  0.5506240000000  0.4902640000000  0.5303510000000 1.0
C      1  0.4902640000000  0.5303510000000  0.5506240000000 1.0
C      1  0.4696490000000  0.4493760000000  0.4902640000000 1.0
C      1  0.5303510000000  0.4493760000000  0.5097360000000 1.0
C      1  0.4696490000000  0.5506240000000  0.5097360000000 1.0
C      1  0.4493760000000  0.5097360000000  0.5303510000000 1.0
C      1  0.5506240000000  0.5097360000000  0.4696490000000 1.0
C      1  0.4493760000000  0.4902640000000  0.4696490000000 1.0
C      1  0.5097360000000  0.4696490000000  0.5506240000000 1.0
C      1  0.4902640000000  0.4696490000000  0.4493760000000 1.0
C      1  0.5097360000000  0.5303510000000  0.4493760000000 1.0
C      1  0.5668980000000  0.5354250000000  0.5143270000000 1.0
C      1  0.5143270000000  0.5668980000000  0.5354250000000 1.0
C      1  0.5354250000000  0.5143270000000  0.5668980000000 1.0
C      1  0.4331020000000  0.4645750000000  0.5143270000000 1.0
C      1  0.4331020000000  0.5354250000000  0.4856730000000 1.0
C      1  0.5668980000000  0.4645750000000  0.4856730000000 1.0
C      1  0.4856730000000  0.4331020000000  0.5354250000000 1.0
C      1  0.4856730000000  0.5668980000000  0.4645750000000 1.0
C      1  0.5143270000000  0.4331020000000  0.4645750000000 1.0
C      1  0.4645750000000  0.4856730000000  0.5668980000000 1.0
C      1  0.4645750000000  0.5143270000000  0.4331020000000 1.0
C      1  0.5354250000000  0.4856730000000  0.4331020000000 1.0
C      1  0.5354250000000  0.5668980000000  0.5143270000000 1.0
C      1  0.5668980000000  0.5143270000000  0.5354250000000 1.0
C      1  0.5143270000000  0.5354250000000  0.5668980000000 1.0
C      1  0.4645750000000  0.4331020000000  0.5143270000000 1.0
C      1  0.5354250000000  0.4331020000000  0.4856730000000 1.0
C      1  0.4645750000000  0.5668980000000  0.4856730000000 1.0
C      1  0.4331020000000  0.4856730000000  0.5354250000000 1.0
C      1  0.5668980000000  0.4856730000000  0.4645750000000 1.0
C      1  0.4331020000000  0.5143270000000  0.4645750000000 1.0
C      1  0.4856730000000  0.4645750000000  0.5668980000000 1.0
C      1  0.5143270000000  0.4645750000000  0.4331020000000 1.0
C      1  0.4856730000000  0.5354250000000  0.4331020000000 1.0
C      1  0.4754780000000  0.5617140000000  0.4382860000000 1.0
C      1  0.4754780000000  0.4382860000000  0.5617140000000 1.0
C      1  0.5617140000000  0.4382860000000  0.4754780000000 1.0
C      1  0.4382860000000  0.5617140000000  0.4754780000000 1.0
C      1  0.5617140000000  0.4754780000000  0.4382860000000 1.0
C      1  0.4382860000000  0.4754780000000  0.5617140000000 1.0
C      1  0.5245220000000  0.4382860000000  0.4382860000000 1.0
C      1  0.4382860000000  0.5245220000000  0.4382860000000 1.0
C      1  0.4382860000000  0.4382860000000  0.5245220000000 1.0
C      1  0.5245220000000  0.5617140000000  0.5617140000000 1.0
C      1  0.5617140000000  0.5245220000000  0.5617140000000 1.0
C      1  0.5617140000000  0.5617140000000  0.5245220000000 1.0
END
