TITL C-38184-643-29 -8.75471829895896e-08 125000 -363.363323635237 0 0 60 (Cs) n - 1
REM
REM in /home/bkarasulu/CARBON/AIRSS/Generating-Clusters/EDIP-Nigel-Params/Higher-Symm/Box-15A/Only-C60/SD-CG/FIRE-HFTN
REM
REM
REM
REM
REM
REM ./C.cell (414f73aa93bd7a1190c7fd0f31ff2f98)
REM
REM compiler GCC version 9.2.1 20190827 (Red Hat 9.2.1-1)
REM options -cpp -mtune=generic -march=x86-64 -g -O0 -fpre-include=/usr/include/finclude/math-vector-fortran.h
REM seed 238081086 1168618893 1969017336 -809135932 1690582947 1478886534 1082439648 -957699253 -2045529602 -962388494 1077377779 -1557124682 1429977109 -55083099 -211936513 1519587406 -977680847 74146390 -2048030761 -762337062 -1370573195 1213341825 1953356368 -254857047 -611868562 -641426612 1431080064 992981924 1323239357 1106484609 -765457407 1863068873 -254762890
REM
CELL 1.54180   50.00000   50.00000   50.00000   90.00000   90.00000   90.00000
LATT -1
SFAC C  
C      1  0.4644700000000  0.4747370000000  0.4977060000000 1.0
C      1  0.4649200000000  0.5302120000000  0.4952890000000 1.0
C      1  0.5141330000000  0.5491340000000  0.5057680000000 1.0
C      1  0.5381570000000  0.5027050000000  0.5093280000000 1.0
C      1  0.5145500000000  0.4558990000000  0.5093480000000 1.0
C      1  0.5355300000000  0.4747370000000  0.4977060000000 1.0
C      1  0.5350800000000  0.5302120000000  0.4952890000000 1.0
C      1  0.4858670000000  0.5491340000000  0.5057680000000 1.0
C      1  0.4618430000000  0.5027050000000  0.5093280000000 1.0
C      1  0.4854500000000  0.4558990000000  0.5093480000000 1.0
C      1  0.4408880000000  0.4613480000000  0.5089880000000 1.0
C      1  0.4416680000000  0.5460560000000  0.5061370000000 1.0
C      1  0.5243420000000  0.5685030000000  0.5234490000000 1.0
C      1  0.5651670000000  0.5060960000000  0.5239030000000 1.0
C      1  0.5254240000000  0.4339520000000  0.5238580000000 1.0
C      1  0.5591120000000  0.4613480000000  0.5089880000000 1.0
C      1  0.5583320000000  0.5460560000000  0.5061370000000 1.0
C      1  0.4756580000000  0.5685030000000  0.5234490000000 1.0
C      1  0.4348330000000  0.5060960000000  0.5239030000000 1.0
C      1  0.4745760000000  0.4339520000000  0.5238590000000 1.0
C      1  0.4852780000000  0.5467140000000  0.4229740000000 1.0
C      1  0.5255980000000  0.5233190000000  0.4116020000000 1.0
C      1  0.5256220000000  0.4749230000000  0.4136220000000 1.0
C      1  0.4852790000000  0.4526130000000  0.4269790000000 1.0
C      1  0.4691870000000  0.4996420000000  0.4250420000000 1.0
C      1  0.5147220000000  0.5467140000000  0.4229740000000 1.0
C      1  0.4744020000000  0.5233190000000  0.4116020000000 1.0
C      1  0.4743780000000  0.4749230000000  0.4136220000000 1.0
C      1  0.5147210000000  0.4526130000000  0.4269790000000 1.0
C      1  0.5308130000000  0.4996420000000  0.4250420000000 1.0
C      1  0.4335140000000  0.4896160000000  0.5483960000000 1.0
C      1  0.4751100000000  0.5710450000000  0.5508700000000 1.0
C      1  0.5586210000000  0.5339880000000  0.5329490000000 1.0
C      1  0.5554700000000  0.4634060000000  0.5378560000000 1.0
C      1  0.4758430000000  0.4248530000000  0.5501550000000 1.0
C      1  0.5664860000000  0.4896160000000  0.5483960000000 1.0
C      1  0.5248900000000  0.5710450000000  0.5508700000000 1.0
C      1  0.4413790000000  0.5339880000000  0.5329490000000 1.0
C      1  0.4445300000000  0.4634060000000  0.5378560000000 1.0
C      1  0.5241570000000  0.4248530000000  0.5501550000000 1.0
C      1  0.4850660000000  0.4481890000000  0.5642150000000 1.0
C      1  0.4619640000000  0.4973860000000  0.5603720000000 1.0
C      1  0.4845870000000  0.5455620000000  0.5599670000000 1.0
C      1  0.5326620000000  0.5242320000000  0.5477370000000 1.0
C      1  0.5271200000000  0.4704570000000  0.5493010000000 1.0
C      1  0.5149340000000  0.4481890000000  0.5642150000000 1.0
C      1  0.5380360000000  0.4973860000000  0.5603720000000 1.0
C      1  0.5154130000000  0.5455620000000  0.5599670000000 1.0
C      1  0.4673380000000  0.5242320000000  0.5477370000000 1.0
C      1  0.4728800000000  0.4704570000000  0.5493010000000 1.0
C      1  0.5192820000000  0.4532280000000  0.4557420000000 1.0
C      1  0.4665590000000  0.4754220000000  0.4676870000000 1.0
C      1  0.4667380000000  0.5273590000000  0.4654460000000 1.0
C      1  0.5192800000000  0.5485590000000  0.4516870000000 1.0
C      1  0.5311110000000  0.5008450000000  0.4536250000000 1.0
C      1  0.4807180000000  0.4532280000000  0.4557420000000 1.0
C      1  0.5334410000000  0.4754220000000  0.4676870000000 1.0
C      1  0.5332620000000  0.5273590000000  0.4654460000000 1.0
C      1  0.4807200000000  0.5485590000000  0.4516870000000 1.0
C      1  0.4688890000000  0.5008450000000  0.4536250000000 1.0
END
