TITL C-38198-1686-27 -7.75445365520645e-07 125000 -362.869075583423 0 0 60 (C2) n - 1
REM
REM in /home/bkarasulu/CARBON/AIRSS/Generating-Clusters/EDIP-Nigel-Params/Higher-Symm/Box-15A/Only-C60/SD-CG/FIRE-HFTN
REM
REM
REM
REM
REM
REM ./C.cell (414f73aa93bd7a1190c7fd0f31ff2f98)
REM
REM compiler GCC version 9.2.1 20190827 (Red Hat 9.2.1-1)
REM options -cpp -mtune=generic -march=x86-64 -g -O0 -fpre-include=/usr/include/finclude/math-vector-fortran.h
REM seed -799811424 -317415023 -950578193 -1396688442 2091545777 1584781963 -2069819871 270183666 -826128032 2066628446 -632442730 564399239 1913088012 -845184060 1477140358 -1255215715 -2005453282 1089103846 1523265591 -551417998 2091301098 -1518080343 1596533732 1948042388 -1028255694 1278735497 -230988669 1262923872 1797094729 -311979792 1893606266 1827423343 963192973
REM
CELL 1.54180   50.00000   50.00000   50.00000   90.00000   90.00000   90.00000
LATT -1
SFAC C  
C      1  0.5043330000000  0.4282310000000  0.5327230000000 1.0
C      1  0.4952400000000  0.5719160000000  0.5321990000000 1.0
C      1  0.4952410000000  0.4280840000000  0.4678010000000 1.0
C      1  0.5043320000000  0.5717690000000  0.4672770000000 1.0
C      1  0.4280030000000  0.5046240000000  0.5325470000000 1.0
C      1  0.5716910000000  0.4955320000000  0.5323750000000 1.0
C      1  0.4280030000000  0.4953750000000  0.4674530000000 1.0
C      1  0.5716910000000  0.5044680000000  0.4676250000000 1.0
C      1  0.5280080000000  0.5072420000000  0.4606520000000 1.0
C      1  0.4716970000000  0.4925570000000  0.4608250000000 1.0
C      1  0.4716960000000  0.5074430000000  0.5391750000000 1.0
C      1  0.5280080000000  0.4927590000000  0.5393480000000 1.0
C      1  0.5071860000000  0.5280580000000  0.4605160000000 1.0
C      1  0.4925010000000  0.4717490000000  0.4609620000000 1.0
C      1  0.5071860000000  0.4719420000000  0.5394840000000 1.0
C      1  0.4925010000000  0.5282510000000  0.5390380000000 1.0
C      1  0.4814040000000  0.5595300000000  0.4784870000000 1.0
C      1  0.5181000000000  0.4403020000000  0.4791200000000 1.0
C      1  0.5180990000000  0.5596990000000  0.5208800000000 1.0
C      1  0.4814050000000  0.4404700000000  0.5215130000000 1.0
C      1  0.5594230000000  0.4815700000000  0.4788570000000 1.0
C      1  0.4401920000000  0.5182630000000  0.4787490000000 1.0
C      1  0.5594220000000  0.5184310000000  0.5211430000000 1.0
C      1  0.4401920000000  0.4817360000000  0.5212510000000 1.0
C      1  0.4742300000000  0.5090550000000  0.4378020000000 1.0
C      1  0.5292670000000  0.4923880000000  0.4360910000000 1.0
C      1  0.5292660000000  0.5076120000000  0.5639090000000 1.0
C      1  0.4742300000000  0.4909450000000  0.5621980000000 1.0
C      1  0.5091440000000  0.4741460000000  0.4380280000000 1.0
C      1  0.4924820000000  0.5291660000000  0.4358600000000 1.0
C      1  0.5091440000000  0.5258540000000  0.5619720000000 1.0
C      1  0.4924820000000  0.4708340000000  0.5641400000000 1.0
C      1  0.4306790000000  0.4683600000000  0.4753650000000 1.0
C      1  0.5689750000000  0.5315830000000  0.4752430000000 1.0
C      1  0.5689760000000  0.4684170000000  0.5247570000000 1.0
C      1  0.4306790000000  0.5316390000000  0.5246350000000 1.0
C      1  0.4681950000000  0.4308270000000  0.4755760000000 1.0
C      1  0.5314170000000  0.5691230000000  0.4750320000000 1.0
C      1  0.4681940000000  0.5691720000000  0.5244240000000 1.0
C      1  0.5314170000000  0.4308780000000  0.5249680000000 1.0
C      1  0.4905930000000  0.4681430000000  0.5138430000000 1.0
C      1  0.5088620000000  0.5319550000000  0.5133380000000 1.0
C      1  0.5088620000000  0.4680450000000  0.4866620000000 1.0
C      1  0.4905920000000  0.5318570000000  0.4861570000000 1.0
C      1  0.4678960000000  0.4909500000000  0.5136160000000 1.0
C      1  0.5317090000000  0.5092200000000  0.5135650000000 1.0
C      1  0.4678950000000  0.5090500000000  0.4863840000000 1.0
C      1  0.5317090000000  0.4907810000000  0.4864350000000 1.0
C      1  0.4262570000000  0.5336760000000  0.4972650000000 1.0
C      1  0.5733200000000  0.4661460000000  0.4973950000000 1.0
C      1  0.5733190000000  0.5338550000000  0.5026050000000 1.0
C      1  0.4262580000000  0.4663240000000  0.5027350000000 1.0
C      1  0.5335500000000  0.4263820000000  0.4976200000000 1.0
C      1  0.4660190000000  0.5734420000000  0.4970400000000 1.0
C      1  0.5335490000000  0.5736180000000  0.5023800000000 1.0
C      1  0.4660190000000  0.4265570000000  0.5029600000000 1.0
C      1  0.4527850000000  0.5471100000000  0.5334370000000 1.0
C      1  0.5468450000000  0.4530520000000  0.5337330000000 1.0
C      1  0.5468440000000  0.5469480000000  0.4662670000000 1.0
C      1  0.4527850000000  0.4528890000000  0.4665630000000 1.0
END
