TITL C-38194-9318-11 1.69925971346501e-05 125000 -360.817677372258 0 0 60 (C5) n - 1
REM
REM in /home/bkarasulu/CARBON/AIRSS/Generating-Clusters/EDIP-Nigel-Params/Higher-Symm/Box-15A/Only-C60/SD-CG/FIRE-HFTN
REM
REM
REM
REM
REM
REM ./C.cell (414f73aa93bd7a1190c7fd0f31ff2f98)
REM
REM compiler GCC version 9.2.1 20190827 (Red Hat 9.2.1-1)
REM options -cpp -mtune=generic -march=x86-64 -g -O0 -fpre-include=/usr/include/finclude/math-vector-fortran.h
REM seed -1373916884 -1144479497 673156287 -404952127 -588081679 627310823 -2065285363 864845175 136843821 -583355250 -1597446700 775126008 978617299 1300347994 1785818872 -761662798 882320250 1749844173 -1692496647 510517401 -1751118245 374608238 -865970822 -1240458234 -614518231 -474833062 498272644 1627439334 1105468381 -597635712 1412177723 -2053595789 804215043
REM
CELL 1.54180   50.00000   50.00000   50.00000   90.00000   90.00000   90.00000
LATT -1
SFAC C  
C      1  0.4775920000000  0.5673180000000  0.4824610000000 1.0
C      1  0.4290520000000  0.4994910000000  0.4824610000000 1.0
C      1  0.4785600000000  0.4323670000000  0.4824610000000 1.0
C      1  0.5576970000000  0.4587090000000  0.4824610000000 1.0
C      1  0.5570990000000  0.5421140000000  0.4824610000000 1.0
C      1  0.5433120000000  0.4342180000000  0.4855390000000 1.0
C      1  0.5759470000000  0.5208640000000  0.4855390000000 1.0
C      1  0.5036260000000  0.5786770000000  0.4855390000000 1.0
C      1  0.4262940000000  0.5277610000000  0.4855390000000 1.0
C      1  0.4508210000000  0.4384800000000  0.4855390000000 1.0
C      1  0.5596080000000  0.4769640000000  0.5060080000000 1.0
C      1  0.5403280000000  0.5495720000000  0.5060080000000 1.0
C      1  0.4653160000000  0.5536730000000  0.5060080000000 1.0
C      1  0.4382360000000  0.4836000000000  0.5060080000000 1.0
C      1  0.4965120000000  0.4361910000000  0.5060080000000 1.0
C      1  0.4398960000000  0.4991290000000  0.5309520000000 1.0
C      1  0.4822550000000  0.4425690000000  0.5309520000000 1.0
C      1  0.5491370000000  0.4653770000000  0.5309520000000 1.0
C      1  0.5481130000000  0.5360330000000  0.5309520000000 1.0
C      1  0.4805990000000  0.5568930000000  0.5309520000000 1.0
C      1  0.4918760000000  0.4430960000000  0.4598160000000 1.0
C      1  0.5516080000000  0.4746890000000  0.4598160000000 1.0
C      1  0.5400200000000  0.5412610000000  0.4598160000000 1.0
C      1  0.4731250000000  0.5508120000000  0.4598160000000 1.0
C      1  0.4433700000000  0.4901420000000  0.4598160000000 1.0
C      1  0.4375790000000  0.5417740000000  0.5073690000000 1.0
C      1  0.4409810000000  0.4535430000000  0.5073690000000 1.0
C      1  0.5259460000000  0.4295140000000  0.5073690000000 1.0
C      1  0.5750540000000  0.5028950000000  0.5073690000000 1.0
C      1  0.5204400000000  0.5722750000000  0.5073690000000 1.0
C      1  0.4747930000000  0.5000590000000  0.5651200000000 1.0
C      1  0.4921550000000  0.4760450000000  0.5651200000000 1.0
C      1  0.5203580000000  0.4851360000000  0.5651200000000 1.0
C      1  0.5204270000000  0.5147690000000  0.5651200000000 1.0
C      1  0.4922660000000  0.5239910000000  0.5651200000000 1.0
C      1  0.5037170000000  0.5729960000000  0.5297760000000 1.0
C      1  0.4317250000000  0.5260930000000  0.5297760000000 1.0
C      1  0.4540860000000  0.4431300000000  0.5297760000000 1.0
C      1  0.5398990000000  0.4387600000000  0.5297760000000 1.0
C      1  0.5705730000000  0.5190220000000  0.5297760000000 1.0
C      1  0.5090690000000  0.4765480000000  0.4928180000000 1.0
C      1  0.5251070000000  0.5013780000000  0.4928180000000 1.0
C      1  0.5064480000000  0.5243040000000  0.4928180000000 1.0
C      1  0.4788790000000  0.5136430000000  0.4928180000000 1.0
C      1  0.4804980000000  0.4841280000000  0.4928180000000 1.0
C      1  0.4890860000000  0.5278660000000  0.5334970000000 1.0
C      1  0.4701260000000  0.4982320000000  0.5334970000000 1.0
C      1  0.4924500000000  0.4710410000000  0.5334970000000 1.0
C      1  0.5252080000000  0.4838710000000  0.5334970000000 1.0
C      1  0.5231290000000  0.5189900000000  0.5334970000000 1.0
C      1  0.4775400000000  0.5111140000000  0.4405160000000 1.0
C      1  0.4824890000000  0.4820740000000  0.4405160000000 1.0
C      1  0.5116380000000  0.4778070000000  0.4405160000000 1.0
C      1  0.5247030000000  0.5042100000000  0.4405160000000 1.0
C      1  0.5036300000000  0.5247950000000  0.4405160000000 1.0
C      1  0.4640580000000  0.5221130000000  0.4661300000000 1.0
C      1  0.4678630000000  0.4726510000000  0.4661300000000 1.0
C      1  0.5160800000000  0.4609840000000  0.4661300000000 1.0
C      1  0.5420750000000  0.5032360000000  0.4661300000000 1.0
C      1  0.5099240000000  0.5410160000000  0.4661300000000 1.0
END
