TITL C-38192-7909-599 2.54870388314614e-05 125000 -358.31457212734 0 0 60 (Ci) n - 1
REM
REM in /home/bkarasulu/CARBON/AIRSS/Generating-Clusters/EDIP-Nigel-Params/Higher-Symm/Box-15A/Only-C60/SD-CG/FIRE-HFTN
REM
REM
REM
REM
REM
REM ./C.cell (414f73aa93bd7a1190c7fd0f31ff2f98)
REM
REM compiler GCC version 9.2.1 20190827 (Red Hat 9.2.1-1)
REM options -cpp -mtune=generic -march=x86-64 -g -O0 -fpre-include=/usr/include/finclude/math-vector-fortran.h
REM seed 452074006 485246766 1409707668 579506312 -14317727 1785429280 -1485086709 379227201 942869790 -977766606 -1055064193 241372381 206919301 570082386 -449216231 1886707299 -874216341 943946053 -1768858124 1427684121 1557259135 810171769 -1905455097 323261232 -794754885 -1871582254 -597021036 -1234148254 349495369 1632619661 789527319 -1394607413 -1600429081
REM
CELL 1.54180   50.00000   50.00000   50.00000   90.00000   90.00000   90.00000
LATT -1
SFAC C  
C      1  0.4869010000000  0.5558780000000  0.4745090000000 1.0
C      1  0.5130990000000  0.4441220000000  0.5254910000000 1.0
C      1  0.4470620000000  0.5288920000000  0.4750170000000 1.0
C      1  0.5529380000000  0.4711080000000  0.5249830000000 1.0
C      1  0.5477730000000  0.5661920000000  0.4646160000000 1.0
C      1  0.4522270000000  0.4338080000000  0.5353840000000 1.0
C      1  0.4913350000000  0.4342980000000  0.5081770000000 1.0
C      1  0.5086650000000  0.5657020000000  0.4918230000000 1.0
C      1  0.5365560000000  0.5718300000000  0.4885740000000 1.0
C      1  0.4634440000000  0.4281700000000  0.5114260000000 1.0
C      1  0.4222000000000  0.5412990000000  0.5133190000000 1.0
C      1  0.5778000000000  0.4587010000000  0.4866810000000 1.0
C      1  0.5487360000000  0.5297870000000  0.5122780000000 1.0
C      1  0.4512640000000  0.4702130000000  0.4877220000000 1.0
C      1  0.5365930000000  0.5139020000000  0.4883110000000 1.0
C      1  0.4634070000000  0.4860980000000  0.5116890000000 1.0
C      1  0.5513120000000  0.4461440000000  0.4850790000000 1.0
C      1  0.4486880000000  0.5538560000000  0.5149210000000 1.0
C      1  0.4631420000000  0.5445780000000  0.5390710000000 1.0
C      1  0.5368580000000  0.4554220000000  0.4609290000000 1.0
C      1  0.5078790000000  0.5300720000000  0.5555680000000 1.0
C      1  0.4921210000000  0.4699280000000  0.4444320000000 1.0
C      1  0.5512310000000  0.5177850000000  0.5401200000000 1.0
C      1  0.4487690000000  0.4822150000000  0.4598800000000 1.0
C      1  0.4916710000000  0.5435460000000  0.5362030000000 1.0
C      1  0.5083290000000  0.4564540000000  0.4637970000000 1.0
C      1  0.4633290000000  0.5471240000000  0.4894540000000 1.0
C      1  0.5366710000000  0.4528760000000  0.5105460000000 1.0
C      1  0.4626910000000  0.4431930000000  0.4755900000000 1.0
C      1  0.5373090000000  0.5568070000000  0.5244100000000 1.0
C      1  0.4512710000000  0.5261160000000  0.5569870000000 1.0
C      1  0.5487290000000  0.4738840000000  0.4430130000000 1.0
C      1  0.4605240000000  0.4440700000000  0.5590400000000 1.0
C      1  0.5394760000000  0.5559300000000  0.4409600000000 1.0
C      1  0.4277430000000  0.5190900000000  0.4947710000000 1.0
C      1  0.5722570000000  0.4809100000000  0.5052290000000 1.0
C      1  0.4450170000000  0.5100300000000  0.5184430000000 1.0
C      1  0.5549830000000  0.4899700000000  0.4815570000000 1.0
C      1  0.5103420000000  0.4564790000000  0.5532210000000 1.0
C      1  0.4896580000000  0.5435210000000  0.4467790000000 1.0
C      1  0.4685110000000  0.5267420000000  0.4353240000000 1.0
C      1  0.5314890000000  0.4732580000000  0.5646760000000 1.0
C      1  0.4511320000000  0.4774200000000  0.5415080000000 1.0
C      1  0.5488680000000  0.5225800000000  0.4584920000000 1.0
C      1  0.5368290000000  0.4905080000000  0.5415850000000 1.0
C      1  0.4631710000000  0.5094920000000  0.4584150000000 1.0
C      1  0.4933810000000  0.4940390000000  0.5113340000000 1.0
C      1  0.5066190000000  0.5059610000000  0.4886660000000 1.0
C      1  0.5354710000000  0.5394470000000  0.5533520000000 1.0
C      1  0.4645290000000  0.4605530000000  0.4466480000000 1.0
C      1  0.5478840000000  0.5013240000000  0.4364710000000 1.0
C      1  0.4521160000000  0.4986760000000  0.5635290000000 1.0
C      1  0.5072740000000  0.5620540000000  0.5204810000000 1.0
C      1  0.4927260000000  0.4379460000000  0.4795190000000 1.0
C      1  0.4757250000000  0.4864850000000  0.5732990000000 1.0
C      1  0.5242750000000  0.5135150000000  0.4267010000000 1.0
C      1  0.5164190000000  0.5398670000000  0.4342720000000 1.0
C      1  0.4835810000000  0.4601330000000  0.5657280000000 1.0
C      1  0.5076000000000  0.4973490000000  0.5361560000000 1.0
C      1  0.4924000000000  0.5026510000000  0.4638440000000 1.0
END
