TITL C-38198-1686-92 -1.786933756698e-07 125000 -361.647180937626 0 0 60 (C2h) n - 1
REM
REM in /home/bkarasulu/CARBON/AIRSS/Generating-Clusters/EDIP-Nigel-Params/Higher-Symm/Box-15A/Only-C60/SD-CG/FIRE-HFTN
REM
REM
REM
REM
REM
REM ./C.cell (414f73aa93bd7a1190c7fd0f31ff2f98)
REM
REM compiler GCC version 9.2.1 20190827 (Red Hat 9.2.1-1)
REM options -cpp -mtune=generic -march=x86-64 -g -O0 -fpre-include=/usr/include/finclude/math-vector-fortran.h
REM seed 1991479413 -1361738521 -1476913332 -1588723271 -1787315388 1867155157 -1321193872 251518126 1057420259 -40802789 -892396415 -2069732051 -525882836 1634867369 -332722536 -1219273663 1291731613 -1554569197 414407886 1923036905 78917233 -1669797979 -1805762219 -478200952 -990796484 -213927345 -629879188 1174343801 -1464451290 683166907 -112705462 -1575414809 150293225
REM
CELL 1.54180   50.00000   50.00000   50.00000   90.00000   90.00000   90.00000
LATT -1
SFAC C  
C      1  0.4768570000000  0.5570080000000  0.4853180000000 1.0
C      1  0.5231430000000  0.4429920000000  0.4853180000000 1.0
C      1  0.4768570000000  0.5570080000000  0.5146820000000 1.0
C      1  0.5231430000000  0.4429920000000  0.5146820000000 1.0
C      1  0.4908470000000  0.4883540000000  0.4308320000000 1.0
C      1  0.5091530000000  0.5116460000000  0.4308320000000 1.0
C      1  0.4908470000000  0.4883540000000  0.5691680000000 1.0
C      1  0.5091530000000  0.5116460000000  0.5691680000000 1.0
C      1  0.5264990000000  0.5708070000000  0.4839870000000 1.0
C      1  0.4735010000000  0.4291930000000  0.4839870000000 1.0
C      1  0.5264990000000  0.5708070000000  0.5160130000000 1.0
C      1  0.4735010000000  0.4291930000000  0.5160130000000 1.0
C      1  0.5749190000000  0.4991560000000  0.5293540000000 1.0
C      1  0.4250810000000  0.5008440000000  0.5293540000000 1.0
C      1  0.5749190000000  0.4991560000000  0.4706460000000 1.0
C      1  0.4250810000000  0.5008440000000  0.4706460000000 1.0
C      1  0.4671410000000  0.5300340000000  0.5547940000000 1.0
C      1  0.5328590000000  0.4699660000000  0.5547940000000 1.0
C      1  0.4671410000000  0.5300340000000  0.4452060000000 1.0
C      1  0.5328590000000  0.4699660000000  0.4452060000000 1.0
C      1  0.4557430000000  0.5419950000000  0.5297210000000 1.0
C      1  0.5442570000000  0.4580050000000  0.5297210000000 1.0
C      1  0.4557430000000  0.5419950000000  0.4702790000000 1.0
C      1  0.5442570000000  0.4580050000000  0.4702790000000 1.0
C      1  0.5270030000000  0.5264870000000  0.5137880000000 1.0
C      1  0.4729970000000  0.4735130000000  0.5137880000000 1.0
C      1  0.5270030000000  0.5264870000000  0.4862120000000 1.0
C      1  0.4729970000000  0.4735130000000  0.4862120000000 1.0
C      1  0.5027110000000  0.5626840000000  0.5573630000000 1.0
C      1  0.4972890000000  0.4373160000000  0.5573630000000 1.0
C      1  0.5027110000000  0.5626840000000  0.4426370000000 1.0
C      1  0.4972890000000  0.4373160000000  0.4426370000000 1.0
C      1  0.4993460000000  0.5695780000000  0.5298730000000 1.0
C      1  0.5006540000000  0.4304220000000  0.5298730000000 1.0
C      1  0.4993460000000  0.5695780000000  0.4701270000000 1.0
C      1  0.5006540000000  0.4304220000000  0.4701270000000 1.0
C      1  0.5354830000000  0.5000920000000  0.4405950000000 1.0
C      1  0.4645170000000  0.4999080000000  0.4405950000000 1.0
C      1  0.5354830000000  0.5000920000000  0.5594050000000 1.0
C      1  0.4645170000000  0.4999080000000  0.5594050000000 1.0
C      1  0.4448950000000  0.5171820000000  0.5153790000000 1.0
C      1  0.5551050000000  0.4828180000000  0.5153790000000 1.0
C      1  0.4448950000000  0.5171820000000  0.4846210000000 1.0
C      1  0.5551050000000  0.4828180000000  0.4846210000000 1.0
C      1  0.4705440000000  0.5014650000000  0.4789610000000 1.0
C      1  0.5294560000000  0.4985350000000  0.4789610000000 1.0
C      1  0.4705440000000  0.5014650000000  0.5210390000000 1.0
C      1  0.5294560000000  0.4985350000000  0.5210390000000 1.0
C      1  0.5047140000000  0.4644080000000  0.4417560000000 1.0
C      1  0.4952860000000  0.5355920000000  0.4417560000000 1.0
C      1  0.5047140000000  0.4644080000000  0.5582440000000 1.0
C      1  0.4952860000000  0.5355920000000  0.5582440000000 1.0
C      1  0.4427900000000  0.4835740000000  0.4557920000000 1.0
C      1  0.5572100000000  0.5164260000000  0.4557920000000 1.0
C      1  0.4427900000000  0.4835740000000  0.5442080000000 1.0
C      1  0.5572100000000  0.5164260000000  0.5442080000000 1.0
C      1  0.5425190000000  0.5474780000000  0.4734070000000 1.0
C      1  0.4574810000000  0.4525220000000  0.4734070000000 1.0
C      1  0.5425190000000  0.5474780000000  0.5265930000000 1.0
C      1  0.4574810000000  0.4525220000000  0.5265930000000 1.0
END
