TITL C-38191-7580-31 1.16094078537933e-06 125000 -360.828874478315 0 0 60 (D2d) n - 1
REM
REM in /home/bkarasulu/CARBON/AIRSS/Generating-Clusters/EDIP-Nigel-Params/Higher-Symm/Box-15A/Only-C60/SD-CG/FIRE-HFTN
REM
REM
REM
REM
REM
REM ./C.cell (414f73aa93bd7a1190c7fd0f31ff2f98)
REM
REM compiler GCC version 9.2.1 20190827 (Red Hat 9.2.1-1)
REM options -cpp -mtune=generic -march=x86-64 -g -O0 -fpre-include=/usr/include/finclude/math-vector-fortran.h
REM seed 2078605019 1716393568 -295696584 -2011442563 -888721156 602804399 -1106757505 -1219503207 1097467565 1570077708 -657295618 -238913945 1287748395 1345816857 -1294269950 -2000910325 1835238734 -240398094 -1657354091 -2015966430 -1711979459 -1394336570 -1325279519 352107672 -759688229 960775695 -1439019506 2030078358 837301650 533729818 413629774 -1294599043 -105953117
REM
CELL 1.54180   50.00000   50.00000   50.00000   90.00000   90.00000   90.00000
LATT -1
SFAC C  
C      1  0.5043430000000  0.5825000000000  0.5125230000000 1.0
C      1  0.5043430000000  0.4175000000000  0.4874770000000 1.0
C      1  0.4956570000000  0.4175000000000  0.5125230000000 1.0
C      1  0.4956570000000  0.5825000000000  0.4874770000000 1.0
C      1  0.5043430000000  0.5125230000000  0.5825000000000 1.0
C      1  0.5043430000000  0.4874770000000  0.4175000000000 1.0
C      1  0.4956570000000  0.5125230000000  0.4175000000000 1.0
C      1  0.4956570000000  0.4874770000000  0.5825000000000 1.0
C      1  0.5690960000000  0.5219880000000  0.5000240000000 1.0
C      1  0.5690960000000  0.4780120000000  0.4999760000000 1.0
C      1  0.4309040000000  0.4780120000000  0.5000240000000 1.0
C      1  0.4309040000000  0.5219880000000  0.4999760000000 1.0
C      1  0.5690960000000  0.5000240000000  0.5219880000000 1.0
C      1  0.5690960000000  0.4999760000000  0.4780120000000 1.0
C      1  0.4309040000000  0.5000240000000  0.4780120000000 1.0
C      1  0.4309040000000  0.4999760000000  0.5219880000000 1.0
C      1  0.4804090000000  0.4779100000000  0.4998580000000 1.0
C      1  0.4804090000000  0.5220900000000  0.5001420000000 1.0
C      1  0.5195910000000  0.5220900000000  0.4998580000000 1.0
C      1  0.5195910000000  0.4779100000000  0.5001420000000 1.0
C      1  0.4804090000000  0.4998580000000  0.4779100000000 1.0
C      1  0.4804090000000  0.5001420000000  0.5220900000000 1.0
C      1  0.5195910000000  0.4998580000000  0.5220900000000 1.0
C      1  0.5195910000000  0.5001420000000  0.4779100000000 1.0
C      1  0.5377640000000  0.5287750000000  0.5502510000000 1.0
C      1  0.5377640000000  0.4712250000000  0.4497490000000 1.0
C      1  0.4622360000000  0.4712250000000  0.5502510000000 1.0
C      1  0.4622360000000  0.5287750000000  0.4497490000000 1.0
C      1  0.5377640000000  0.5502510000000  0.5287750000000 1.0
C      1  0.5377640000000  0.4497490000000  0.4712250000000 1.0
C      1  0.4622360000000  0.5502510000000  0.4712250000000 1.0
C      1  0.4622360000000  0.4497490000000  0.5287750000000 1.0
C      1  0.5399650000000  0.4708750000000  0.5494400000000 1.0
C      1  0.5399650000000  0.5291250000000  0.4505600000000 1.0
C      1  0.4600350000000  0.5291250000000  0.5494400000000 1.0
C      1  0.4600350000000  0.4708750000000  0.4505600000000 1.0
C      1  0.5399650000000  0.5494400000000  0.4708750000000 1.0
C      1  0.5399650000000  0.4505600000000  0.5291250000000 1.0
C      1  0.4600350000000  0.5494400000000  0.5291250000000 1.0
C      1  0.4600350000000  0.4505600000000  0.4708750000000 1.0
C      1  0.5442940000000  0.4994570000000  0.5393790000000 1.0
C      1  0.5442940000000  0.5005430000000  0.4606210000000 1.0
C      1  0.4557060000000  0.5005430000000  0.5393790000000 1.0
C      1  0.4557060000000  0.4994570000000  0.4606210000000 1.0
C      1  0.5442940000000  0.5393790000000  0.4994570000000 1.0
C      1  0.5442940000000  0.4606210000000  0.5005430000000 1.0
C      1  0.4557060000000  0.5393790000000  0.5005430000000 1.0
C      1  0.4557060000000  0.4606210000000  0.4994570000000 1.0
C      1  0.5118430000000  0.5639030000000  0.5314670000000 1.0
C      1  0.5118430000000  0.4360970000000  0.4685330000000 1.0
C      1  0.4881570000000  0.4360970000000  0.5314670000000 1.0
C      1  0.4881570000000  0.5639030000000  0.4685330000000 1.0
C      1  0.5118430000000  0.5314670000000  0.5639030000000 1.0
C      1  0.5118430000000  0.4685330000000  0.4360970000000 1.0
C      1  0.4881570000000  0.5314670000000  0.4360970000000 1.0
C      1  0.4881570000000  0.4685330000000  0.5639030000000 1.0
C      1  0.5073040000000  0.4506170000000  0.5493830000000 1.0
C      1  0.5073040000000  0.5493830000000  0.4506170000000 1.0
C      1  0.4926960000000  0.4506170000000  0.4506170000000 1.0
C      1  0.4926960000000  0.5493830000000  0.5493830000000 1.0
END
