TITL C-38189-4514-104 3.86393673886284e-05 125000 -358.656114051192 0 0 60 (D4) n - 1
REM
REM in /home/bkarasulu/CARBON/AIRSS/Generating-Clusters/EDIP-Nigel-Params/Higher-Symm/Box-15A/Only-C60/SD-CG/FIRE-HFTN
REM
REM
REM
REM
REM
REM ./C.cell (414f73aa93bd7a1190c7fd0f31ff2f98)
REM
REM compiler GCC version 9.2.1 20190827 (Red Hat 9.2.1-1)
REM options -cpp -mtune=generic -march=x86-64 -g -O0 -fpre-include=/usr/include/finclude/math-vector-fortran.h
REM seed -1312366950 -1245267492 -747966262 1207223059 242091481 1125191808 -1202923049 -1159029588 1476224532 -1301544331 2122998669 1860636107 -1016294548 -1950833106 871915274 989627576 -1252556845 325678904 -1393287684 986444742 -870058414 272366405 1784110737 1295195991 -541248152 4240251 -1079271781 -2109201364 213662416 -597036485 -544161070 1155035941 257118180
REM
CELL 1.54180   50.00000   50.00000   50.00000   90.00000   90.00000   90.00000
LATT -1
SFAC C  
C      1  0.4488870000000  0.4439580000000  0.4905920000000 1.0
C      1  0.4905920000000  0.4439580000000  0.5511130000000 1.0
C      1  0.5511130000000  0.4439580000000  0.5094080000000 1.0
C      1  0.5094080000000  0.4439580000000  0.4488870000000 1.0
C      1  0.4488870000000  0.5568070000000  0.5094080000000 1.0
C      1  0.4905920000000  0.5568070000000  0.4488870000000 1.0
C      1  0.5511130000000  0.5568070000000  0.4905920000000 1.0
C      1  0.5094080000000  0.5568070000000  0.5511130000000 1.0
C      1  0.4369800000000  0.4634360000000  0.5100780000000 1.0
C      1  0.5100780000000  0.4634360000000  0.5630200000000 1.0
C      1  0.5630200000000  0.4634360000000  0.4899220000000 1.0
C      1  0.4899220000000  0.4634360000000  0.4369800000000 1.0
C      1  0.4369800000000  0.5373290000000  0.4899220000000 1.0
C      1  0.5100780000000  0.5373290000000  0.4369800000000 1.0
C      1  0.5630200000000  0.5373290000000  0.5100780000000 1.0
C      1  0.4899220000000  0.5373290000000  0.5630200000000 1.0
C      1  0.4961480000000  0.4429230000000  0.5217370000000 1.0
C      1  0.5217370000000  0.4429230000000  0.5038520000000 1.0
C      1  0.5038520000000  0.4429230000000  0.4782630000000 1.0
C      1  0.4782630000000  0.4429230000000  0.4961480000000 1.0
C      1  0.4961480000000  0.5578420000000  0.4782630000000 1.0
C      1  0.5217370000000  0.5578420000000  0.4961480000000 1.0
C      1  0.5038520000000  0.5578420000000  0.5217370000000 1.0
C      1  0.4782630000000  0.5578420000000  0.5038520000000 1.0
C      1  0.5647500000000  0.4835440000000  0.5349660000000 1.0
C      1  0.5349660000000  0.4835440000000  0.4352500000000 1.0
C      1  0.4352500000000  0.4835440000000  0.4650340000000 1.0
C      1  0.4650340000000  0.4835440000000  0.5647500000000 1.0
C      1  0.5647500000000  0.5172220000000  0.4650340000000 1.0
C      1  0.5349660000000  0.5172220000000  0.5647500000000 1.0
C      1  0.4352500000000  0.5172220000000  0.5349660000000 1.0
C      1  0.4650340000000  0.5172220000000  0.4352500000000 1.0
C      1  0.4725490000000  0.4689560000000  0.4611070000000 1.0
C      1  0.4611070000000  0.4689560000000  0.5274510000000 1.0
C      1  0.5274510000000  0.4689560000000  0.5388930000000 1.0
C      1  0.5388930000000  0.4689560000000  0.4725490000000 1.0
C      1  0.4725490000000  0.5318100000000  0.5388930000000 1.0
C      1  0.4611070000000  0.5318100000000  0.4725490000000 1.0
C      1  0.5274510000000  0.5318100000000  0.4611070000000 1.0
C      1  0.5388930000000  0.5318100000000  0.5274510000000 1.0
C      1  0.4281630000000  0.4868330000000  0.4938700000000 1.0
C      1  0.4938700000000  0.4868330000000  0.5718370000000 1.0
C      1  0.5718370000000  0.4868330000000  0.5061300000000 1.0
C      1  0.5061300000000  0.4868330000000  0.4281630000000 1.0
C      1  0.4281630000000  0.5139320000000  0.5061300000000 1.0
C      1  0.4938700000000  0.5139320000000  0.4281630000000 1.0
C      1  0.5718370000000  0.5139320000000  0.4938700000000 1.0
C      1  0.5061300000000  0.5139320000000  0.5718370000000 1.0
C      1  0.4626490000000  0.5467720000000  0.4454140000000 1.0
C      1  0.4454140000000  0.5467720000000  0.5373510000000 1.0
C      1  0.5373510000000  0.5467720000000  0.5545860000000 1.0
C      1  0.5545860000000  0.5467720000000  0.4626490000000 1.0
C      1  0.4626490000000  0.4539930000000  0.5545860000000 1.0
C      1  0.4454140000000  0.4539930000000  0.4626490000000 1.0
C      1  0.5373510000000  0.4539930000000  0.4454140000000 1.0
C      1  0.5545860000000  0.4539930000000  0.5373510000000 1.0
C      1  0.4618100000000  0.5003830000000  0.5381890000000 1.0
C      1  0.4618110000000  0.5003830000000  0.4618100000000 1.0
C      1  0.5381900000000  0.5003830000000  0.4618110000000 1.0
C      1  0.5381890000000  0.5003830000000  0.5381900000000 1.0
END
