TITL C-38185-7677-260 -2.806595330747e-05 125000 -361.167082002131 0 0 60 (S4) n - 1
REM
REM in /home/bkarasulu/CARBON/AIRSS/Generating-Clusters/EDIP-Nigel-Params/Higher-Symm/Box-15A/Only-C60/SD-CG/FIRE-HFTN
REM
REM
REM
REM
REM
REM ./C.cell (414f73aa93bd7a1190c7fd0f31ff2f98)
REM
REM compiler GCC version 9.2.1 20190827 (Red Hat 9.2.1-1)
REM options -cpp -mtune=generic -march=x86-64 -g -O0 -fpre-include=/usr/include/finclude/math-vector-fortran.h
REM seed -856430250 2082390776 -1671854861 222207640 1112952706 -1425582168 -1911461163 760088817 1172696557 -610467501 1736077912 1001084631 -377863960 1891261637 -44309687 180302395 1539904172 1337473741 -1509230434 -136131267 -1915285139 56760532 1324386557 -31222311 2047384350 645584440 1884457339 -540228852 1001697100 1175992282 -32702263 914009508 74459874
REM
CELL 1.54180   50.00000   50.00000   50.00000   90.00000   90.00000   90.00000
LATT -1
SFAC C  
C      1  0.5530560000000  0.4803090000000  0.5307870000000 1.0
C      1  0.4469440000000  0.4692130000000  0.4803090000000 1.0
C      1  0.5530560000000  0.5196910000000  0.4692130000000 1.0
C      1  0.4469440000000  0.5307870000000  0.5196910000000 1.0
C      1  0.5158450000000  0.4234650000000  0.4600490000000 1.0
C      1  0.4841550000000  0.5399510000000  0.4234650000000 1.0
C      1  0.5158450000000  0.5765350000000  0.5399510000000 1.0
C      1  0.4841550000000  0.4600490000000  0.5765350000000 1.0
C      1  0.4778600000000  0.5637990000000  0.5066320000000 1.0
C      1  0.5221400000000  0.4933680000000  0.5637990000000 1.0
C      1  0.4778600000000  0.4362010000000  0.4933680000000 1.0
C      1  0.5221400000000  0.5066320000000  0.4362010000000 1.0
C      1  0.5058960000000  0.4784330000000  0.4734090000000 1.0
C      1  0.4941040000000  0.5265910000000  0.4784330000000 1.0
C      1  0.5058960000000  0.5215670000000  0.5265910000000 1.0
C      1  0.4941040000000  0.4734090000000  0.5215670000000 1.0
C      1  0.5359400000000  0.4246980000000  0.5330360000000 1.0
C      1  0.4640600000000  0.4669640000000  0.4246980000000 1.0
C      1  0.5359400000000  0.5753020000000  0.4669640000000 1.0
C      1  0.4640600000000  0.5330360000000  0.5753020000000 1.0
C      1  0.5361980000000  0.5288010000000  0.4486090000000 1.0
C      1  0.4638020000000  0.5513910000000  0.5288010000000 1.0
C      1  0.5361980000000  0.4711990000000  0.5513910000000 1.0
C      1  0.4638020000000  0.4486090000000  0.4711990000000 1.0
C      1  0.5149980000000  0.5595600000000  0.4990890000000 1.0
C      1  0.4850020000000  0.5009110000000  0.5595600000000 1.0
C      1  0.5149980000000  0.4404400000000  0.5009110000000 1.0
C      1  0.4850020000000  0.4990890000000  0.4404400000000 1.0
C      1  0.5424300000000  0.5868420000000  0.4919370000000 1.0
C      1  0.4575700000000  0.5080630000000  0.5868420000000 1.0
C      1  0.5424300000000  0.4131580000000  0.5080630000000 1.0
C      1  0.4575700000000  0.4919370000000  0.4131580000000 1.0
C      1  0.4756540000000  0.4491480000000  0.5195030000000 1.0
C      1  0.5243460000000  0.4804970000000  0.4491480000000 1.0
C      1  0.4756540000000  0.5508520000000  0.4804970000000 1.0
C      1  0.5243460000000  0.5195030000000  0.5508520000000 1.0
C      1  0.4666540000000  0.5177980000000  0.4252000000000 1.0
C      1  0.5333460000000  0.5748000000000  0.5177980000000 1.0
C      1  0.4666540000000  0.4822020000000  0.5748000000000 1.0
C      1  0.5333460000000  0.4252000000000  0.4822020000000 1.0
C      1  0.4953120000000  0.5587500000000  0.4414120000000 1.0
C      1  0.5046880000000  0.5585880000000  0.5587500000000 1.0
C      1  0.4953120000000  0.4412500000000  0.5585880000000 1.0
C      1  0.5046880000000  0.4414120000000  0.4412500000000 1.0
C      1  0.4835920000000  0.4999580000000  0.5285240000000 1.0
C      1  0.5164080000000  0.4714760000000  0.4999580000000 1.0
C      1  0.4835920000000  0.5000420000000  0.4714760000000 1.0
C      1  0.5164080000000  0.5285240000000  0.5000420000000 1.0
C      1  0.5211920000000  0.4466140000000  0.5444180000000 1.0
C      1  0.4788080000000  0.4555820000000  0.4466140000000 1.0
C      1  0.5211920000000  0.5533860000000  0.4555820000000 1.0
C      1  0.4788080000000  0.5444180000000  0.5533860000000 1.0
C      1  0.4758320000000  0.5691400000000  0.4587970000000 1.0
C      1  0.5241680000000  0.5412030000000  0.5691400000000 1.0
C      1  0.4758320000000  0.4308600000000  0.5412030000000 1.0
C      1  0.5241680000000  0.4587970000000  0.4308600000000 1.0
C      1  0.4565760000000  0.4951430000000  0.4856670000000 1.0
C      1  0.5434240000000  0.5143330000000  0.4951430000000 1.0
C      1  0.4565760000000  0.5048570000000  0.5143330000000 1.0
C      1  0.5434240000000  0.4856670000000  0.5048570000000 1.0
END
