TITL C-38196-2854-440 1.41304122050314e-05 125000 -366.264116756474 0 0 60 (C1) n - 1
REM
REM in /home/bkarasulu/CARBON/AIRSS/Generating-Clusters/EDIP-Nigel-Params/Higher-Symm/Box-15A/Only-C60/SD-CG/FIRE-HFTN
REM
REM
REM
REM
REM
REM ./C.cell (414f73aa93bd7a1190c7fd0f31ff2f98)
REM
REM compiler GCC version 9.2.1 20190827 (Red Hat 9.2.1-1)
REM options -cpp -mtune=generic -march=x86-64 -g -O0 -fpre-include=/usr/include/finclude/math-vector-fortran.h
REM seed 1395656532 1086658895 160555387 787707485 1219563255 -1736646404 -1586669784 -414493438 -588179161 -1960204462 -864754907 -1651104636 948739215 -2034539340 -663897428 -229778658 396569076 -686253572 658818583 363031750 -660386068 -171701295 1833566480 -1434583646 936578744 1343330454 1714506190 331114796 -1278863894 -1937634147 1852571697 830395614 -1292067
REM
CELL 1.54180   50.00000   50.00000   50.00000   90.00000   90.00000   90.00000
LATT -1
SFAC C  
C      1  0.4869720000000  0.5665450000000  0.4820600000000 1.0
C      1  0.4431970000000  0.4484040000000  0.4469090000000 1.0
C      1  0.5240220000000  0.5198040000000  0.4610110000000 1.0
C      1  0.4355130000000  0.4853740000000  0.5136660000000 1.0
C      1  0.5098420000000  0.5641150000000  0.4653450000000 1.0
C      1  0.5573330000000  0.4793560000000  0.4678230000000 1.0
C      1  0.4852630000000  0.4460160000000  0.5445400000000 1.0
C      1  0.5086990000000  0.4336650000000  0.4969060000000 1.0
C      1  0.4692750000000  0.5158440000000  0.4254580000000 1.0
C      1  0.4369510000000  0.5149220000000  0.5132970000000 1.0
C      1  0.5203080000000  0.5642910000000  0.5356840000000 1.0
C      1  0.5325270000000  0.5221600000000  0.5599780000000 1.0
C      1  0.5245570000000  0.4720270000000  0.5559680000000 1.0
C      1  0.4740660000000  0.4926980000000  0.4409610000000 1.0
C      1  0.5705800000000  0.4943590000000  0.4907590000000 1.0
C      1  0.5217370000000  0.4986570000000  0.5199730000000 1.0
C      1  0.4507440000000  0.4406860000000  0.5081200000000 1.0
C      1  0.4748550000000  0.4721370000000  0.4802530000000 1.0
C      1  0.4336940000000  0.5310210000000  0.4887960000000 1.0
C      1  0.5106350000000  0.5419440000000  0.4436900000000 1.0
C      1  0.4461890000000  0.4655220000000  0.4926600000000 1.0
C      1  0.4881190000000  0.4672340000000  0.4390000000000 1.0
C      1  0.5275390000000  0.5478900000000  0.5109500000000 1.0
C      1  0.5020350000000  0.5165840000000  0.4821600000000 1.0
C      1  0.4523400000000  0.5164290000000  0.4716320000000 1.0
C      1  0.5511970000000  0.4535970000000  0.5079470000000 1.0
C      1  0.4344060000000  0.4699150000000  0.4628050000000 1.0
C      1  0.4753270000000  0.5027410000000  0.4866450000000 1.0
C      1  0.4453410000000  0.4766770000000  0.5399180000000 1.0
C      1  0.4688940000000  0.5612960000000  0.5028260000000 1.0
C      1  0.4870700000000  0.5364850000000  0.4293150000000 1.0
C      1  0.5822620000000  0.5153480000000  0.5389400000000 1.0
C      1  0.5668890000000  0.4916010000000  0.5397340000000 1.0
C      1  0.4511110000000  0.5278340000000  0.5359640000000 1.0
C      1  0.5370720000000  0.4960300000000  0.5450710000000 1.0
C      1  0.4765420000000  0.5413790000000  0.5242600000000 1.0
C      1  0.4707390000000  0.4479960000000  0.4516280000000 1.0
C      1  0.4773610000000  0.4975600000000  0.5197700000000 1.0
C      1  0.5340870000000  0.5602620000000  0.4828100000000 1.0
C      1  0.5708150000000  0.4757170000000  0.5147130000000 1.0
C      1  0.5473910000000  0.5349220000000  0.4740790000000 1.0
C      1  0.5593990000000  0.5208340000000  0.4970870000000 1.0
C      1  0.5003040000000  0.4629890000000  0.4942940000000 1.0
C      1  0.5142610000000  0.4675160000000  0.4527740000000 1.0
C      1  0.5509670000000  0.4520390000000  0.4784950000000 1.0
C      1  0.4954620000000  0.5510250000000  0.5460790000000 1.0
C      1  0.4871360000000  0.5032360000000  0.5567890000000 1.0
C      1  0.5332600000000  0.4906470000000  0.4525850000000 1.0
C      1  0.4577680000000  0.5033590000000  0.5533320000000 1.0
C      1  0.4423540000000  0.5573360000000  0.4943990000000 1.0
C      1  0.5140440000000  0.4470060000000  0.5460610000000 1.0
C      1  0.5090080000000  0.5242570000000  0.5096350000000 1.0
C      1  0.5012490000000  0.4777240000000  0.5209990000000 1.0
C      1  0.5033100000000  0.5268990000000  0.5621840000000 1.0
C      1  0.5278450000000  0.4376520000000  0.5200260000000 1.0
C      1  0.5662130000000  0.5331550000000  0.5240230000000 1.0
C      1  0.5454480000000  0.5453400000000  0.5449390000000 1.0
C      1  0.4597250000000  0.4513400000000  0.5332590000000 1.0
C      1  0.5239430000000  0.4436250000000  0.4695360000000 1.0
C      1  0.4448070000000  0.4969780000000  0.4494810000000 1.0
END
