TITL C-38186-4112-531 8.547923852164e-09 125000 -362.406257473667 0 0 60 (C1) n - 1
REM
REM in /home/bkarasulu/CARBON/AIRSS/Generating-Clusters/EDIP-Nigel-Params/Higher-Symm/Box-15A/Only-C60/SD-CG/FIRE-HFTN
REM
REM
REM
REM
REM
REM ./C.cell (414f73aa93bd7a1190c7fd0f31ff2f98)
REM
REM compiler GCC version 9.2.1 20190827 (Red Hat 9.2.1-1)
REM options -cpp -mtune=generic -march=x86-64 -g -O0 -fpre-include=/usr/include/finclude/math-vector-fortran.h
REM seed 1994005026 752837863 436146369 1993499072 681943826 957695858 -468076145 1433653219 1102701893 -1832533436 -9478088 -1389860894 1701528155 -222568828 446438358 799338760 593127716 -1736150080 -1372192819 -1092191823 -1863928382 890344465 -1124248248 1929880937 499734588 69109167 1737135280 -306155218 -1200700680 750886824 -1952913001 1090903718 -262800854
REM
CELL 1.54180   50.00000   50.00000   50.00000   90.00000   90.00000   90.00000
LATT -1
SFAC C  
C      1  0.4320010000000  0.5114340000000  0.5257140000000 1.0
C      1  0.4766520000000  0.4246120000000  0.5072850000000 1.0
C      1  0.5102190000000  0.4880050000000  0.5175570000000 1.0
C      1  0.5682040000000  0.5258310000000  0.4784120000000 1.0
C      1  0.4114800000000  0.5156020000000  0.5067500000000 1.0
C      1  0.4771360000000  0.5536280000000  0.4533900000000 1.0
C      1  0.5567670000000  0.5440910000000  0.5224270000000 1.0
C      1  0.4277960000000  0.4698720000000  0.5034040000000 1.0
C      1  0.4692240000000  0.5676380000000  0.4949330000000 1.0
C      1  0.4987700000000  0.4493820000000  0.5448590000000 1.0
C      1  0.4558570000000  0.5614470000000  0.4706640000000 1.0
C      1  0.5677190000000  0.4823940000000  0.5786220000000 1.0
C      1  0.4473830000000  0.4879600000000  0.4549480000000 1.0
C      1  0.4893320000000  0.5473540000000  0.5545650000000 1.0
C      1  0.5234290000000  0.5297580000000  0.4337410000000 1.0
C      1  0.4722570000000  0.5110470000000  0.4959770000000 1.0
C      1  0.5394340000000  0.4817240000000  0.5776000000000 1.0
C      1  0.4368880000000  0.4827800000000  0.5285830000000 1.0
C      1  0.5507990000000  0.5497870000000  0.4738550000000 1.0
C      1  0.5237020000000  0.4210440000000  0.5140440000000 1.0
C      1  0.5452930000000  0.5613850000000  0.5013290000000 1.0
C      1  0.4724590000000  0.5659660000000  0.5422280000000 1.0
C      1  0.5243550000000  0.5392890000000  0.4616510000000 1.0
C      1  0.5385620000000  0.5333280000000  0.5436750000000 1.0
C      1  0.5559700000000  0.4690070000000  0.5583830000000 1.0
C      1  0.4595670000000  0.5120930000000  0.4670420000000 1.0
C      1  0.4235730000000  0.4994910000000  0.4634140000000 1.0
C      1  0.5238180000000  0.4433950000000  0.4488810000000 1.0
C      1  0.5010180000000  0.5114640000000  0.4362350000000 1.0
C      1  0.4985430000000  0.5669000000000  0.4927110000000 1.0
C      1  0.4886180000000  0.4594040000000  0.4473190000000 1.0
C      1  0.4636000000000  0.4768560000000  0.5328400000000 1.0
C      1  0.5477720000000  0.5010610000000  0.4800750000000 1.0
C      1  0.5053770000000  0.4837650000000  0.4463370000000 1.0
C      1  0.5312020000000  0.4707890000000  0.4433700000000 1.0
C      1  0.4585490000000  0.5555540000000  0.5198690000000 1.0
C      1  0.5168290000000  0.5498030000000  0.5511410000000 1.0
C      1  0.5197240000000  0.5126570000000  0.4765010000000 1.0
C      1  0.5643950000000  0.4539160000000  0.4717660000000 1.0
C      1  0.5573770000000  0.4968840000000  0.5102230000000 1.0
C      1  0.4996260000000  0.4294770000000  0.5249560000000 1.0
C      1  0.4594120000000  0.5241030000000  0.5214650000000 1.0
C      1  0.5730970000000  0.5230440000000  0.5090510000000 1.0
C      1  0.5246320000000  0.5021570000000  0.5628140000000 1.0
C      1  0.5438590000000  0.4350150000000  0.4680540000000 1.0
C      1  0.4760260000000  0.5251570000000  0.4455560000000 1.0
C      1  0.5029980000000  0.5597760000000  0.4655990000000 1.0
C      1  0.5353510000000  0.4967290000000  0.5313740000000 1.0
C      1  0.4836060000000  0.4218640000000  0.4795350000000 1.0
C      1  0.4522370000000  0.4403900000000  0.5098830000000 1.0
C      1  0.4137720000000  0.4933530000000  0.4894980000000 1.0
C      1  0.4740890000000  0.4464720000000  0.4689370000000 1.0
C      1  0.4522290000000  0.4568740000000  0.4860810000000 1.0
C      1  0.5535290000000  0.4778030000000  0.4613890000000 1.0
C      1  0.5363270000000  0.4204900000000  0.4904300000000 1.0
C      1  0.4914180000000  0.4767630000000  0.5387000000000 1.0
C      1  0.5012210000000  0.5082980000000  0.4988810000000 1.0
C      1  0.5211510000000  0.5754530000000  0.5068600000000 1.0
C      1  0.4789010000000  0.5208740000000  0.5487630000000 1.0
C      1  0.4948720000000  0.4975120000000  0.5598550000000 1.0
END
