TITL C-38192-7909-457 6.89522632732129e-07 125000 -368.607090458684 0 0 60 (C5) n - 1
REM
REM in /home/bkarasulu/CARBON/AIRSS/Generating-Clusters/EDIP-Nigel-Params/Higher-Symm/Box-15A/Only-C60/SD-CG/FIRE-HFTN
REM
REM
REM
REM
REM
REM ./C.cell (414f73aa93bd7a1190c7fd0f31ff2f98)
REM
REM compiler GCC version 9.2.1 20190827 (Red Hat 9.2.1-1)
REM options -cpp -mtune=generic -march=x86-64 -g -O0 -fpre-include=/usr/include/finclude/math-vector-fortran.h
REM seed -553298910 -1423223893 -2038094399 -194999172 472288694 -537325463 256532527 892484270 -466792269 1727368171 -1755393875 633121824 -229369763 -1855311839 1542922647 1691737258 -1761991226 -268328360 1636428233 1154125421 1322600590 418713389 1687619494 1116259951 -428597040 -861085137 -436190719 609187235 -154659641 473804827 -1466934306 -1003343533 1477821319
REM
CELL 1.54180   50.00000   50.00000   50.00000   90.00000   90.00000   90.00000
LATT -1
SFAC C  
C      1  0.5536220000000  0.5312710000000  0.4630560000000 1.0
C      1  0.5463110000000  0.4586660000000  0.4630570000000 1.0
C      1  0.4750000000000  0.4431830000000  0.4630570000000 1.0
C      1  0.4382380000000  0.5062190000000  0.4630560000000 1.0
C      1  0.4868300000000  0.5606610000000  0.4630560000000 1.0
C      1  0.5135730000000  0.5419390000000  0.5484650000000 1.0
C      1  0.5440810000000  0.5000510000000  0.5484650000000 1.0
C      1  0.5136700000000  0.4580930000000  0.5484650000000 1.0
C      1  0.4643680000000  0.4740490000000  0.5484650000000 1.0
C      1  0.4643080000000  0.5258690000000  0.5484650000000 1.0
C      1  0.4778290000000  0.5122030000000  0.4924430000000 1.0
C      1  0.5047550000000  0.5248560000000  0.4924430000000 1.0
C      1  0.5251090000000  0.5031590000000  0.4924430000000 1.0
C      1  0.5107630000000  0.4770960000000  0.4924430000000 1.0
C      1  0.4815430000000  0.4826860000000  0.4924430000000 1.0
C      1  0.5480070000000  0.4849790000000  0.4537200000000 1.0
C      1  0.5005490000000  0.4497010000000  0.4537200000000 1.0
C      1  0.4523320000000  0.4839350000000  0.4537200000000 1.0
C      1  0.4699910000000  0.5403700000000  0.4537200000000 1.0
C      1  0.5291210000000  0.5410160000000  0.4537200000000 1.0
C      1  0.4616120000000  0.4655510000000  0.4758410000000 1.0
C      1  0.4553740000000  0.5258630000000  0.4758410000000 1.0
C      1  0.5108070000000  0.5504340000000  0.4758410000000 1.0
C      1  0.5513050000000  0.5053060000000  0.4758410000000 1.0
C      1  0.5209010000000  0.4528460000000  0.4758410000000 1.0
C      1  0.4425370000000  0.5417620000000  0.5365840000000 1.0
C      1  0.5219610000000  0.5675560000000  0.5365840000000 1.0
C      1  0.5710360000000  0.4999900000000  0.5365840000000 1.0
C      1  0.5219420000000  0.4324380000000  0.5365840000000 1.0
C      1  0.4425250000000  0.4582540000000  0.5365840000000 1.0
C      1  0.5027640000000  0.5804010000000  0.5155560000000 1.0
C      1  0.5773200000000  0.5222170000000  0.5155560000000 1.0
C      1  0.5450220000000  0.4333300000000  0.5155560000000 1.0
C      1  0.4505050000000  0.4365790000000  0.5155560000000 1.0
C      1  0.4243880000000  0.5274740000000  0.5155560000000 1.0
C      1  0.5003740000000  0.4742410000000  0.4364400000000 1.0
C      1  0.4756180000000  0.4916840000000  0.4364400000000 1.0
C      1  0.4845570000000  0.5206190000000  0.4364400000000 1.0
C      1  0.5148380000000  0.5210590000000  0.4364400000000 1.0
C      1  0.5246140000000  0.4923960000000  0.4364400000000 1.0
C      1  0.5331780000000  0.5241600000000  0.5569820000000 1.0
C      1  0.5332300000000  0.4759120000000  0.5569820000000 1.0
C      1  0.4873590000000  0.4609530000000  0.5569820000000 1.0
C      1  0.4589580000000  0.4999560000000  0.5569820000000 1.0
C      1  0.4872750000000  0.5390200000000  0.5569820000000 1.0
C      1  0.4509530000000  0.5627270000000  0.5149520000000 1.0
C      1  0.5445000000000  0.5660310000000  0.5149520000000 1.0
C      1  0.5765500000000  0.4780820000000  0.5149520000000 1.0
C      1  0.5028100000000  0.4204230000000  0.5149520000000 1.0
C      1  0.4251870000000  0.4727370000000  0.5149520000000 1.0
C      1  0.4782970000000  0.5674390000000  0.5130060000000 1.0
C      1  0.5574320000000  0.5414810000000  0.5130060000000 1.0
C      1  0.5571980000000  0.4581980000000  0.5130060000000 1.0
C      1  0.4779190000000  0.4326840000000  0.5130060000000 1.0
C      1  0.4291550000000  0.5001990000000  0.5130060000000 1.0
C      1  0.5767370000000  0.5007510000000  0.4929530000000 1.0
C      1  0.5244270000000  0.4272500000000  0.4929540000000 1.0
C      1  0.4383590000000  0.4542870000000  0.4929540000000 1.0
C      1  0.4374770000000  0.5444980000000  0.4929530000000 1.0
C      1  0.5229990000000  0.5732140000000  0.4929530000000 1.0
END
