TITL C-38195-9455-245 3.41006656011245e-07 125000 -369.129720470623 0 0 60 (C2) n - 1
REM
REM in /home/bkarasulu/CARBON/AIRSS/Generating-Clusters/EDIP-Nigel-Params/Higher-Symm/Box-15A/Only-C60/SD-CG/FIRE-HFTN
REM
REM
REM
REM
REM
REM ./C.cell (414f73aa93bd7a1190c7fd0f31ff2f98)
REM
REM compiler GCC version 9.2.1 20190827 (Red Hat 9.2.1-1)
REM options -cpp -mtune=generic -march=x86-64 -g -O0 -fpre-include=/usr/include/finclude/math-vector-fortran.h
REM seed -151059091 2126583791 -1026889722 -366214465 1653898115 -2074385505 1928395517 -798067526 1930980228 -111371510 1131344571 -617955215 1171194474 -1824397533 -1833141640 1474370295 -1137495613 -955970292 -665423887 -1451498876 -629870211 -97884271 -286875004 1099606421 -987811338 598005577 -1617270306 -1121545642 1833212375 1875786844 1329535789 500690435 1689112953
REM
CELL 1.54180   50.00000   50.00000   50.00000   90.00000   90.00000   90.00000
LATT -1
SFAC C  
C      1  0.4332270000000  0.5290870000000  0.5193310000000 1.0
C      1  0.5667730000000  0.4709130000000  0.5193310000000 1.0
C      1  0.5131390000000  0.4284230000000  0.4996820000000 1.0
C      1  0.4868610000000  0.5715770000000  0.4996820000000 1.0
C      1  0.4850300000000  0.5032230000000  0.5339150000000 1.0
C      1  0.5149700000000  0.4967770000000  0.5339150000000 1.0
C      1  0.5255000000000  0.4951030000000  0.5048240000000 1.0
C      1  0.4745000000000  0.5048970000000  0.5048240000000 1.0
C      1  0.5253620000000  0.5420070000000  0.5356100000000 1.0
C      1  0.4746380000000  0.4579930000000  0.5356100000000 1.0
C      1  0.4962160000000  0.5473860000000  0.5286700000000 1.0
C      1  0.5037840000000  0.4526140000000  0.5286700000000 1.0
C      1  0.4285450000000  0.4993740000000  0.5292510000000 1.0
C      1  0.5714550000000  0.5006260000000  0.5292510000000 1.0
C      1  0.5551860000000  0.5034340000000  0.5556180000000 1.0
C      1  0.4448140000000  0.4965660000000  0.5556180000000 1.0
C      1  0.5322350000000  0.4807920000000  0.4493670000000 1.0
C      1  0.4677650000000  0.5192080000000  0.4493670000000 1.0
C      1  0.4509560000000  0.4349210000000  0.4850910000000 1.0
C      1  0.5490440000000  0.5650790000000  0.4850910000000 1.0
C      1  0.5094990000000  0.5102160000000  0.5762940000000 1.0
C      1  0.4905010000000  0.4897840000000  0.5762940000000 1.0
C      1  0.5165030000000  0.5316710000000  0.4604490000000 1.0
C      1  0.4834970000000  0.4683290000000  0.4604490000000 1.0
C      1  0.5386120000000  0.4605180000000  0.4697870000000 1.0
C      1  0.4613880000000  0.5394820000000  0.4697870000000 1.0
C      1  0.4966360000000  0.5141270000000  0.4455980000000 1.0
C      1  0.5033640000000  0.4858730000000  0.4455980000000 1.0
C      1  0.5384590000000  0.5380020000000  0.5081670000000 1.0
C      1  0.4615410000000  0.4619980000000  0.5081670000000 1.0
C      1  0.4723100000000  0.4837110000000  0.5530060000000 1.0
C      1  0.5276900000000  0.5162890000000  0.5530060000000 1.0
C      1  0.4377900000000  0.4799660000000  0.5080690000000 1.0
C      1  0.5622100000000  0.5200340000000  0.5080690000000 1.0
C      1  0.4474370000000  0.5308260000000  0.4940630000000 1.0
C      1  0.5525630000000  0.4691740000000  0.4940630000000 1.0
C      1  0.4218020000000  0.4747770000000  0.4856080000000 1.0
C      1  0.5781980000000  0.5252230000000  0.4856080000000 1.0
C      1  0.5176490000000  0.5231660000000  0.4910330000000 1.0
C      1  0.4823510000000  0.4768340000000  0.4910330000000 1.0
C      1  0.4910530000000  0.4104980000000  0.4974190000000 1.0
C      1  0.5089470000000  0.5895020000000  0.4974190000000 1.0
C      1  0.4798670000000  0.5627380000000  0.4720560000000 1.0
C      1  0.5201330000000  0.4372620000000  0.4720560000000 1.0
C      1  0.4556380000000  0.4710580000000  0.4510330000000 1.0
C      1  0.5443620000000  0.5289420000000  0.4510330000000 1.0
C      1  0.5086010000000  0.4673730000000  0.5009970000000 1.0
C      1  0.4913990000000  0.5326270000000  0.5009970000000 1.0
C      1  0.5621710000000  0.5428880000000  0.4700360000000 1.0
C      1  0.4378290000000  0.4571120000000  0.4700360000000 1.0
C      1  0.4484390000000  0.5276010000000  0.5476220000000 1.0
C      1  0.5515610000000  0.4723990000000  0.5476220000000 1.0
C      1  0.4789850000000  0.5299610000000  0.5455870000000 1.0
C      1  0.5210150000000  0.4700390000000  0.5455870000000 1.0
C      1  0.5501320000000  0.5022220000000  0.4455180000000 1.0
C      1  0.4498680000000  0.4977780000000  0.4455180000000 1.0
C      1  0.4758700000000  0.4223090000000  0.4765290000000 1.0
C      1  0.5241300000000  0.5776910000000  0.4765290000000 1.0
C      1  0.5068810000000  0.5601830000000  0.4597700000000 1.0
C      1  0.4931190000000  0.4398170000000  0.4597700000000 1.0
END
