TITL C-38193-7935-427 -0.000116594490861876 125000 -368.668473156648 0 0 60 (C3i) n - 1
REM
REM in /home/bkarasulu/CARBON/AIRSS/Generating-Clusters/EDIP-Nigel-Params/Higher-Symm/Box-15A/Only-C60/SD-CG/FIRE-HFTN
REM
REM
REM
REM
REM
REM ./C.cell (414f73aa93bd7a1190c7fd0f31ff2f98)
REM
REM compiler GCC version 9.2.1 20190827 (Red Hat 9.2.1-1)
REM options -cpp -mtune=generic -march=x86-64 -g -O0 -fpre-include=/usr/include/finclude/math-vector-fortran.h
REM seed -898311393 -962602333 -1204748509 -1211622118 1208126028 -597673349 214119992 37741095 1566496760 -1695867371 -946807098 -40119510 1078167332 786796851 1498318185 -355050005 1854339194 1660059222 -1586792155 -1203989164 762306996 -1399404205 -138081789 546187051 2125699384 -1748326661 -767609108 166427150 -1029894215 2123357037 -852817108 -1188329289 1586857324
REM
CELL 1.54180   50.00000   50.00000   50.00000   90.00000   90.00000   90.00000
LATT -1
SFAC C  
C      1  0.5510430000000  0.4740620000000  0.5116800000000 1.0
C      1  0.5030580000000  0.4428270000000  0.4883200000000 1.0
C      1  0.4520150000000  0.4687650000000  0.5116800000000 1.0
C      1  0.4489570000000  0.5259380000000  0.4883200000000 1.0
C      1  0.4969420000000  0.5571730000000  0.5116800000000 1.0
C      1  0.5479850000000  0.5312350000000  0.4883200000000 1.0
C      1  0.5184350000000  0.5654950000000  0.5285940000000 1.0
C      1  0.5659380000000  0.5167820000000  0.4714060000000 1.0
C      1  0.5475030000000  0.4512870000000  0.5285940000000 1.0
C      1  0.4815650000000  0.4345050000000  0.4714060000000 1.0
C      1  0.4340620000000  0.4832180000000  0.5285940000000 1.0
C      1  0.4524970000000  0.5487130000000  0.4714060000000 1.0
C      1  0.4399990000000  0.4691750000000  0.4481440000000 1.0
C      1  0.4433040000000  0.5365500000000  0.5518560000000 1.0
C      1  0.5033050000000  0.5673750000000  0.4481440000000 1.0
C      1  0.5600010000000  0.5308250000000  0.5518560000000 1.0
C      1  0.5566960000000  0.4634500000000  0.4481440000000 1.0
C      1  0.4966950000000  0.4326250000000  0.5518560000000 1.0
C      1  0.5500230000000  0.5118260000000  0.4484170000000 1.0
C      1  0.5352530000000  0.4625920000000  0.5515830000000 1.0
C      1  0.4852300000000  0.4507660000000  0.4484170000000 1.0
C      1  0.4499770000000  0.4881740000000  0.5515830000000 1.0
C      1  0.4647470000000  0.5374080000000  0.4484170000000 1.0
C      1  0.5147700000000  0.5492340000000  0.5515830000000 1.0
C      1  0.5111330000000  0.4537980000000  0.5643530000000 1.0
C      1  0.4655550000000  0.4672570000000  0.4356470000000 1.0
C      1  0.4544210000000  0.5134590000000  0.5643530000000 1.0
C      1  0.4888670000000  0.5462020000000  0.4356470000000 1.0
C      1  0.5344450000000  0.5327430000000  0.5643530000000 1.0
C      1  0.5455790000000  0.4865410000000  0.4356470000000 1.0
C      1  0.4985350000000  0.5293530000000  0.5012180000000 1.0
C      1  0.5246880000000  0.5159450000000  0.4987820000000 1.0
C      1  0.5261530000000  0.4865920000000  0.5012180000000 1.0
C      1  0.5014650000000  0.4706470000000  0.4987820000000 1.0
C      1  0.4753120000000  0.4840550000000  0.5012180000000 1.0
C      1  0.4738470000000  0.5134080000000  0.4987820000000 1.0
C      1  0.5417600000000  0.5571480000000  0.4783730000000 1.0
C      1  0.5703710000000  0.4924090000000  0.5216270000000 1.0
C      1  0.5286120000000  0.4352610000000  0.4783730000000 1.0
C      1  0.4582400000000  0.4428520000000  0.5216270000000 1.0
C      1  0.4296290000000  0.5075910000000  0.4783730000000 1.0
C      1  0.4713880000000  0.5647390000000  0.5216270000000 1.0
C      1  0.4699930000000  0.4696200000000  0.5598400000000 1.0
C      1  0.4586870000000  0.5107970000000  0.4401600000000 1.0
C      1  0.4886940000000  0.5411770000000  0.5598400000000 1.0
C      1  0.5300070000000  0.5303800000000  0.4401600000000 1.0
C      1  0.5413130000000  0.4892030000000  0.5598400000000 1.0
C      1  0.5113060000000  0.4588230000000  0.4401600000000 1.0
C      1  0.5165940000000  0.4844920000000  0.4260340000000 1.0
C      1  0.4948670000000  0.4778750000000  0.5739660000000 1.0
C      1  0.4782730000000  0.4933830000000  0.4260340000000 1.0
C      1  0.4834060000000  0.5155080000000  0.5739660000000 1.0
C      1  0.5051330000000  0.5221250000000  0.4260340000000 1.0
C      1  0.5217270000000  0.5066170000000  0.5739660000000 1.0
C      1  0.4377690000000  0.4966300000000  0.4537000000000 1.0
C      1  0.4659660000000  0.5522080000000  0.5462990000000 1.0
C      1  0.5281970000000  0.5555790000000  0.4537010000000 1.0
C      1  0.5622310000000  0.5033700000000  0.5463000000000 1.0
C      1  0.5340340000000  0.4477920000000  0.4537010000000 1.0
C      1  0.4718030000000  0.4444210000000  0.5462990000000 1.0
END
