TITL C-38194-9318-299 0.000237745990067851 125000 -365.806740322986 0 0 60 (Ci) n - 1
REM
REM in /home/bkarasulu/CARBON/AIRSS/Generating-Clusters/EDIP-Nigel-Params/Higher-Symm/Box-15A/Only-C60/SD-CG/FIRE-HFTN
REM
REM
REM
REM
REM
REM ./C.cell (414f73aa93bd7a1190c7fd0f31ff2f98)
REM
REM compiler GCC version 9.2.1 20190827 (Red Hat 9.2.1-1)
REM options -cpp -mtune=generic -march=x86-64 -g -O0 -fpre-include=/usr/include/finclude/math-vector-fortran.h
REM seed 1175368421 -1966293386 2070381463 225255635 1350359571 191106971 179101363 1733906857 -254895150 408013120 374419558 -450252302 1618085917 818684248 -1754982237 1551214999 2132976244 1435637854 -80177196 -1210291171 -1093962920 -1064081996 -425794647 960303507 -129819008 -69101414 1583972734 -1335170911 -1199709110 380969744 1346304083 -1717035309 115174122
REM
CELL 1.54180   50.00000   50.00000   50.00000   90.00000   90.00000   90.00000
LATT -1
SFAC C  
C      1  0.5681490000000  0.4666670000000  0.5081120000000 1.0
C      1  0.4318510000000  0.5333330000000  0.4918880000000 1.0
C      1  0.5569200000000  0.4924670000000  0.5090350000000 1.0
C      1  0.4430800000000  0.5075330000000  0.4909650000000 1.0
C      1  0.5596720000000  0.5359130000000  0.5037020000000 1.0
C      1  0.4403280000000  0.4640870000000  0.4962980000000 1.0
C      1  0.4842560000000  0.4417610000000  0.5015730000000 1.0
C      1  0.5157440000000  0.5582390000000  0.4984270000000 1.0
C      1  0.5333560000000  0.5429150000000  0.5173160000000 1.0
C      1  0.4666440000000  0.4570850000000  0.4826840000000 1.0
C      1  0.4465910000000  0.4867900000000  0.5542860000000 1.0
C      1  0.5534090000000  0.5132100000000  0.4457140000000 1.0
C      1  0.5538190000000  0.5116400000000  0.4846340000000 1.0
C      1  0.4461810000000  0.4883600000000  0.5153660000000 1.0
C      1  0.5081600000000  0.5164790000000  0.4332590000000 1.0
C      1  0.4918400000000  0.4835210000000  0.5667410000000 1.0
C      1  0.5254500000000  0.5447250000000  0.5638680000000 1.0
C      1  0.4745500000000  0.4552750000000  0.4361320000000 1.0
C      1  0.5327270000000  0.4954850000000  0.5884780000000 1.0
C      1  0.4672730000000  0.5045150000000  0.4115220000000 1.0
C      1  0.4683730000000  0.4669310000000  0.5606760000000 1.0
C      1  0.5316270000000  0.5330690000000  0.4393240000000 1.0
C      1  0.4384600000000  0.5454120000000  0.5162370000000 1.0
C      1  0.5615400000000  0.4545880000000  0.4837630000000 1.0
C      1  0.4504340000000  0.5323110000000  0.4449730000000 1.0
C      1  0.5495660000000  0.4676890000000  0.5550270000000 1.0
C      1  0.5156450000000  0.5188460000000  0.5280720000000 1.0
C      1  0.4843550000000  0.4811540000000  0.4719280000000 1.0
C      1  0.4574460000000  0.5375880000000  0.5356350000000 1.0
C      1  0.5425540000000  0.4624120000000  0.4643650000000 1.0
C      1  0.4583260000000  0.5140590000000  0.5543260000000 1.0
C      1  0.5416740000000  0.4859410000000  0.4456740000000 1.0
C      1  0.4920160000000  0.5634820000000  0.5127190000000 1.0
C      1  0.5079840000000  0.4365180000000  0.4872810000000 1.0
C      1  0.4761390000000  0.4855010000000  0.5253210000000 1.0
C      1  0.5238610000000  0.5144990000000  0.4746790000000 1.0
C      1  0.4351960000000  0.5435190000000  0.4660680000000 1.0
C      1  0.5648040000000  0.4564810000000  0.5339320000000 1.0
C      1  0.5154670000000  0.5435140000000  0.4730720000000 1.0
C      1  0.4845330000000  0.4564860000000  0.5269280000000 1.0
C      1  0.5149090000000  0.4879870000000  0.4337970000000 1.0
C      1  0.4850910000000  0.5120130000000  0.5662030000000 1.0
C      1  0.4324900000000  0.4846500000000  0.4738300000000 1.0
C      1  0.5675100000000  0.5153500000000  0.5261700000000 1.0
C      1  0.5171850000000  0.4482100000000  0.4632320000000 1.0
C      1  0.4828150000000  0.5517900000000  0.5367680000000 1.0
C      1  0.4489940000000  0.5050840000000  0.4331710000000 1.0
C      1  0.5510060000000  0.4949160000000  0.5668290000000 1.0
C      1  0.4697130000000  0.5470170000000  0.4300360000000 1.0
C      1  0.5302870000000  0.4529830000000  0.5699640000000 1.0
C      1  0.4980950000000  0.4677430000000  0.4492130000000 1.0
C      1  0.5019050000000  0.5322570000000  0.5507870000000 1.0
C      1  0.5405950000000  0.5564140000000  0.5430590000000 1.0
C      1  0.4594050000000  0.4435860000000  0.4569410000000 1.0
C      1  0.5530890000000  0.5205450000000  0.5516390000000 1.0
C      1  0.4469110000000  0.4794550000000  0.4483610000000 1.0
C      1  0.5039220000000  0.4960640000000  0.4873650000000 1.0
C      1  0.4960780000000  0.5039360000000  0.5126350000000 1.0
C      1  0.5149830000000  0.4741950000000  0.5817680000000 1.0
C      1  0.4850170000000  0.5258050000000  0.4182320000000 1.0
END
