TITL C-38195-9455-438 -7.47897843000979e-07 125000 -357.109580904078 0 0 60 (C1) n - 1
REM
REM in /home/bkarasulu/CARBON/AIRSS/Generating-Clusters/EDIP-Nigel-Params/Higher-Symm/Box-15A/Only-C60/SD-CG/FIRE-HFTN
REM
REM
REM
REM
REM
REM ./C.cell (414f73aa93bd7a1190c7fd0f31ff2f98)
REM
REM compiler GCC version 9.2.1 20190827 (Red Hat 9.2.1-1)
REM options -cpp -mtune=generic -march=x86-64 -g -O0 -fpre-include=/usr/include/finclude/math-vector-fortran.h
REM seed 1296295030 1573280307 -2017272488 1157641211 1937693065 -1397517279 -188720421 612875204 1570120147 -1730586442 2073254937 414536999 361497244 -2071875895 857307007 1042032822 1190111524 27991693 -1856719515 2092324246 1907771962 -1241394006 -532755382 -1667207195 -1313361777 -1199113218 -2051789609 188193373 -1727131710 1704600366 1824737897 -391380806 2042082463
REM
CELL 1.54180   50.00000   50.00000   50.00000   90.00000   90.00000   90.00000
LATT -1
SFAC C  
C      1  0.5010200000000  0.4720300000000  0.5223000000000 1.0
C      1  0.5016840000000  0.5280440000000  0.5230050000000 1.0
C      1  0.4747270000000  0.5708320000000  0.5096130000000 1.0
C      1  0.4749390000000  0.4284950000000  0.5091530000000 1.0
C      1  0.4853180000000  0.5553510000000  0.4849050000000 1.0
C      1  0.4848620000000  0.4444040000000  0.4843130000000 1.0
C      1  0.4851270000000  0.4835100000000  0.5443320000000 1.0
C      1  0.4868650000000  0.5154670000000  0.5454250000000 1.0
C      1  0.5551600000000  0.4448120000000  0.4944720000000 1.0
C      1  0.5563010000000  0.5558910000000  0.4927760000000 1.0
C      1  0.5293530000000  0.5196060000000  0.5218920000000 1.0
C      1  0.5286050000000  0.4816100000000  0.5228930000000 1.0
C      1  0.4583190000000  0.4845680000000  0.4966770000000 1.0
C      1  0.4586770000000  0.5155370000000  0.4971630000000 1.0
C      1  0.5069660000000  0.4856270000000  0.4778360000000 1.0
C      1  0.5072360000000  0.5140720000000  0.4781130000000 1.0
C      1  0.4401100000000  0.5257010000000  0.4761430000000 1.0
C      1  0.4397890000000  0.4745990000000  0.4752780000000 1.0
C      1  0.5026660000000  0.5624080000000  0.5510220000000 1.0
C      1  0.5023610000000  0.4380900000000  0.5506120000000 1.0
C      1  0.5596120000000  0.4721180000000  0.4932390000000 1.0
C      1  0.5605460000000  0.5284530000000  0.4921230000000 1.0
C      1  0.5629490000000  0.4846970000000  0.4665730000000 1.0
C      1  0.5632970000000  0.5149980000000  0.4659540000000 1.0
C      1  0.5450560000000  0.5330540000000  0.5422540000000 1.0
C      1  0.5430140000000  0.4713560000000  0.5456470000000 1.0
C      1  0.4531980000000  0.4688830000000  0.4510260000000 1.0
C      1  0.4534220000000  0.5313460000000  0.4518970000000 1.0
C      1  0.4859120000000  0.5165870000000  0.4395410000000 1.0
C      1  0.4857590000000  0.4835950000000  0.4391820000000 1.0
C      1  0.5195500000000  0.4607360000000  0.5612890000000 1.0
C      1  0.5232340000000  0.5429870000000  0.5587600000000 1.0
C      1  0.4980300000000  0.4225060000000  0.5268060000000 1.0
C      1  0.4977240000000  0.5773550000000  0.5269450000000 1.0
C      1  0.5169850000000  0.4445280000000  0.4513580000000 1.0
C      1  0.5173590000000  0.5552540000000  0.4519690000000 1.0
C      1  0.4589970000000  0.4696780000000  0.5446050000000 1.0
C      1  0.4604170000000  0.5290680000000  0.5458530000000 1.0
C      1  0.5673280000000  0.4855600000000  0.5186500000000 1.0
C      1  0.5690180000000  0.5155840000000  0.5175040000000 1.0
C      1  0.5410160000000  0.4847120000000  0.4426810000000 1.0
C      1  0.5411890000000  0.5149050000000  0.4426870000000 1.0
C      1  0.4739900000000  0.5494280000000  0.4568350000000 1.0
C      1  0.4736380000000  0.4506200000000  0.4561590000000 1.0
C      1  0.4884520000000  0.5275440000000  0.4963610000000 1.0
C      1  0.4879990000000  0.4722360000000  0.4957700000000 1.0
C      1  0.5116840000000  0.5667750000000  0.4765470000000 1.0
C      1  0.5112170000000  0.4331710000000  0.4759610000000 1.0
C      1  0.5139880000000  0.4734600000000  0.4513850000000 1.0
C      1  0.5142480000000  0.5263490000000  0.4516940000000 1.0
C      1  0.4440940000000  0.5158350000000  0.5250390000000 1.0
C      1  0.4433440000000  0.4837200000000  0.5242470000000 1.0
C      1  0.5005770000000  0.4824580000000  0.5719870000000 1.0
C      1  0.5044640000000  0.5130690000000  0.5718000000000 1.0
C      1  0.4160480000000  0.5120950000000  0.4739380000000 1.0
C      1  0.4139870000000  0.4853190000000  0.4734980000000 1.0
C      1  0.4663620000000  0.5586030000000  0.5397610000000 1.0
C      1  0.4657360000000  0.4403580000000  0.5385130000000 1.0
C      1  0.5336200000000  0.5702640000000  0.4931020000000 1.0
C      1  0.5328540000000  0.4300810000000  0.4929340000000 1.0
END
