TITL C-38191-7580-103 1.80560706855371e-06 125000 -351.642954511492 0 0 60 (Cs) n - 1
REM
REM in /home/bkarasulu/CARBON/AIRSS/Generating-Clusters/EDIP-Nigel-Params/Higher-Symm/Box-15A/Only-C60/SD-CG/FIRE-HFTN
REM
REM
REM
REM
REM
REM ./C.cell (414f73aa93bd7a1190c7fd0f31ff2f98)
REM
REM compiler GCC version 9.2.1 20190827 (Red Hat 9.2.1-1)
REM options -cpp -mtune=generic -march=x86-64 -g -O0 -fpre-include=/usr/include/finclude/math-vector-fortran.h
REM seed 1768848220 1869846332 -1600445487 -1933671340 -1365558303 942994409 -223799714 -893220576 -871656458 -1598428308 2029622413 780354958 -2019457868 -1147507587 1079625740 286665387 1271283681 346864872 -97829782 -605531004 -1206771697 -992180585 204180735 1874240924 1267981487 729426545 1233657945 -519349746 850349745 -363947815 2029824532 1301924220 153724488
REM
CELL 1.54180   50.00000   50.00000   50.00000   90.00000   90.00000   90.00000
LATT -1
SFAC C  
C      1  0.5520340000000  0.5520610000000  0.4775310000000 1.0
C      1  0.4466490000000  0.4455660000000  0.4753390000000 1.0
C      1  0.4477090000000  0.5520780000000  0.4775130000000 1.0
C      1  0.5530610000000  0.4455490000000  0.4753570000000 1.0
C      1  0.5271140000000  0.5332850000000  0.5549570000000 1.0
C      1  0.4726250000000  0.4722300000000  0.5505430000000 1.0
C      1  0.4725970000000  0.5332930000000  0.5549480000000 1.0
C      1  0.5270680000000  0.4722210000000  0.5505520000000 1.0
C      1  0.5300510000000  0.5672640000000  0.4900640000000 1.0
C      1  0.4698690000000  0.4345560000000  0.4889360000000 1.0
C      1  0.4696930000000  0.5672740000000  0.4900540000000 1.0
C      1  0.5298330000000  0.4345460000000  0.4889460000000 1.0
C      1  0.4839700000000  0.5156520000000  0.4172190000000 1.0
C      1  0.5153740000000  0.4843520000000  0.4175800000000 1.0
C      1  0.5157810000000  0.5156460000000  0.4172240000000 1.0
C      1  0.4843670000000  0.4843570000000  0.4175750000000 1.0
C      1  0.4858090000000  0.5500520000000  0.5738380000000 1.0
C      1  0.5139440000000  0.4574250000000  0.5712060000000 1.0
C      1  0.5139010000000  0.5500480000000  0.5738430000000 1.0
C      1  0.4857370000000  0.4574300000000  0.5712010000000 1.0
C      1  0.5283870000000  0.4471730000000  0.5366890000000 1.0
C      1  0.4707370000000  0.5572830000000  0.5388610000000 1.0
C      1  0.4713030000000  0.4471820000000  0.5366800000000 1.0
C      1  0.5289870000000  0.5572740000000  0.5388700000000 1.0
C      1  0.5145990000000  0.5615750000000  0.5140180000000 1.0
C      1  0.4852120000000  0.4423760000000  0.5120210000000 1.0
C      1  0.4851340000000  0.5615800000000  0.5140130000000 1.0
C      1  0.5144840000000  0.4423710000000  0.5120260000000 1.0
C      1  0.5621750000000  0.4518560000000  0.5025470000000 1.0
C      1  0.4404680000000  0.5463590000000  0.5051640000000 1.0
C      1  0.4375270000000  0.4518750000000  0.5025260000000 1.0
C      1  0.5592640000000  0.5463400000000  0.5051830000000 1.0
C      1  0.4550330000000  0.4883630000000  0.4845200000000 1.0
C      1  0.5284600000000  0.5133560000000  0.4923180000000 1.0
C      1  0.5446870000000  0.4883490000000  0.4845350000000 1.0
C      1  0.4712660000000  0.5133650000000  0.4923080000000 1.0
C      1  0.5634790000000  0.4804390000000  0.5056250000000 1.0
C      1  0.4548010000000  0.5235420000000  0.5156620000000 1.0
C      1  0.4362310000000  0.4804600000000  0.5056040000000 1.0
C      1  0.5449190000000  0.5235280000000  0.5156770000000 1.0
C      1  0.5511890000000  0.4881750000000  0.5538950000000 1.0
C      1  0.4507340000000  0.5160220000000  0.5616410000000 1.0
C      1  0.4485080000000  0.4881920000000  0.5538780000000 1.0
C      1  0.5489690000000  0.5160060000000  0.5616570000000 1.0
C      1  0.4567030000000  0.5266260000000  0.4624760000000 1.0
C      1  0.5494340000000  0.4684310000000  0.4532020000000 1.0
C      1  0.5430360000000  0.5266120000000  0.4624900000000 1.0
C      1  0.4502900000000  0.4684470000000  0.4531850000000 1.0
C      1  0.4777740000000  0.4690910000000  0.4418920000000 1.0
C      1  0.5219640000000  0.5317920000000  0.4418900000000 1.0
C      1  0.5219540000000  0.4690840000000  0.4418990000000 1.0
C      1  0.4777830000000  0.5317990000000  0.4418830000000 1.0
C      1  0.4998750000000  0.5479710000000  0.4488490000000 1.0
C      1  0.4998600000000  0.4534430000000  0.4505760000000 1.0
C      1  0.4372920000000  0.5012620000000  0.5280020000000 1.0
C      1  0.5624180000000  0.5012420000000  0.5280230000000 1.0
C      1  0.5600400000000  0.4990300000000  0.4592350000000 1.0
C      1  0.4396920000000  0.4990490000000  0.4592150000000 1.0
C      1  0.4998540000000  0.4929430000000  0.5226310000000 1.0
C      1  0.4998600000000  0.5054940000000  0.4996770000000 1.0
END
