TITL C-38189-4514-659 1.64950634411186e-05 125000 -366.429806764691 0 0 60 (C1) n - 1
REM
REM in /home/bkarasulu/CARBON/AIRSS/Generating-Clusters/EDIP-Nigel-Params/Higher-Symm/Box-15A/Only-C60/SD-CG/FIRE-HFTN
REM
REM
REM
REM
REM
REM ./C.cell (414f73aa93bd7a1190c7fd0f31ff2f98)
REM
REM compiler GCC version 9.2.1 20190827 (Red Hat 9.2.1-1)
REM options -cpp -mtune=generic -march=x86-64 -g -O0 -fpre-include=/usr/include/finclude/math-vector-fortran.h
REM seed -979604406 31395215 -1191354256 -1270727679 1200513814 -119940319 -1630320241 789141896 3354821 -419368543 -277121115 -1196271995 -1814037230 -2120440837 886873981 -10584399 -1417976190 -862594486 691735302 -110139166 -367588116 -1924126702 806261085 1047374275 1488032077 -93813560 -867933503 -1601479848 1092719565 -614986984 584613283 -848243878 -1027572654
REM
CELL 1.54180   50.00000   50.00000   50.00000   90.00000   90.00000   90.00000
LATT -1
SFAC C  
C      1  0.4781290000000  0.5597870000000  0.5214260000000 1.0
C      1  0.4743990000000  0.5779440000000  0.4996740000000 1.0
C      1  0.4909580000000  0.5827250000000  0.4769870000000 1.0
C      1  0.5155490000000  0.5982750000000  0.4811160000000 1.0
C      1  0.5331150000000  0.5844420000000  0.5001680000000 1.0
C      1  0.5231360000000  0.5796360000000  0.5264650000000 1.0
C      1  0.5042770000000  0.5599780000000  0.5353350000000 1.0
C      1  0.5593310000000  0.5168730000000  0.4791870000000 1.0
C      1  0.5607110000000  0.5183940000000  0.5329970000000 1.0
C      1  0.5169010000000  0.5227880000000  0.5648220000000 1.0
C      1  0.4479150000000  0.5237790000000  0.5379170000000 1.0
C      1  0.4346880000000  0.5172630000000  0.4855670000000 1.0
C      1  0.4700450000000  0.5144090000000  0.4455870000000 1.0
C      1  0.5211920000000  0.5159740000000  0.4450080000000 1.0
C      1  0.4813940000000  0.5217960000000  0.4700350000000 1.0
C      1  0.5115420000000  0.5235320000000  0.4704180000000 1.0
C      1  0.5345830000000  0.5242940000000  0.4903200000000 1.0
C      1  0.5375590000000  0.5271240000000  0.5198340000000 1.0
C      1  0.5136550000000  0.5312810000000  0.5371510000000 1.0
C      1  0.4684740000000  0.5312160000000  0.5187120000000 1.0
C      1  0.4608520000000  0.5257860000000  0.4905110000000 1.0
C      1  0.5852720000000  0.4829180000000  0.5011870000000 1.0
C      1  0.5530730000000  0.4842090000000  0.5656430000000 1.0
C      1  0.4813980000000  0.4917580000000  0.5743030000000 1.0
C      1  0.4234270000000  0.4846500000000  0.5302840000000 1.0
C      1  0.4264910000000  0.4801450000000  0.4578000000000 1.0
C      1  0.4856290000000  0.4812530000000  0.4160960000000 1.0
C      1  0.5549320000000  0.4835390000000  0.4360600000000 1.0
C      1  0.5535330000000  0.4480160000000  0.4692750000000 1.0
C      1  0.5574420000000  0.4484180000000  0.5212770000000 1.0
C      1  0.5189690000000  0.4511840000000  0.5567280000000 1.0
C      1  0.4667550000000  0.4529810000000  0.5491960000000 1.0
C      1  0.4411790000000  0.4485270000000  0.5035530000000 1.0
C      1  0.4613730000000  0.4467990000000  0.4553390000000 1.0
C      1  0.5107760000000  0.4471930000000  0.4398460000000 1.0
C      1  0.5299390000000  0.4936940000000  0.4299740000000 1.0
C      1  0.5751140000000  0.4935260000000  0.4777190000000 1.0
C      1  0.5673300000000  0.4933250000000  0.5437440000000 1.0
C      1  0.5084510000000  0.4979200000000  0.5748590000000 1.0
C      1  0.4414930000000  0.4977810000000  0.5464890000000 1.0
C      1  0.4233190000000  0.4918640000000  0.4825740000000 1.0
C      1  0.4643170000000  0.4914390000000  0.4304260000000 1.0
C      1  0.5722110000000  0.4733160000000  0.5236060000000 1.0
C      1  0.5266200000000  0.4765330000000  0.5683120000000 1.0
C      1  0.4628410000000  0.4808100000000  0.5567830000000 1.0
C      1  0.4273130000000  0.4739250000000  0.5050310000000 1.0
C      1  0.4489680000000  0.4708590000000  0.4445040000000 1.0
C      1  0.5102050000000  0.4726450000000  0.4255840000000 1.0
C      1  0.5645740000000  0.4733090000000  0.4598950000000 1.0
C      1  0.5573030000000  0.4385650000000  0.4952720000000 1.0
C      1  0.5388460000000  0.4402150000000  0.5405200000000 1.0
C      1  0.4921810000000  0.4435020000000  0.5553320000000 1.0
C      1  0.4526450000000  0.4415240000000  0.5279630000000 1.0
C      1  0.4500020000000  0.4380430000000  0.4792140000000 1.0
C      1  0.4855520000000  0.4369610000000  0.4454890000000 1.0
C      1  0.5336440000000  0.4379260000000  0.4527730000000 1.0
C      1  0.4971940000000  0.4902700000000  0.5132950000000 1.0
C      1  0.5013840000000  0.4691860000000  0.4992600000000 1.0
C      1  0.5109320000000  0.5614630000000  0.4920320000000 1.0
C      1  0.4922010000000  0.5149200000000  0.5250810000000 1.0
END
