TITL C-38186-4112-493 -0.00390105180255903 125000 -346.888345865554 0 0 60 (C3) n - 1
REM
REM in /home/bkarasulu/CARBON/AIRSS/Generating-Clusters/EDIP-Nigel-Params/Higher-Symm/Box-15A/Only-C60/SD-CG/FIRE-HFTN
REM
REM
REM
REM
REM
REM ./C.cell (414f73aa93bd7a1190c7fd0f31ff2f98)
REM
REM compiler GCC version 9.2.1 20190827 (Red Hat 9.2.1-1)
REM options -cpp -mtune=generic -march=x86-64 -g -O0 -fpre-include=/usr/include/finclude/math-vector-fortran.h
REM seed 654832798 1921606526 -810955338 129223315 360061251 -2027997785 130549947 -812902718 872349338 -383428297 -34757349 -1564288071 -512976041 602980754 1199886372 733829033 -1054579462 -1340379561 -661104564 -1803157261 1584852250 2077461046 2091308210 -1564739984 -769921231 1629388272 197179053 -50569249 480180201 -61493252 1208356288 118539488 214021070
REM
CELL 1.54180   50.00000   50.00000   50.00000   90.00000   90.00000   90.00000
LATT -1
SFAC C  
C      1  0.5157870000000  0.5550550000000  0.4637320000000 1.0
C      1  0.5158160000000  0.5014190000000  0.5661050000000 1.0
C      1  0.5158060000000  0.4395790000000  0.4684680000000 1.0
C      1  0.5255250000000  0.5423330000000  0.5392850000000 1.0
C      1  0.5255360000000  0.4423490000000  0.5173060000000 1.0
C      1  0.5255100000000  0.5113750000000  0.4417070000000 1.0
C      1  0.4969660000000  0.4802780000000  0.5715610000000 1.0
C      1  0.4969460000000  0.4454230000000  0.4474400000000 1.0
C      1  0.4969330000000  0.5703420000000  0.4793150000000 1.0
C      1  0.4607500000000  0.4575870000000  0.5462330000000 1.0
C      1  0.4607250000000  0.4787010000000  0.4404690000000 1.0
C      1  0.4607270000000  0.5597390000000  0.5116360000000 1.0
C      1  0.4434680000000  0.4610500000000  0.4533940000000 1.0
C      1  0.4434600000000  0.5573690000000  0.4898950000000 1.0
C      1  0.4434860000000  0.4775990000000  0.5550590000000 1.0
C      1  0.5086420000000  0.4905730000000  0.4341620000000 1.0
C      1  0.5086500000000  0.5592670000000  0.5250500000000 1.0
C      1  0.5086710000000  0.4462090000000  0.5390970000000 1.0
C      1  0.4273240000000  0.5405080000000  0.5431860000000 1.0
C      1  0.4273340000000  0.4398780000000  0.5138190000000 1.0
C      1  0.4273080000000  0.5156260000000  0.4413540000000 1.0
C      1  0.4388840000000  0.5261280000000  0.5638170000000 1.0
C      1  0.4388850000000  0.4292020000000  0.4910440000000 1.0
C      1  0.4388580000000  0.5406870000000  0.4434900000000 1.0
C      1  0.5538090000000  0.5459540000000  0.5369160000000 1.0
C      1  0.5538220000000  0.4425920000000  0.5216140000000 1.0
C      1  0.5537950000000  0.5075250000000  0.4397510000000 1.0
C      1  0.4890150000000  0.4732920000000  0.4434260000000 1.0
C      1  0.4890140000000  0.5598840000000  0.5054610000000 1.0
C      1  0.4890380000000  0.4628640000000  0.5494340000000 1.0
C      1  0.4784760000000  0.5013840000000  0.5778650000000 1.0
C      1  0.4784640000000  0.4294100000000  0.4625750000000 1.0
C      1  0.4784420000000  0.5652410000000  0.4578880000000 1.0
C      1  0.5153230000000  0.4544760000000  0.4930100000000 1.0
C      1  0.5153060000000  0.5263520000000  0.4643620000000 1.0
C      1  0.5153230000000  0.5152240000000  0.5409330000000 1.0
C      1  0.4520900000000  0.5052720000000  0.4349640000000 1.0
C      1  0.4521040000000  0.5512200000000  0.5374040000000 1.0
C      1  0.4521190000000  0.4395300000000  0.5259760000000 1.0
C      1  0.4937890000000  0.5138630000000  0.4770730000000 1.0
C      1  0.4937990000000  0.5104590000000  0.5237700000000 1.0
C      1  0.4938000000000  0.4717200000000  0.4974740000000 1.0
C      1  0.5721600000000  0.4492380000000  0.5019420000000 1.0
C      1  0.5721390000000  0.5212390000000  0.4553350000000 1.0
C      1  0.5721560000000  0.5256010000000  0.5409940000000 1.0
C      1  0.4540440000000  0.4416350000000  0.4703670000000 1.0
C      1  0.4540260000000  0.5523790000000  0.4645890000000 1.0
C      1  0.4540540000000  0.5020110000000  0.5633860000000 1.0
C      1  0.5737940000000  0.4743990000000  0.5133160000000 1.0
C      1  0.5737820000000  0.4988090000000  0.4714370000000 1.0
C      1  0.5737860000000  0.5228720000000  0.5135160000000 1.0
C      1  0.4840700000000  0.4986790000000  0.4994410000000 1.0
C      1  0.4556930000000  0.4986750000000  0.4994470000000 1.0
C      1  0.4027960000000  0.4986670000000  0.4994580000000 1.0
C      1  0.6382980000000  0.4984090000000  0.4997970000000 1.0
C      1  0.6118380000000  0.4986990000000  0.4994150000000 1.0
C      1  0.6638650000000  0.4986870000000  0.4994310000000 1.0
C      1  0.4291970000000  0.4986710000000  0.4994520000000 1.0
C      1  0.5834520000000  0.4986950000000  0.4994210000000 1.0
C      1  0.3772260000000  0.4986630000000  0.4994630000000 1.0
END
