TITL C-38189-4514-519 -4.19480631251864e-06 125000 -370.550385378657 0 0 60 (C3h) n - 1
REM
REM in /home/bkarasulu/CARBON/AIRSS/Generating-Clusters/EDIP-Nigel-Params/Higher-Symm/Box-15A/Only-C60/SD-CG/FIRE-HFTN
REM
REM
REM
REM
REM
REM ./C.cell (414f73aa93bd7a1190c7fd0f31ff2f98)
REM
REM compiler GCC version 9.2.1 20190827 (Red Hat 9.2.1-1)
REM options -cpp -mtune=generic -march=x86-64 -g -O0 -fpre-include=/usr/include/finclude/math-vector-fortran.h
REM seed 2123450839 -1401800508 775713556 -1644767775 738574708 -1352690181 -2134787579 246075640 1492855503 -127797564 1632431001 1430605824 -913869238 -281295591 -446579862 1528652430 -988816959 -1632971960 878229916 -648861604 -1748947973 1621227848 266329629 -2030586428 -641776362 54195161 -96724468 -1529243802 600335647 480948529 -1223901253 -1034466936 1751374682
REM
CELL 1.54180   50.00000   50.00000   50.00000   90.00000   90.00000   90.00000
LATT -1
SFAC C  
C      1  0.4539330000000  0.5537300000000  0.4691960000000 1.0
C      1  0.4963560000000  0.5537300000000  0.5552970000000 1.0
C      1  0.5497110000000  0.5537300000000  0.4755070000000 1.0
C      1  0.4539330000000  0.4462700000000  0.4691960000000 1.0
C      1  0.4963560000000  0.4462700000000  0.5552970000000 1.0
C      1  0.5497110000000  0.4462700000000  0.4755070000000 1.0
C      1  0.5591110000000  0.4855750000000  0.5360620000000 1.0
C      1  0.5016750000000  0.4855750000000  0.4307780000000 1.0
C      1  0.4392140000000  0.4855750000000  0.5331600000000 1.0
C      1  0.5591110000000  0.5144250000000  0.5360620000000 1.0
C      1  0.5016750000000  0.5144250000000  0.4307780000000 1.0
C      1  0.4392140000000  0.5144250000000  0.5331600000000 1.0
C      1  0.5282780000000  0.4843400000000  0.4935530000000 1.0
C      1  0.4802780000000  0.4843400000000  0.4787340000000 1.0
C      1  0.4914440000000  0.4843400000000  0.5277120000000 1.0
C      1  0.5282780000000  0.5156600000000  0.4935530000000 1.0
C      1  0.4802780000000  0.5156600000000  0.4787340000000 1.0
C      1  0.4914440000000  0.5156600000000  0.5277120000000 1.0
C      1  0.5082760000000  0.4736980000000  0.4726040000000 1.0
C      1  0.4721370000000  0.4736980000000  0.5065310000000 1.0
C      1  0.5195870000000  0.4736980000000  0.5208650000000 1.0
C      1  0.5082760000000  0.5263020000000  0.4726040000000 1.0
C      1  0.4721370000000  0.5263020000000  0.5065310000000 1.0
C      1  0.5195870000000  0.5263020000000  0.5208650000000 1.0
C      1  0.5272590000000  0.4327170000000  0.4910810000000 1.0
C      1  0.4786470000000  0.4327170000000  0.4808530000000 1.0
C      1  0.4940950000000  0.4327170000000  0.5280660000000 1.0
C      1  0.5272590000000  0.5672830000000  0.4910810000000 1.0
C      1  0.4786470000000  0.5672830000000  0.4808530000000 1.0
C      1  0.4940950000000  0.5672830000000  0.5280660000000 1.0
C      1  0.5271380000000  0.4747730000000  0.4389520000000 1.0
C      1  0.4335620000000  0.4747730000000  0.5070220000000 1.0
C      1  0.5393000000000  0.4747730000000  0.5540260000000 1.0
C      1  0.5271380000000  0.5252270000000  0.4389520000000 1.0
C      1  0.4335620000000  0.5252270000000  0.5070220000000 1.0
C      1  0.5393000000000  0.5252270000000  0.5540260000000 1.0
C      1  0.5685630000000  0.4717140000000  0.5135150000000 1.0
C      1  0.4774230000000  0.4717140000000  0.4338650000000 1.0
C      1  0.4540140000000  0.4717140000000  0.5526200000000 1.0
C      1  0.5685630000000  0.5282860000000  0.5135150000000 1.0
C      1  0.4774230000000  0.5282860000000  0.4338650000000 1.0
C      1  0.4540140000000  0.5282860000000  0.5526200000000 1.0
C      1  0.4627210000000  0.4724600000000  0.4577600000000 1.0
C      1  0.4820590000000  0.4724600000000  0.5534040000000 1.0
C      1  0.5552200000000  0.4724600000000  0.4888350000000 1.0
C      1  0.4627210000000  0.5275400000000  0.4577600000000 1.0
C      1  0.4820590000000  0.5275400000000  0.5534040000000 1.0
C      1  0.5552200000000  0.5275400000000  0.4888350000000 1.0
C      1  0.5364820000000  0.4496020000000  0.4488230000000 1.0
C      1  0.4374380000000  0.4496020000000  0.4939940000000 1.0
C      1  0.5260790000000  0.4496020000000  0.5571830000000 1.0
C      1  0.5364820000000  0.5503980000000  0.4488230000000 1.0
C      1  0.4374380000000  0.5503980000000  0.4939940000000 1.0
C      1  0.5260790000000  0.5503980000000  0.5571830000000 1.0
C      1  0.4723930000000  0.5576190000000  0.5089350000000 1.0
C      1  0.5215420000000  0.5576190000000  0.5194410000000 1.0
C      1  0.5060650000000  0.5576190000000  0.4716240000000 1.0
C      1  0.4723930000000  0.4423810000000  0.5089350000000 1.0
C      1  0.5215420000000  0.4423810000000  0.5194410000000 1.0
C      1  0.5060650000000  0.4423810000000  0.4716240000000 1.0
END
