TITL C-38194-9318-583 1.96624506957475e-06 125000 -361.957127434983 0 0 60 (Cs) n - 1
REM
REM in /home/bkarasulu/CARBON/AIRSS/Generating-Clusters/EDIP-Nigel-Params/Higher-Symm/Box-15A/Only-C60/SD-CG/FIRE-HFTN
REM
REM
REM
REM
REM
REM ./C.cell (414f73aa93bd7a1190c7fd0f31ff2f98)
REM
REM compiler GCC version 9.2.1 20190827 (Red Hat 9.2.1-1)
REM options -cpp -mtune=generic -march=x86-64 -g -O0 -fpre-include=/usr/include/finclude/math-vector-fortran.h
REM seed -1282694601 391035719 -2006135593 895884448 110864725 1491686701 1071142976 -2143213117 -1586771782 -1376056535 2034573702 680844443 170274820 -1062399118 -1623088325 1245474012 1122045117 1999974464 1617406354 -1672126774 -1713362609 -1332446111 1525205145 1759618892 -1023089543 240797321 472398331 -1442570684 -1536221163 -2020379135 -1137891135 -1762448718 -937856931
REM
CELL 1.54180   50.00000   50.00000   50.00000   90.00000   90.00000   90.00000
LATT -1
SFAC C  
C      1  0.4579120000000  0.4440780000000  0.4835180000000 1.0
C      1  0.4570980000000  0.5574880000000  0.5154740000000 1.0
C      1  0.4570980000000  0.4425120000000  0.5154740000000 1.0
C      1  0.4579120000000  0.5559220000000  0.4835180000000 1.0
C      1  0.4515010000000  0.4727400000000  0.4719200000000 1.0
C      1  0.4509760000000  0.5280680000000  0.5288680000000 1.0
C      1  0.4509760000000  0.4719320000000  0.5288680000000 1.0
C      1  0.4515010000000  0.5272600000000  0.4719200000000 1.0
C      1  0.5833740000000  0.4842400000000  0.5155160000000 1.0
C      1  0.5832410000000  0.5157780000000  0.4847670000000 1.0
C      1  0.5832410000000  0.4842220000000  0.4847670000000 1.0
C      1  0.5833740000000  0.5157600000000  0.5155160000000 1.0
C      1  0.5038860000000  0.4440800000000  0.4605750000000 1.0
C      1  0.5032110000000  0.5555520000000  0.5390180000000 1.0
C      1  0.5032110000000  0.4444480000000  0.5390180000000 1.0
C      1  0.5038860000000  0.5559200000000  0.4605750000000 1.0
C      1  0.5567790000000  0.5274610000000  0.5186920000000 1.0
C      1  0.5568590000000  0.4723780000000  0.4808090000000 1.0
C      1  0.5568590000000  0.5276220000000  0.4808090000000 1.0
C      1  0.5567790000000  0.4725390000000  0.5186920000000 1.0
C      1  0.5455950000000  0.5297950000000  0.4541310000000 1.0
C      1  0.5451680000000  0.4704710000000  0.5452440000000 1.0
C      1  0.5451680000000  0.5295290000000  0.5452440000000 1.0
C      1  0.5455950000000  0.4702050000000  0.4541310000000 1.0
C      1  0.5078280000000  0.4847010000000  0.4780580000000 1.0
C      1  0.5063310000000  0.5145010000000  0.5224060000000 1.0
C      1  0.5063310000000  0.4854990000000  0.5224060000000 1.0
C      1  0.5078280000000  0.5152990000000  0.4780580000000 1.0
C      1  0.5150050000000  0.5295730000000  0.5458550000000 1.0
C      1  0.5154730000000  0.4701120000000  0.4540350000000 1.0
C      1  0.5154730000000  0.5298880000000  0.4540350000000 1.0
C      1  0.5150050000000  0.4704270000000  0.5458550000000 1.0
C      1  0.5571650000000  0.5134540000000  0.5645680000000 1.0
C      1  0.5574300000000  0.4865570000000  0.4349540000000 1.0
C      1  0.5574300000000  0.5134430000000  0.4349540000000 1.0
C      1  0.5571650000000  0.4865460000000  0.5645680000000 1.0
C      1  0.4751190000000  0.5246620000000  0.5733560000000 1.0
C      1  0.4750590000000  0.4753400000000  0.4272310000000 1.0
C      1  0.4750590000000  0.5246600000000  0.4272310000000 1.0
C      1  0.4751190000000  0.4753380000000  0.5733560000000 1.0
C      1  0.5014760000000  0.4847870000000  0.4307600000000 1.0
C      1  0.5015980000000  0.5152780000000  0.5698080000000 1.0
C      1  0.5015980000000  0.4847220000000  0.5698080000000 1.0
C      1  0.5014760000000  0.5152130000000  0.4307600000000 1.0
C      1  0.4765560000000  0.5153680000000  0.4853090000000 1.0
C      1  0.4775080000000  0.4808100000000  0.5144420000000 1.0
C      1  0.4775080000000  0.5191900000000  0.5144420000000 1.0
C      1  0.4765560000000  0.4846320000000  0.4853090000000 1.0
C      1  0.4268430000000  0.4844240000000  0.5157120000000 1.0
C      1  0.4268070000000  0.5156140000000  0.4847410000000 1.0
C      1  0.4268070000000  0.4843860000000  0.4847410000000 1.0
C      1  0.4268430000000  0.5155760000000  0.5157120000000 1.0
C      1  0.4546160000000  0.5149130000000  0.5566820000000 1.0
C      1  0.4543610000000  0.4850270000000  0.4436790000000 1.0
C      1  0.4543610000000  0.5149730000000  0.4436790000000 1.0
C      1  0.4546160000000  0.4850870000000  0.5566820000000 1.0
C      1  0.4878780000000  0.5610060000000  0.4839350000000 1.0
C      1  0.4873480000000  0.4376680000000  0.5159360000000 1.0
C      1  0.4873480000000  0.5623320000000  0.5159360000000 1.0
C      1  0.4878780000000  0.4389940000000  0.4839350000000 1.0
END
