TITL C-38193-7935-528 1.06954499038238e-06 125000 -354.707392537475 0 0 60 (C2) n - 1
REM
REM in /home/bkarasulu/CARBON/AIRSS/Generating-Clusters/EDIP-Nigel-Params/Higher-Symm/Box-15A/Only-C60/SD-CG/FIRE-HFTN
REM
REM
REM
REM
REM
REM ./C.cell (414f73aa93bd7a1190c7fd0f31ff2f98)
REM
REM compiler GCC version 9.2.1 20190827 (Red Hat 9.2.1-1)
REM options -cpp -mtune=generic -march=x86-64 -g -O0 -fpre-include=/usr/include/finclude/math-vector-fortran.h
REM seed 588824682 -905433578 1739798615 -2049904271 -931438496 48202289 -1679049149 -1450666149 1674461294 -968409369 -17890537 -1323167276 -95817013 -878080855 -1470784768 -162173114 836768706 191597773 -1579892602 1076287909 506921591 738980379 -1618580875 -1349067625 1799031884 1367664586 -1627379869 -305287778 1342456735 -2055924432 1469748425 -1474504574 -671233189
REM
CELL 1.54180   50.00000   50.00000   50.00000   90.00000   90.00000   90.00000
LATT -1
SFAC C  
C      1  0.5218290000000  0.5048960000000  0.5612170000000 1.0
C      1  0.5041190000000  0.4793700000000  0.5634380000000 1.0
C      1  0.4781710000000  0.4951040000000  0.5612170000000 1.0
C      1  0.4958810000000  0.5206300000000  0.5634380000000 1.0
C      1  0.5477370000000  0.4810450000000  0.4818070000000 1.0
C      1  0.4723640000000  0.4458880000000  0.4786450000000 1.0
C      1  0.4522630000000  0.5189550000000  0.4818070000000 1.0
C      1  0.5276360000000  0.5541120000000  0.4786450000000 1.0
C      1  0.4847520000000  0.4978850000000  0.4570210000000 1.0
C      1  0.4958810000000  0.5418570000000  0.4497470000000 1.0
C      1  0.5152480000000  0.5021150000000  0.4570210000000 1.0
C      1  0.5041190000000  0.4581430000000  0.4497470000000 1.0
C      1  0.4336050000000  0.5286080000000  0.5211420000000 1.0
C      1  0.5278920000000  0.5661300000000  0.5258030000000 1.0
C      1  0.5663950000000  0.4713920000000  0.5211420000000 1.0
C      1  0.4721080000000  0.4338700000000  0.5258030000000 1.0
C      1  0.4912730000000  0.5397520000000  0.5401370000000 1.0
C      1  0.5352280000000  0.5070990000000  0.5358190000000 1.0
C      1  0.5087270000000  0.4602480000000  0.5401370000000 1.0
C      1  0.4647720000000  0.4929010000000  0.5358190000000 1.0
C      1  0.4141150000000  0.4790310000000  0.5043520000000 1.0
C      1  0.4738650000000  0.5864840000000  0.5023840000000 1.0
C      1  0.5858850000000  0.5209690000000  0.5043520000000 1.0
C      1  0.5261350000000  0.4135160000000  0.5023840000000 1.0
C      1  0.5871990000000  0.5007670000000  0.4853930000000 1.0
C      1  0.5010440000000  0.4094120000000  0.4909060000000 1.0
C      1  0.4128010000000  0.4992330000000  0.4853930000000 1.0
C      1  0.4989560000000  0.5905880000000  0.4909060000000 1.0
C      1  0.4622210000000  0.4541700000000  0.5050360000000 1.0
C      1  0.4569300000000  0.5372990000000  0.5039230000000 1.0
C      1  0.5377790000000  0.5458300000000  0.5050360000000 1.0
C      1  0.5430700000000  0.4627010000000  0.5039230000000 1.0
C      1  0.5151340000000  0.5526870000000  0.5474510000000 1.0
C      1  0.5580060000000  0.4916890000000  0.5376340000000 1.0
C      1  0.4848660000000  0.4473130000000  0.5474510000000 1.0
C      1  0.4419940000000  0.5083110000000  0.5376340000000 1.0
C      1  0.5413730000000  0.5443040000000  0.4558780000000 1.0
C      1  0.5498230000000  0.4693900000000  0.4560060000000 1.0
C      1  0.4586270000000  0.4556960000000  0.4558780000000 1.0
C      1  0.4501770000000  0.5306100000000  0.4560060000000 1.0
C      1  0.5226530000000  0.5193670000000  0.5097710000000 1.0
C      1  0.5098050000000  0.4700560000000  0.5115020000000 1.0
C      1  0.4773470000000  0.4806330000000  0.5097710000000 1.0
C      1  0.4901950000000  0.5299440000000  0.5115020000000 1.0
C      1  0.5264860000000  0.5010340000000  0.4849520000000 1.0
C      1  0.5008570000000  0.4521430000000  0.4787350000000 1.0
C      1  0.4735140000000  0.4989660000000  0.4849520000000 1.0
C      1  0.4991430000000  0.5478570000000  0.4787350000000 1.0
C      1  0.4339740000000  0.4598100000000  0.5051050000000 1.0
C      1  0.4569100000000  0.5652490000000  0.4972080000000 1.0
C      1  0.5660260000000  0.5401900000000  0.5051050000000 1.0
C      1  0.5430900000000  0.4347510000000  0.4972080000000 1.0
C      1  0.4783750000000  0.4713040000000  0.4429780000000 1.0
C      1  0.4740120000000  0.5227480000000  0.4434660000000 1.0
C      1  0.5216250000000  0.5286960000000  0.4429780000000 1.0
C      1  0.5259880000000  0.4772520000000  0.4434660000000 1.0
C      1  0.4899680000000  0.4128420000000  0.5162890000000 1.0
C      1  0.4111020000000  0.5176480000000  0.5062550000000 1.0
C      1  0.5100320000000  0.5871580000000  0.5162890000000 1.0
C      1  0.5888980000000  0.4823520000000  0.5062550000000 1.0
END
