TITL C-38192-7909-489 -1.32562508079975e-06 125000 -361.257344998265 0 0 60 (C2) n - 1
REM
REM in /home/bkarasulu/CARBON/AIRSS/Generating-Clusters/EDIP-Nigel-Params/Higher-Symm/Box-15A/Only-C60/SD-CG/FIRE-HFTN
REM
REM
REM
REM
REM
REM ./C.cell (414f73aa93bd7a1190c7fd0f31ff2f98)
REM
REM compiler GCC version 9.2.1 20190827 (Red Hat 9.2.1-1)
REM options -cpp -mtune=generic -march=x86-64 -g -O0 -fpre-include=/usr/include/finclude/math-vector-fortran.h
REM seed 459384675 684237054 -1934394704 534813102 597006826 -842887656 -482028901 1409063177 1833211494 -609417269 -999034608 1178596584 1380050524 -901461745 650807066 -404105545 1426813669 448059815 -62729130 1893630622 1627300082 31223772 -2025177463 -1842748441 2002542473 1538070827 -1517369148 167977057 -2047580071 546863914 -851197546 1976553259 -1726150313
REM
CELL 1.54180   50.00000   50.00000   50.00000   90.00000   90.00000   90.00000
LATT -1
SFAC C  
C      1  0.5131840000000  0.4430470000000  0.5403760000000 1.0
C      1  0.4868160000000  0.4430470000000  0.4596240000000 1.0
C      1  0.5135850000000  0.4636970000000  0.5618640000000 1.0
C      1  0.4864150000000  0.4636970000000  0.4381360000000 1.0
C      1  0.5155470000000  0.4344940000000  0.4664060000000 1.0
C      1  0.4844530000000  0.4344940000000  0.5335940000000 1.0
C      1  0.4654060000000  0.4579230000000  0.5375870000000 1.0
C      1  0.5345940000000  0.4579230000000  0.4624130000000 1.0
C      1  0.4336060000000  0.4962520000000  0.4897410000000 1.0
C      1  0.5663940000000  0.4962520000000  0.5102590000000 1.0
C      1  0.4332950000000  0.4729200000000  0.4738290000000 1.0
C      1  0.5667050000000  0.4729200000000  0.5261710000000 1.0
C      1  0.5415700000000  0.5277950000000  0.5418480000000 1.0
C      1  0.4584300000000  0.5277950000000  0.4581520000000 1.0
C      1  0.5021810000000  0.5235930000000  0.4365740000000 1.0
C      1  0.4978190000000  0.5235930000000  0.5634260000000 1.0
C      1  0.5104200000000  0.4874680000000  0.5434620000000 1.0
C      1  0.4895800000000  0.4874680000000  0.4565380000000 1.0
C      1  0.5129100000000  0.5652740000000  0.5087240000000 1.0
C      1  0.4870900000000  0.5652740000000  0.4912760000000 1.0
C      1  0.4629990000000  0.5719560000000  0.5056140000000 1.0
C      1  0.5370010000000  0.5719560000000  0.4943860000000 1.0
C      1  0.5085170000000  0.5360080000000  0.4634620000000 1.0
C      1  0.4914830000000  0.5360080000000  0.5365380000000 1.0
C      1  0.5249490000000  0.4515200000000  0.5120720000000 1.0
C      1  0.4750510000000  0.4515200000000  0.4879280000000 1.0
C      1  0.4784910000000  0.5013530000000  0.5713330000000 1.0
C      1  0.5215090000000  0.5013530000000  0.4286670000000 1.0
C      1  0.4487090000000  0.5533860000000  0.5191370000000 1.0
C      1  0.5512910000000  0.5533860000000  0.4808630000000 1.0
C      1  0.5348080000000  0.5311410000000  0.4764690000000 1.0
C      1  0.4651920000000  0.5311410000000  0.5235310000000 1.0
C      1  0.5602830000000  0.4597900000000  0.4802830000000 1.0
C      1  0.4397170000000  0.4597900000000  0.5197170000000 1.0
C      1  0.5497000000000  0.5190590000000  0.5163990000000 1.0
C      1  0.4503000000000  0.5190590000000  0.4836010000000 1.0
C      1  0.5064240000000  0.5612570000000  0.4508470000000 1.0
C      1  0.4935760000000  0.5612570000000  0.5491530000000 1.0
C      1  0.5437320000000  0.5041420000000  0.4669990000000 1.0
C      1  0.4562680000000  0.5041420000000  0.5330010000000 1.0
C      1  0.4796090000000  0.4835880000000  0.5284380000000 1.0
C      1  0.5203910000000  0.4835880000000  0.4715620000000 1.0
C      1  0.5146490000000  0.5352240000000  0.5156270000000 1.0
C      1  0.4853510000000  0.5352240000000  0.4843730000000 1.0
C      1  0.5664600000000  0.4896910000000  0.4816140000000 1.0
C      1  0.4335400000000  0.4896910000000  0.5183860000000 1.0
C      1  0.4879210000000  0.4736560000000  0.5724320000000 1.0
C      1  0.5120790000000  0.4736560000000  0.4275680000000 1.0
C      1  0.4760310000000  0.5114570000000  0.4425630000000 1.0
C      1  0.5239690000000  0.5114570000000  0.5574370000000 1.0
C      1  0.4521370000000  0.5051550000000  0.5619030000000 1.0
C      1  0.5478630000000  0.5051550000000  0.4380970000000 1.0
C      1  0.4856660000000  0.4786030000000  0.4992350000000 1.0
C      1  0.5143340000000  0.4786030000000  0.5007650000000 1.0
C      1  0.5083260000000  0.5791270000000  0.5339920000000 1.0
C      1  0.4916740000000  0.5791270000000  0.4660080000000 1.0
C      1  0.5549580000000  0.4532810000000  0.5094600000000 1.0
C      1  0.4450420000000  0.4532810000000  0.4905400000000 1.0
C      1  0.5143950000000  0.4281420000000  0.4956000000000 1.0
C      1  0.4856050000000  0.4281420000000  0.5044000000000 1.0
END
