TITL C-38196-2854-295 -3.1021650968689e-06 125000 -368.424537545056 0 0 60 (C1) n - 1
REM
REM in /home/bkarasulu/CARBON/AIRSS/Generating-Clusters/EDIP-Nigel-Params/Higher-Symm/Box-15A/Only-C60/SD-CG/FIRE-HFTN
REM
REM
REM
REM
REM
REM ./C.cell (414f73aa93bd7a1190c7fd0f31ff2f98)
REM
REM compiler GCC version 9.2.1 20190827 (Red Hat 9.2.1-1)
REM options -cpp -mtune=generic -march=x86-64 -g -O0 -fpre-include=/usr/include/finclude/math-vector-fortran.h
REM seed -1137403440 -1578621982 1300379484 1169045342 241413207 512940793 1453319865 37662546 -2041954064 -158794839 -559645798 -2133917840 960572014 -1520114822 -1646963714 -1721819998 1557213883 1532727046 1635343054 1243558793 1250342453 -150412825 -728483968 -39632060 -1605118329 1514936995 155431773 -284078192 1588372198 -836585608 -1933375008 -26305337 1749837880
REM
CELL 1.54180   50.00000   50.00000   50.00000   90.00000   90.00000   90.00000
LATT -1
SFAC C  
C      1  0.5572940000000  0.4580300000000  0.4715240000000 1.0
C      1  0.5672790000000  0.5180490000000  0.4736550000000 1.0
C      1  0.5311670000000  0.5651810000000  0.4743970000000 1.0
C      1  0.4677340000000  0.5647070000000  0.4709410000000 1.0
C      1  0.4348570000000  0.5123520000000  0.4684070000000 1.0
C      1  0.4477360000000  0.4524020000000  0.4745870000000 1.0
C      1  0.5032820000000  0.4274000000000  0.4729060000000 1.0
C      1  0.5558280000000  0.4840640000000  0.5314580000000 1.0
C      1  0.5388130000000  0.5346910000000  0.5313060000000 1.0
C      1  0.4946310000000  0.5631530000000  0.5285040000000 1.0
C      1  0.4518010000000  0.5377630000000  0.5274950000000 1.0
C      1  0.4498380000000  0.4883100000000  0.5322340000000 1.0
C      1  0.4810680000000  0.4472420000000  0.5319150000000 1.0
C      1  0.5299060000000  0.4395540000000  0.5279240000000 1.0
C      1  0.5368340000000  0.5759090000000  0.4995900000000 1.0
C      1  0.4586130000000  0.5765500000000  0.4944520000000 1.0
C      1  0.4237830000000  0.5128590000000  0.4939980000000 1.0
C      1  0.4413380000000  0.4499070000000  0.5014230000000 1.0
C      1  0.5013750000000  0.4131400000000  0.4966200000000 1.0
C      1  0.5697130000000  0.4495210000000  0.4950700000000 1.0
C      1  0.5766140000000  0.5199340000000  0.4999810000000 1.0
C      1  0.4650010000000  0.4826010000000  0.4413680000000 1.0
C      1  0.4857150000000  0.4605120000000  0.4430690000000 1.0
C      1  0.5161250000000  0.4672270000000  0.4467890000000 1.0
C      1  0.5315580000000  0.4936170000000  0.4467780000000 1.0
C      1  0.5256920000000  0.5240960000000  0.4471120000000 1.0
C      1  0.5014990000000  0.5423190000000  0.4437780000000 1.0
C      1  0.4762770000000  0.5274740000000  0.4415560000000 1.0
C      1  0.4996500000000  0.5589010000000  0.4689850000000 1.0
C      1  0.4582050000000  0.5346560000000  0.4652360000000 1.0
C      1  0.4477450000000  0.4831070000000  0.4659910000000 1.0
C      1  0.4789240000000  0.4467530000000  0.4697290000000 1.0
C      1  0.5265270000000  0.4500800000000  0.4694450000000 1.0
C      1  0.5531800000000  0.4895370000000  0.4681970000000 1.0
C      1  0.5413330000000  0.5355430000000  0.4699260000000 1.0
C      1  0.5359760000000  0.4926740000000  0.4934240000000 1.0
C      1  0.5249730000000  0.5220490000000  0.4915540000000 1.0
C      1  0.4988090000000  0.5386250000000  0.4927640000000 1.0
C      1  0.4714490000000  0.5232420000000  0.4909740000000 1.0
C      1  0.4658820000000  0.4902500000000  0.4913130000000 1.0
C      1  0.4874410000000  0.4659050000000  0.4928210000000 1.0
C      1  0.5189880000000  0.4662980000000  0.4945560000000 1.0
C      1  0.4557880000000  0.4608130000000  0.5227080000000 1.0
C      1  0.5029140000000  0.4324510000000  0.5169670000000 1.0
C      1  0.5511800000000  0.4581370000000  0.5154310000000 1.0
C      1  0.5570700000000  0.5129880000000  0.5200840000000 1.0
C      1  0.5234860000000  0.5574710000000  0.5172360000000 1.0
C      1  0.4677890000000  0.5597560000000  0.5149900000000 1.0
C      1  0.4385580000000  0.5124780000000  0.5178920000000 1.0
C      1  0.5172330000000  0.5247810000000  0.5476770000000 1.0
C      1  0.4944640000000  0.5428660000000  0.5500890000000 1.0
C      1  0.4683630000000  0.5290120000000  0.5501680000000 1.0
C      1  0.4698270000000  0.5000750000000  0.5495770000000 1.0
C      1  0.4950580000000  0.4579430000000  0.5559630000000 1.0
C      1  0.5244450000000  0.4530450000000  0.5538540000000 1.0
C      1  0.5385320000000  0.4795800000000  0.5554180000000 1.0
C      1  0.4973530000000  0.4989940000000  0.4742380000000 1.0
C      1  0.4882580000000  0.5004480000000  0.4442030000000 1.0
C      1  0.5177710000000  0.4998250000000  0.5627150000000 1.0
C      1  0.4911860000000  0.4861830000000  0.5639110000000 1.0
END
