TITL C-38192-7909-383 -3.14315229243513e-06 125000 -353.4188204316 0 0 60 (C2) n - 1
REM
REM in /home/bkarasulu/CARBON/AIRSS/Generating-Clusters/EDIP-Nigel-Params/Higher-Symm/Box-15A/Only-C60/SD-CG/FIRE-HFTN
REM
REM
REM
REM
REM
REM ./C.cell (414f73aa93bd7a1190c7fd0f31ff2f98)
REM
REM compiler GCC version 9.2.1 20190827 (Red Hat 9.2.1-1)
REM options -cpp -mtune=generic -march=x86-64 -g -O0 -fpre-include=/usr/include/finclude/math-vector-fortran.h
REM seed 574946352 1819416475 1123544734 -1741184560 892125692 -2035096433 -1698098431 125597762 -387954932 -373188063 1411266976 -1786125919 179175835 219087514 2072524356 331416167 1134126819 -1859670205 1411943601 39935239 1344077533 -1411289267 2101589615 -421330922 -850915961 -683354686 -772578377 1738219061 -1692575992 1582540664 811411393 -2127015159 -481025840
REM
CELL 1.54180   50.00000   50.00000   50.00000   90.00000   90.00000   90.00000
LATT -1
SFAC C  
C      1  0.5122570000000  0.5399020000000  0.4355880000000 1.0
C      1  0.4301970000000  0.5366790000000  0.5360760000000 1.0
C      1  0.5453880000000  0.5502180000000  0.5422460000000 1.0
C      1  0.5122570000000  0.4600980000000  0.5644120000000 1.0
C      1  0.4301970000000  0.4633210000000  0.4639240000000 1.0
C      1  0.5453880000000  0.4497820000000  0.4577540000000 1.0
C      1  0.5312610000000  0.4667350000000  0.5417160000000 1.0
C      1  0.5172160000000  0.4615050000000  0.4586840000000 1.0
C      1  0.4354330000000  0.4625010000000  0.4934020000000 1.0
C      1  0.5312610000000  0.5332650000000  0.4582840000000 1.0
C      1  0.5172160000000  0.5384950000000  0.5413160000000 1.0
C      1  0.4354330000000  0.5374990000000  0.5065980000000 1.0
C      1  0.5207050000000  0.4223220000000  0.5198960000000 1.0
C      1  0.4995570000000  0.4200350000000  0.4749040000000 1.0
C      1  0.4981910000000  0.4235630000000  0.5026750000000 1.0
C      1  0.5207050000000  0.5776780000000  0.4801040000000 1.0
C      1  0.4995570000000  0.5799650000000  0.5250960000000 1.0
C      1  0.4981910000000  0.5764370000000  0.4973250000000 1.0
C      1  0.5235870000000  0.4894100000000  0.4365270000000 1.0
C      1  0.4264310000000  0.4878360000000  0.5096170000000 1.0
C      1  0.5472070000000  0.4939700000000  0.5527130000000 1.0
C      1  0.5235870000000  0.5105900000000  0.5634730000000 1.0
C      1  0.4264310000000  0.5121640000000  0.4903830000000 1.0
C      1  0.5472070000000  0.5060300000000  0.4472870000000 1.0
C      1  0.5632340000000  0.5278080000000  0.5452100000000 1.0
C      1  0.5044440000000  0.5136210000000  0.4249120000000 1.0
C      1  0.4302160000000  0.5091050000000  0.5423130000000 1.0
C      1  0.5632340000000  0.4721920000000  0.4547900000000 1.0
C      1  0.5044440000000  0.4863790000000  0.5750880000000 1.0
C      1  0.4302160000000  0.4908950000000  0.4576870000000 1.0
C      1  0.4867700000000  0.5003900000000  0.5569760000000 1.0
C      1  0.5637650000000  0.4893770000000  0.4774020000000 1.0
C      1  0.4495140000000  0.5070760000000  0.4714140000000 1.0
C      1  0.4867700000000  0.4996100000000  0.4430240000000 1.0
C      1  0.5637650000000  0.5106230000000  0.5225980000000 1.0
C      1  0.4495140000000  0.4929240000000  0.5285860000000 1.0
C      1  0.4876990000000  0.4558340000000  0.5350080000000 1.0
C      1  0.5448920000000  0.4502550000000  0.4960770000000 1.0
C      1  0.4669970000000  0.4514050000000  0.4625770000000 1.0
C      1  0.4876990000000  0.5441660000000  0.4649920000000 1.0
C      1  0.5448920000000  0.5497450000000  0.5039230000000 1.0
C      1  0.4669970000000  0.5485950000000  0.5374230000000 1.0
C      1  0.4940560000000  0.5589340000000  0.5429500000000 1.0
C      1  0.5407970000000  0.5579480000000  0.4759620000000 1.0
C      1  0.4788310000000  0.5564490000000  0.4891000000000 1.0
C      1  0.4940560000000  0.4410660000000  0.4570500000000 1.0
C      1  0.5407970000000  0.4420520000000  0.5240380000000 1.0
C      1  0.4788310000000  0.4435510000000  0.5109000000000 1.0
C      1  0.4657390000000  0.5377190000000  0.5099020000000 1.0
C      1  0.5221230000000  0.5313670000000  0.5097320000000 1.0
C      1  0.5077730000000  0.5251460000000  0.4770510000000 1.0
C      1  0.4657390000000  0.4622810000000  0.4900980000000 1.0
C      1  0.5221230000000  0.4686330000000  0.4902680000000 1.0
C      1  0.5077730000000  0.4748540000000  0.5229490000000 1.0
C      1  0.5369290000000  0.5066960000000  0.5122910000000 1.0
C      1  0.4965000000000  0.4985210000000  0.4702600000000 1.0
C      1  0.4722900000000  0.5069300000000  0.5135090000000 1.0
C      1  0.5369290000000  0.4933040000000  0.4877090000000 1.0
C      1  0.4965000000000  0.5014790000000  0.5297400000000 1.0
C      1  0.4722900000000  0.4930700000000  0.4864910000000 1.0
END
