TITL C-38194-9318-651 1.08343957039539e-05 125000 -364.034436669187 0 0 60 (Cs) n - 1
REM
REM in /home/bkarasulu/CARBON/AIRSS/Generating-Clusters/EDIP-Nigel-Params/Higher-Symm/Box-15A/Only-C60/SD-CG/FIRE-HFTN
REM
REM
REM
REM
REM
REM ./C.cell (414f73aa93bd7a1190c7fd0f31ff2f98)
REM
REM compiler GCC version 9.2.1 20190827 (Red Hat 9.2.1-1)
REM options -cpp -mtune=generic -march=x86-64 -g -O0 -fpre-include=/usr/include/finclude/math-vector-fortran.h
REM seed -1960062965 2046492271 1743016648 -53183961 -1359728101 416686163 -494363549 561130660 1057315035 877105462 885860579 -548836378 1870827982 1603492922 579201389 -431806534 252919679 -321676529 -1177441858 -2133488048 -1304826588 -1088644053 -1193879306 1172501055 268681068 -1971878556 -1108218461 -461462846 926428503 -1048776183 -1174711230 1944658644 -1228830545
REM
CELL 1.54180   50.00000   50.00000   50.00000   90.00000   90.00000   90.00000
LATT -1
SFAC C  
C      1  0.5392220000000  0.5159130000000  0.5314390000000 1.0
C      1  0.5392220000000  0.4840870000000  0.5314390000000 1.0
C      1  0.5798340000000  0.4730720000000  0.4816110000000 1.0
C      1  0.5798340000000  0.5269280000000  0.4816110000000 1.0
C      1  0.5241220000000  0.5300690000000  0.5536430000000 1.0
C      1  0.5241220000000  0.4699310000000  0.5536430000000 1.0
C      1  0.5707870000000  0.4845530000000  0.5310400000000 1.0
C      1  0.5707870000000  0.5154470000000  0.5310400000000 1.0
C      1  0.4493540000000  0.5266960000000  0.5084170000000 1.0
C      1  0.4493540000000  0.4733040000000  0.5084170000000 1.0
C      1  0.5827820000000  0.5261310000000  0.5082520000000 1.0
C      1  0.5827820000000  0.4738690000000  0.5082520000000 1.0
C      1  0.4863130000000  0.5845960000000  0.4921790000000 1.0
C      1  0.4863130000000  0.4154040000000  0.4921790000000 1.0
C      1  0.4352980000000  0.5476260000000  0.4955900000000 1.0
C      1  0.4352980000000  0.4523740000000  0.4955900000000 1.0
C      1  0.5460110000000  0.4719510000000  0.4474150000000 1.0
C      1  0.5460110000000  0.5280490000000  0.4474150000000 1.0
C      1  0.4518940000000  0.4844050000000  0.5377300000000 1.0
C      1  0.4518940000000  0.5155950000000  0.5377300000000 1.0
C      1  0.4288280000000  0.5133640000000  0.4549040000000 1.0
C      1  0.4288280000000  0.4866360000000  0.4549040000000 1.0
C      1  0.4776960000000  0.5285690000000  0.5113950000000 1.0
C      1  0.4776960000000  0.4714310000000  0.5113950000000 1.0
C      1  0.4691690000000  0.4264040000000  0.4728410000000 1.0
C      1  0.4691690000000  0.5735960000000  0.4728410000000 1.0
C      1  0.4718340000000  0.5795400000000  0.5417160000000 1.0
C      1  0.4718340000000  0.4204600000000  0.5417160000000 1.0
C      1  0.4515610000000  0.5294050000000  0.4533310000000 1.0
C      1  0.4515610000000  0.4705950000000  0.4533310000000 1.0
C      1  0.5192420000000  0.5615380000000  0.4666140000000 1.0
C      1  0.5192420000000  0.4384620000000  0.4666140000000 1.0
C      1  0.5008080000000  0.5145330000000  0.5008900000000 1.0
C      1  0.5008080000000  0.4854670000000  0.5008900000000 1.0
C      1  0.5208850000000  0.4429220000000  0.5444070000000 1.0
C      1  0.5208850000000  0.5570780000000  0.5444070000000 1.0
C      1  0.4507510000000  0.4476480000000  0.4722100000000 1.0
C      1  0.4507510000000  0.5523520000000  0.4722100000000 1.0
C      1  0.4989340000000  0.4852190000000  0.5578850000000 1.0
C      1  0.4989340000000  0.5147810000000  0.5578850000000 1.0
C      1  0.5206370000000  0.5551510000000  0.5153810000000 1.0
C      1  0.5206370000000  0.4448490000000  0.5153810000000 1.0
C      1  0.4731880000000  0.5568250000000  0.5556910000000 1.0
C      1  0.4731880000000  0.4431750000000  0.5556910000000 1.0
C      1  0.4756320000000  0.4852840000000  0.4446940000000 1.0
C      1  0.4756320000000  0.5147160000000  0.4446940000000 1.0
C      1  0.5269980000000  0.5275990000000  0.5064340000000 1.0
C      1  0.5269980000000  0.4724010000000  0.5064340000000 1.0
C      1  0.4731030000000  0.5288950000000  0.5556340000000 1.0
C      1  0.4731030000000  0.4711050000000  0.5556340000000 1.0
C      1  0.5650340000000  0.5142680000000  0.4619620000000 1.0
C      1  0.5650340000000  0.4857320000000  0.4619620000000 1.0
C      1  0.5220570000000  0.5417810000000  0.4475230000000 1.0
C      1  0.5220570000000  0.4582190000000  0.4475230000000 1.0
C      1  0.5125110000000  0.4282050000000  0.4917530000000 1.0
C      1  0.5125110000000  0.5717950000000  0.4917530000000 1.0
C      1  0.4763900000000  0.4100780000000  0.5175850000000 1.0
C      1  0.4763900000000  0.5899220000000  0.5175850000000 1.0
C      1  0.4991250000000  0.5285170000000  0.4398320000000 1.0
C      1  0.4991250000000  0.4714830000000  0.4398320000000 1.0
END
