TITL C-38195-9455-533 2.33591358297436e-05 125000 -357.71047881831 0 0 60 (C1) n - 1
REM
REM in /home/bkarasulu/CARBON/AIRSS/Generating-Clusters/EDIP-Nigel-Params/Higher-Symm/Box-15A/Only-C60/SD-CG/FIRE-HFTN
REM
REM
REM
REM
REM
REM ./C.cell (414f73aa93bd7a1190c7fd0f31ff2f98)
REM
REM compiler GCC version 9.2.1 20190827 (Red Hat 9.2.1-1)
REM options -cpp -mtune=generic -march=x86-64 -g -O0 -fpre-include=/usr/include/finclude/math-vector-fortran.h
REM seed 332236868 -1919142527 502016221 -1089065858 1140015949 -2028188365 -480381927 -1959611852 1259499163 -1939261772 1391562801 1497057711 -1971303528 2015739205 -2131386685 2042906455 761593572 -1433102110 -30526860 -1109103929 -60093632 -303714016 1417720760 1824217190 -1930944123 440232937 -819176865 233996207 -1628017321 93245498 354141274 -100866611 891916237
REM
CELL 1.54180   50.00000   50.00000   50.00000   90.00000   90.00000   90.00000
LATT -1
SFAC C  
C      1  0.4510460000000  0.5452850000000  0.4407750000000 1.0
C      1  0.5259870000000  0.4524490000000  0.4660830000000 1.0
C      1  0.4711900000000  0.5116910000000  0.4205030000000 1.0
C      1  0.5512860000000  0.5135980000000  0.5461680000000 1.0
C      1  0.5205400000000  0.5231160000000  0.5128070000000 1.0
C      1  0.5588560000000  0.5469680000000  0.5063020000000 1.0
C      1  0.4515870000000  0.5648240000000  0.4603370000000 1.0
C      1  0.5678040000000  0.4688050000000  0.4835120000000 1.0
C      1  0.5670020000000  0.5030880000000  0.4478520000000 1.0
C      1  0.5768490000000  0.4905050000000  0.4706140000000 1.0
C      1  0.5284820000000  0.4163020000000  0.5201860000000 1.0
C      1  0.5079190000000  0.5289370000000  0.5390340000000 1.0
C      1  0.5405690000000  0.5584430000000  0.4894650000000 1.0
C      1  0.5659770000000  0.4847960000000  0.4240580000000 1.0
C      1  0.5237780000000  0.5140050000000  0.5583570000000 1.0
C      1  0.4247690000000  0.4975560000000  0.5122070000000 1.0
C      1  0.4784360000000  0.4810650000000  0.5139100000000 1.0
C      1  0.5133690000000  0.4943840000000  0.5031510000000 1.0
C      1  0.4424530000000  0.5418400000000  0.5154090000000 1.0
C      1  0.5718740000000  0.4673610000000  0.5417800000000 1.0
C      1  0.5283670000000  0.4562410000000  0.4379820000000 1.0
C      1  0.4581790000000  0.5655070000000  0.5079400000000 1.0
C      1  0.4383080000000  0.4683470000000  0.4696790000000 1.0
C      1  0.4784230000000  0.5197100000000  0.4818150000000 1.0
C      1  0.5619780000000  0.4427830000000  0.5338900000000 1.0
C      1  0.4705940000000  0.5665830000000  0.4808130000000 1.0
C      1  0.5356310000000  0.5049560000000  0.4473790000000 1.0
C      1  0.4600440000000  0.5618470000000  0.5553320000000 1.0
C      1  0.4440470000000  0.5396760000000  0.5439740000000 1.0
C      1  0.4797920000000  0.4350220000000  0.4768410000000 1.0
C      1  0.5160820000000  0.5454470000000  0.4936800000000 1.0
C      1  0.4398860000000  0.4872430000000  0.4495980000000 1.0
C      1  0.4841770000000  0.5228400000000  0.5763500000000 1.0
C      1  0.5363720000000  0.4076910000000  0.5455740000000 1.0
C      1  0.4812660000000  0.4167700000000  0.4974570000000 1.0
C      1  0.4316820000000  0.4946640000000  0.5393410000000 1.0
C      1  0.4588180000000  0.5103690000000  0.5794130000000 1.0
C      1  0.5569420000000  0.4236530000000  0.5536800000000 1.0
C      1  0.4997610000000  0.5429360000000  0.4466990000000 1.0
C      1  0.4914810000000  0.5444310000000  0.4759480000000 1.0
C      1  0.4267410000000  0.5233760000000  0.5015760000000 1.0
C      1  0.4422580000000  0.5139330000000  0.5568760000000 1.0
C      1  0.4288000000000  0.4767700000000  0.4943170000000 1.0
C      1  0.4768370000000  0.5387400000000  0.4285490000000 1.0
C      1  0.4454980000000  0.5085640000000  0.4330590000000 1.0
C      1  0.5227240000000  0.5284710000000  0.4403230000000 1.0
C      1  0.4560290000000  0.4470930000000  0.4691370000000 1.0
C      1  0.5027070000000  0.5566730000000  0.5462030000000 1.0
C      1  0.5680890000000  0.4921520000000  0.5510330000000 1.0
C      1  0.5038840000000  0.4777270000000  0.5258920000000 1.0
C      1  0.5095590000000  0.5113940000000  0.5829090000000 1.0
C      1  0.4845560000000  0.5517340000000  0.5691370000000 1.0
C      1  0.5032250000000  0.4102560000000  0.5110890000000 1.0
C      1  0.5424840000000  0.4403870000000  0.5126910000000 1.0
C      1  0.5471900000000  0.4505080000000  0.4859440000000 1.0
C      1  0.5361280000000  0.4813120000000  0.4264170000000 1.0
C      1  0.4863090000000  0.4944000000000  0.4886770000000 1.0
C      1  0.4727040000000  0.5749690000000  0.5316310000000 1.0
C      1  0.5029770000000  0.4368380000000  0.4606150000000 1.0
C      1  0.5496950000000  0.5229680000000  0.5180290000000 1.0
END
