TITL C-38199-1586-152 -5.999668418035e-06 125000 -354.833643637413 0 0 60 (C1) n - 1
REM
REM in /home/bkarasulu/CARBON/AIRSS/Generating-Clusters/EDIP-Nigel-Params/Higher-Symm/Box-15A/Only-C60/SD-CG/FIRE-HFTN
REM
REM
REM
REM
REM
REM ./C.cell (414f73aa93bd7a1190c7fd0f31ff2f98)
REM
REM compiler GCC version 9.2.1 20190827 (Red Hat 9.2.1-1)
REM options -cpp -mtune=generic -march=x86-64 -g -O0 -fpre-include=/usr/include/finclude/math-vector-fortran.h
REM seed -923265335 -1407451669 -1979215514 1965735069 -1367123810 240504413 -331234637 -772816377 1338170081 -647316495 -274453410 -577286462 2025961410 -742703507 943845743 2048392635 302337229 1136312407 1671404419 2126624269 919340006 169705201 943031050 -507667835 -232733198 409276026 3229371 -540642232 -1543244812 -155026889 -942836865 1008139240 -150826846
REM
CELL 1.54180   50.00000   50.00000   50.00000   90.00000   90.00000   90.00000
LATT -1
SFAC C  
C      1  0.4810140000000  0.4151580000000  0.5082000000000 1.0
C      1  0.5791780000000  0.5232310000000  0.5115970000000 1.0
C      1  0.4393500000000  0.5556730000000  0.5117080000000 1.0
C      1  0.5552820000000  0.4958350000000  0.5673210000000 1.0
C      1  0.4756480000000  0.5500380000000  0.5667230000000 1.0
C      1  0.4830960000000  0.4677740000000  0.5723140000000 1.0
C      1  0.4511140000000  0.5042400000000  0.4528830000000 1.0
C      1  0.5242330000000  0.4473800000000  0.4515480000000 1.0
C      1  0.5302140000000  0.5472200000000  0.4506130000000 1.0
C      1  0.5128960000000  0.5178450000000  0.4865210000000 1.0
C      1  0.4843240000000  0.4922550000000  0.4888110000000 1.0
C      1  0.5087780000000  0.4921680000000  0.4738300000000 1.0
C      1  0.5401230000000  0.4722370000000  0.5664950000000 1.0
C      1  0.5033800000000  0.5536700000000  0.5641080000000 1.0
C      1  0.4574580000000  0.4763210000000  0.5643980000000 1.0
C      1  0.4841790000000  0.5691930000000  0.4977510000000 1.0
C      1  0.4475930000000  0.4482740000000  0.4931260000000 1.0
C      1  0.5628070000000  0.4796230000000  0.4974620000000 1.0
C      1  0.5253270000000  0.4198720000000  0.5234020000000 1.0
C      1  0.5560250000000  0.5649520000000  0.5186180000000 1.0
C      1  0.4163290000000  0.5126990000000  0.5197920000000 1.0
C      1  0.4662590000000  0.5580160000000  0.5179210000000 1.0
C      1  0.4696630000000  0.4401950000000  0.5106340000000 1.0
C      1  0.5656900000000  0.4999860000000  0.5180710000000 1.0
C      1  0.5648480000000  0.4854510000000  0.4689340000000 1.0
C      1  0.4757160000000  0.5677040000000  0.4709200000000 1.0
C      1  0.4543030000000  0.4494140000000  0.4642790000000 1.0
C      1  0.5450780000000  0.5010850000000  0.5398920000000 1.0
C      1  0.4767200000000  0.5394640000000  0.5387620000000 1.0
C      1  0.4731220000000  0.4552720000000  0.5353890000000 1.0
C      1  0.4531350000000  0.4941080000000  0.5423870000000 1.0
C      1  0.5242110000000  0.4624230000000  0.5449900000000 1.0
C      1  0.5202980000000  0.5452220000000  0.5428310000000 1.0
C      1  0.4554370000000  0.5219190000000  0.5496310000000 1.0
C      1  0.4976060000000  0.4530460000000  0.5526110000000 1.0
C      1  0.5421000000000  0.5282980000000  0.5508960000000 1.0
C      1  0.5280120000000  0.4906480000000  0.4338390000000 1.0
C      1  0.4846310000000  0.5305990000000  0.4380540000000 1.0
C      1  0.4910550000000  0.4787220000000  0.4357570000000 1.0
C      1  0.5287300000000  0.5655330000000  0.5236460000000 1.0
C      1  0.4303520000000  0.4891390000000  0.5246080000000 1.0
C      1  0.5378330000000  0.4444870000000  0.5264550000000 1.0
C      1  0.4995910000000  0.4342990000000  0.4552620000000 1.0
C      1  0.5515740000000  0.5293970000000  0.4520830000000 1.0
C      1  0.4443520000000  0.5307640000000  0.4613040000000 1.0
C      1  0.4805980000000  0.4548760000000  0.4525920000000 1.0
C      1  0.5505700000000  0.5015230000000  0.4492810000000 1.0
C      1  0.4679100000000  0.5450910000000  0.4562060000000 1.0
C      1  0.5048640000000  0.4051720000000  0.5146120000000 1.0
C      1  0.5769880000000  0.5497090000000  0.5124200000000 1.0
C      1  0.4189880000000  0.5385870000000  0.5137730000000 1.0
C      1  0.5293520000000  0.4697380000000  0.4712680000000 1.0
C      1  0.5090480000000  0.5435970000000  0.4722650000000 1.0
C      1  0.4591680000000  0.4860000000000  0.4750590000000 1.0
C      1  0.4736310000000  0.5036170000000  0.4334650000000 1.0
C      1  0.5253850000000  0.4631710000000  0.4277250000000 1.0
C      1  0.5107210000000  0.5395330000000  0.4316730000000 1.0
C      1  0.5476070000000  0.4558150000000  0.5023130000000 1.0
C      1  0.5128220000000  0.5695390000000  0.5002210000000 1.0
C      1  0.4336840000000  0.4731790000000  0.5007530000000 1.0
END
