TITL C-38191-7580-377 1.06852567850432e-05 125000 -369.696675931169 0 0 60 (C3) n - 1
REM
REM in /home/bkarasulu/CARBON/AIRSS/Generating-Clusters/EDIP-Nigel-Params/Higher-Symm/Box-15A/Only-C60/SD-CG/FIRE-HFTN
REM
REM
REM
REM
REM
REM ./C.cell (414f73aa93bd7a1190c7fd0f31ff2f98)
REM
REM compiler GCC version 9.2.1 20190827 (Red Hat 9.2.1-1)
REM options -cpp -mtune=generic -march=x86-64 -g -O0 -fpre-include=/usr/include/finclude/math-vector-fortran.h
REM seed 443944498 -510797510 1784155037 -484863190 1111957156 -181455026 -2089361179 -1569580086 2081676090 428324822 -286135820 1083584593 -432829453 -810519905 -3741648 139080093 -1479400479 -850168148 1476221707 -1204016726 -243661328 1319944809 545372690 -312197664 762269677 -787816584 1876181650 -3906914 -871620986 112088832 1110240773 1697873565 2132576692
REM
CELL 1.54180   50.00000   50.00000   50.00000   90.00000   90.00000   90.00000
LATT -1
SFAC C  
C      1  0.4700750000000  0.4386440000000  0.4774490000000 1.0
C      1  0.4954320000000  0.4386440000000  0.5371910000000 1.0
C      1  0.5344930000000  0.4386440000000  0.4853600000000 1.0
C      1  0.5676960000000  0.5393600000000  0.5182770000000 1.0
C      1  0.4819800000000  0.5393600000000  0.4322350000000 1.0
C      1  0.4503240000000  0.5393600000000  0.5494880000000 1.0
C      1  0.5478040000000  0.5186900000000  0.4418700000000 1.0
C      1  0.4257560000000  0.5186900000000  0.4876660000000 1.0
C      1  0.5264400000000  0.5186900000000  0.5704640000000 1.0
C      1  0.4786100000000  0.4736430000000  0.5647960000000 1.0
C      1  0.5668100000000  0.4736430000000  0.4861260000000 1.0
C      1  0.4545800000000  0.4736430000000  0.4490780000000 1.0
C      1  0.5473450000000  0.4606170000000  0.4709840000000 1.0
C      1  0.4512000000000  0.4606170000000  0.4735060000000 1.0
C      1  0.5014560000000  0.4606170000000  0.5555090000000 1.0
C      1  0.4703050000000  0.4400600000000  0.5217670000000 1.0
C      1  0.5336990000000  0.4400600000000  0.5148330000000 1.0
C      1  0.4959960000000  0.4400600000000  0.4634000000000 1.0
C      1  0.5129750000000  0.5019310000000  0.5281750000000 1.0
C      1  0.5179130000000  0.5019310000000  0.4746760000000 1.0
C      1  0.4691120000000  0.5019310000000  0.4971490000000 1.0
C      1  0.4663830000000  0.4841200000000  0.5416800000000 1.0
C      1  0.5529040000000  0.4841200000000  0.5082730000000 1.0
C      1  0.4807130000000  0.4841200000000  0.4500470000000 1.0
C      1  0.5168850000000  0.4225220000000  0.4703570000000 1.0
C      1  0.4658860000000  0.4225220000000  0.5001990000000 1.0
C      1  0.5172290000000  0.4225220000000  0.5294450000000 1.0
C      1  0.5286760000000  0.4998530000000  0.5028170000000 1.0
C      1  0.4881010000000  0.4998530000000  0.4737580000000 1.0
C      1  0.4832230000000  0.4998530000000  0.5234260000000 1.0
C      1  0.4218900000000  0.4923100000000  0.4962040000000 1.0
C      1  0.5357680000000  0.4923100000000  0.5695430000000 1.0
C      1  0.5423420000000  0.4923100000000  0.4342530000000 1.0
C      1  0.5048540000000  0.5453810000000  0.4468630000000 1.0
C      1  0.4515550000000  0.5453810000000  0.5223640000000 1.0
C      1  0.5435910000000  0.5453810000000  0.5307720000000 1.0
C      1  0.5838910000000  0.5368620000000  0.4973640000000 1.0
C      1  0.4557720000000  0.5368620000000  0.4286670000000 1.0
C      1  0.4603380000000  0.5368620000000  0.5739690000000 1.0
C      1  0.4319140000000  0.5320300000000  0.4391950000000 1.0
C      1  0.4813840000000  0.5320300000000  0.5893660000000 1.0
C      1  0.5867010000000  0.5320300000000  0.4714390000000 1.0
C      1  0.5734430000000  0.5249010000000  0.4495410000000 1.0
C      1  0.4195790000000  0.5249010000000  0.4616260000000 1.0
C      1  0.5069780000000  0.5249010000000  0.5888330000000 1.0
C      1  0.4527780000000  0.5280400000000  0.4957230000000 1.0
C      1  0.5199070000000  0.5280400000000  0.5430340000000 1.0
C      1  0.5273150000000  0.5280400000000  0.4612430000000 1.0
C      1  0.5284800000000  0.4788680000000  0.4559010000000 1.0
C      1  0.4475690000000  0.4788680000000  0.4973850000000 1.0
C      1  0.5239510000000  0.4788680000000  0.5467140000000 1.0
C      1  0.5442690000000  0.4642590000000  0.5287310000000 1.0
C      1  0.5027470000000  0.4642590000000  0.4472960000000 1.0
C      1  0.4529840000000  0.4642590000000  0.5239730000000 1.0
C      1  0.4759470000000  0.5567990000000  0.4849670000000 1.0
C      1  0.4990080000000  0.5567990000000  0.5283470000000 1.0
C      1  0.5250460000000  0.5567990000000  0.4866860000000 1.0
C      1  0.5243860000000  0.5611100000000  0.5151080000000 1.0
C      1  0.5008910000000  0.5611100000000  0.4713270000000 1.0
C      1  0.4747230000000  0.5611100000000  0.5135650000000 1.0
END
