TITL C-38192-7909-398 2.43518495241269e-05 125000 -358.817510095782 0 0 60 (C5) n - 1
REM
REM in /home/bkarasulu/CARBON/AIRSS/Generating-Clusters/EDIP-Nigel-Params/Higher-Symm/Box-15A/Only-C60/SD-CG/FIRE-HFTN
REM
REM
REM
REM
REM
REM ./C.cell (414f73aa93bd7a1190c7fd0f31ff2f98)
REM
REM compiler GCC version 9.2.1 20190827 (Red Hat 9.2.1-1)
REM options -cpp -mtune=generic -march=x86-64 -g -O0 -fpre-include=/usr/include/finclude/math-vector-fortran.h
REM seed 736666370 -1027508269 2133178059 -327013427 -598458374 713009180 1562831791 1375103839 17923484 1991887313 -669451151 -1449285940 407905728 1824897277 -177478737 2082962856 733012262 1422721211 -841406737 -2085331104 573284618 -1679175164 327777952 1373257737 1949991815 801399606 -1442879700 20822528 481095797 -1966958070 -1521133918 -1905797788 1605297836
REM
CELL 1.54180   50.00000   50.00000   50.00000   90.00000   90.00000   90.00000
LATT -1
SFAC C  
C      1  0.5666470000000  0.4704750000000  0.5061960000000 1.0
C      1  0.5482550000000  0.5549730000000  0.5060170000000 1.0
C      1  0.4632900000000  0.5628660000000  0.5061980000000 1.0
C      1  0.4287840000000  0.4848070000000  0.5062080000000 1.0
C      1  0.4932010000000  0.4271150000000  0.5060180000000 1.0
C      1  0.4771790000000  0.5173500000000  0.5592610000000 1.0
C      1  0.4764230000000  0.4836870000000  0.5592750000000 1.0
C      1  0.5082810000000  0.4724810000000  0.5592330000000 1.0
C      1  0.5286480000000  0.4993060000000  0.5592750000000 1.0
C      1  0.5094560000000  0.5271030000000  0.5592740000000 1.0
C      1  0.5286320000000  0.5135640000000  0.4777870000000 1.0
C      1  0.4961600000000  0.5314280000000  0.4776420000000 1.0
C      1  0.4689250000000  0.5061210000000  0.4776130000000 1.0
C      1  0.4847880000000  0.4721810000000  0.4777740000000 1.0
C      1  0.5214900000000  0.4767500000000  0.4776060000000 1.0
C      1  0.4744630000000  0.5008520000000  0.5211980000000 1.0
C      1  0.4911780000000  0.4757900000000  0.5212340000000 1.0
C      1  0.5201540000000  0.4841980000000  0.5211810000000 1.0
C      1  0.5213480000000  0.5143340000000  0.5212580000000 1.0
C      1  0.4929980000000  0.5245410000000  0.5212210000000 1.0
C      1  0.4428900000000  0.5462640000000  0.4917370000000 1.0
C      1  0.4382580000000  0.4602040000000  0.4918470000000 1.0
C      1  0.5194530000000  0.4289010000000  0.4916310000000 1.0
C      1  0.5733460000000  0.4959690000000  0.4918530000000 1.0
C      1  0.5259380000000  0.5689340000000  0.4916520000000 1.0
C      1  0.5142020000000  0.5537360000000  0.4673920000000 1.0
C      1  0.4534490000000  0.5302980000000  0.4674270000000 1.0
C      1  0.4568500000000  0.4651500000000  0.4676030000000 1.0
C      1  0.5200430000000  0.4481010000000  0.4673770000000 1.0
C      1  0.5553530000000  0.5028220000000  0.4676340000000 1.0
C      1  0.4547400000000  0.5358960000000  0.5402100000000 1.0
C      1  0.4516270000000  0.4682470000000  0.5403070000000 1.0
C      1  0.5156550000000  0.4442210000000  0.5401050000000 1.0
C      1  0.5577720000000  0.4972400000000  0.5403050000000 1.0
C      1  0.5200760000000  0.5542750000000  0.5401340000000 1.0
C      1  0.4885320000000  0.5476460000000  0.5035030000000 1.0
C      1  0.4511640000000  0.5039590000000  0.5034780000000 1.0
C      1  0.4809760000000  0.4542500000000  0.5036020000000 1.0
C      1  0.5372760000000  0.4680850000000  0.5034570000000 1.0
C      1  0.5422230000000  0.5258240000000  0.5036170000000 1.0
C      1  0.5503690000000  0.4857270000000  0.4457730000000 1.0
C      1  0.5291310000000  0.5435450000000  0.4457390000000 1.0
C      1  0.4676360000000  0.5411780000000  0.4456290000000 1.0
C      1  0.4508580000000  0.4819600000000  0.4457680000000 1.0
C      1  0.5020170000000  0.4476190000000  0.4456950000000 1.0
C      1  0.5334500000000  0.4420690000000  0.5153250000000 1.0
C      1  0.5655890000000  0.5133870000000  0.5156100000000 1.0
C      1  0.5068940000000  0.5664750000000  0.5153620000000 1.0
C      1  0.4390990000000  0.5273330000000  0.5153260000000 1.0
C      1  0.4547600000000  0.4506220000000  0.5155920000000 1.0
C      1  0.5013400000000  0.4748860000000  0.4372730000000 1.0
C      1  0.5242910000000  0.4935140000000  0.4372380000000 1.0
C      1  0.5136880000000  0.5210840000000  0.4372670000000 1.0
C      1  0.4841800000000  0.5195100000000  0.4372010000000 1.0
C      1  0.4765510000000  0.4909540000000  0.4372380000000 1.0
C      1  0.5717410000000  0.4730910000000  0.5344080000000 1.0
C      1  0.5472320000000  0.5605300000000  0.5342110000000 1.0
C      1  0.4575500000000  0.5636660000000  0.5343900000000 1.0
C      1  0.4261790000000  0.4796750000000  0.5344120000000 1.0
C      1  0.4973220000000  0.4232300000000  0.5342080000000 1.0
END
