TITL C-38191-7580-510 9.98815748072721e-05 125000 -365.960111353859 0 0 60 (C1) n - 1
REM
REM in /home/bkarasulu/CARBON/AIRSS/Generating-Clusters/EDIP-Nigel-Params/Higher-Symm/Box-15A/Only-C60/SD-CG/FIRE-HFTN
REM
REM
REM
REM
REM
REM ./C.cell (414f73aa93bd7a1190c7fd0f31ff2f98)
REM
REM compiler GCC version 9.2.1 20190827 (Red Hat 9.2.1-1)
REM options -cpp -mtune=generic -march=x86-64 -g -O0 -fpre-include=/usr/include/finclude/math-vector-fortran.h
REM seed 1742847501 1038548784 1212596225 433629414 704195432 524019792 -251645634 -295776761 -1213850643 -1306965790 1406615410 -978616170 -1101042111 1044357942 -904615887 1233298727 -1044312172 1604985914 1693550176 -777071039 1271684213 1503513586 -943086888 -373434202 -830388463 -1204963517 -2045339173 -911724896 398461158 321512495 217731473 1627373906 -1770049229
REM
CELL 1.54180   50.00000   50.00000   50.00000   90.00000   90.00000   90.00000
LATT -1
SFAC C  
C      1  0.4262550000000  0.5058510000000  0.4656160000000 1.0
C      1  0.5220980000000  0.5130420000000  0.5068850000000 1.0
C      1  0.5130080000000  0.5038210000000  0.4348720000000 1.0
C      1  0.4991070000000  0.4282200000000  0.5295840000000 1.0
C      1  0.5104790000000  0.5668880000000  0.5137530000000 1.0
C      1  0.5116480000000  0.5726960000000  0.5414240000000 1.0
C      1  0.5030930000000  0.4242770000000  0.4663930000000 1.0
C      1  0.5629370000000  0.5346260000000  0.5228590000000 1.0
C      1  0.5200630000000  0.4354150000000  0.4475990000000 1.0
C      1  0.4574300000000  0.4461580000000  0.5148270000000 1.0
C      1  0.5141410000000  0.4122620000000  0.4887390000000 1.0
C      1  0.5577620000000  0.5638070000000  0.4987250000000 1.0
C      1  0.4720650000000  0.4773420000000  0.4384590000000 1.0
C      1  0.5619540000000  0.4699060000000  0.4923310000000 1.0
C      1  0.4439090000000  0.5481150000000  0.4819320000000 1.0
C      1  0.4299050000000  0.4766200000000  0.4666850000000 1.0
C      1  0.4477750000000  0.5252220000000  0.4660240000000 1.0
C      1  0.5126900000000  0.4671670000000  0.5631200000000 1.0
C      1  0.5042630000000  0.5093690000000  0.5332240000000 1.0
C      1  0.4892520000000  0.5117190000000  0.5756370000000 1.0
C      1  0.4846120000000  0.5019490000000  0.4402080000000 1.0
C      1  0.5493230000000  0.4963620000000  0.5537560000000 1.0
C      1  0.5545130000000  0.4592860000000  0.4679460000000 1.0
C      1  0.5554770000000  0.4580220000000  0.5174500000000 1.0
C      1  0.5064090000000  0.5606160000000  0.5658750000000 1.0
C      1  0.4867150000000  0.5396130000000  0.5693020000000 1.0
C      1  0.4839590000000  0.5496720000000  0.4467990000000 1.0
C      1  0.5223530000000  0.5709240000000  0.4674140000000 1.0
C      1  0.5441540000000  0.4328580000000  0.5184790000000 1.0
C      1  0.4904800000000  0.5531220000000  0.4947690000000 1.0
C      1  0.5567300000000  0.5412360000000  0.4793360000000 1.0
C      1  0.5316990000000  0.5771740000000  0.4957900000000 1.0
C      1  0.4606810000000  0.5416310000000  0.5271330000000 1.0
C      1  0.4691360000000  0.5259350000000  0.4459180000000 1.0
C      1  0.4974410000000  0.5224880000000  0.4923280000000 1.0
C      1  0.5598340000000  0.5209400000000  0.5464600000000 1.0
C      1  0.5276270000000  0.4802930000000  0.4347980000000 1.0
C      1  0.5372230000000  0.4570610000000  0.4464790000000 1.0
C      1  0.5198170000000  0.4952580000000  0.5585440000000 1.0
C      1  0.5518230000000  0.5197610000000  0.4998870000000 1.0
C      1  0.4620870000000  0.4314140000000  0.4917440000000 1.0
C      1  0.5205250000000  0.4190090000000  0.5147870000000 1.0
C      1  0.4933770000000  0.5660640000000  0.4675520000000 1.0
C      1  0.4766380000000  0.4349370000000  0.4683190000000 1.0
C      1  0.5584780000000  0.4738360000000  0.5401170000000 1.0
C      1  0.5267560000000  0.5274020000000  0.4401760000000 1.0
C      1  0.4111750000000  0.5006080000000  0.4904880000000 1.0
C      1  0.5358950000000  0.5459450000000  0.4594800000000 1.0
C      1  0.4684850000000  0.4529870000000  0.4490010000000 1.0
C      1  0.4889830000000  0.5373150000000  0.5388860000000 1.0
C      1  0.4799560000000  0.4479120000000  0.5329970000000 1.0
C      1  0.4514460000000  0.4995050000000  0.5451510000000 1.0
C      1  0.4615370000000  0.5571450000000  0.5022230000000 1.0
C      1  0.4357200000000  0.4634570000000  0.5135590000000 1.0
C      1  0.5674520000000  0.4967370000000  0.4936050000000 1.0
C      1  0.4736700000000  0.4920530000000  0.5604410000000 1.0
C      1  0.4779390000000  0.5043930000000  0.5052960000000 1.0
C      1  0.4554190000000  0.5135920000000  0.5211500000000 1.0
C      1  0.4183670000000  0.4721490000000  0.4935370000000 1.0
C      1  0.4862550000000  0.4668170000000  0.5541310000000 1.0
END
