TITL C-38197-8510-272 1.2544600543026e-06 125000 -368.245156575319 0 0 60 (C2h) n - 1
REM
REM in /home/bkarasulu/CARBON/AIRSS/Generating-Clusters/EDIP-Nigel-Params/Higher-Symm/Box-15A/Only-C60/SD-CG/FIRE-HFTN
REM
REM
REM
REM
REM
REM ./C.cell (414f73aa93bd7a1190c7fd0f31ff2f98)
REM
REM compiler GCC version 9.2.1 20190827 (Red Hat 9.2.1-1)
REM options -cpp -mtune=generic -march=x86-64 -g -O0 -fpre-include=/usr/include/finclude/math-vector-fortran.h
REM seed 164247569 449386708 1286688748 -1013659297 -1516799664 -622997151 -669798696 -1194487105 -1912190397 788639740 -1907977087 -649403491 1443976602 535486803 -2094669097 -263393537 -172267798 1603064974 1131049432 424055758 1223135143 -1949494541 -816282237 1995972822 -704801417 1965036378 -1750519773 -1626293210 -109234876 2112723095 -186189036 1115824384 1686677984
REM
CELL 1.54180   50.00000   50.00000   50.00000   90.00000   90.00000   90.00000
LATT -1
SFAC C  
C      1  0.5264880000000  0.5715250000000  0.4769150000000 1.0
C      1  0.4252280000000  0.4865020000000  0.4783910000000 1.0
C      1  0.5502930000000  0.4412250000000  0.4770950000000 1.0
C      1  0.4735120000000  0.5715250000000  0.5230850000000 1.0
C      1  0.5747720000000  0.4865020000000  0.5216090000000 1.0
C      1  0.4497070000000  0.4412250000000  0.5229050000000 1.0
C      1  0.4735120000000  0.4284750000000  0.5230850000000 1.0
C      1  0.5747720000000  0.5134980000000  0.5216090000000 1.0
C      1  0.4497070000000  0.5587750000000  0.5229050000000 1.0
C      1  0.5264880000000  0.4284750000000  0.4769150000000 1.0
C      1  0.4252280000000  0.5134980000000  0.4783910000000 1.0
C      1  0.5502930000000  0.5587750000000  0.4770950000000 1.0
C      1  0.4756670000000  0.4856100000000  0.4380860000000 1.0
C      1  0.5255670000000  0.4856950000000  0.4370360000000 1.0
C      1  0.5004740000000  0.5286430000000  0.4368370000000 1.0
C      1  0.5243330000000  0.4856100000000  0.5619140000000 1.0
C      1  0.4744330000000  0.4856950000000  0.5629640000000 1.0
C      1  0.4995260000000  0.5286430000000  0.5631630000000 1.0
C      1  0.5243330000000  0.5143900000000  0.5619140000000 1.0
C      1  0.4744330000000  0.5143050000000  0.5629640000000 1.0
C      1  0.4995260000000  0.4713570000000  0.5631630000000 1.0
C      1  0.4756670000000  0.5143900000000  0.4380860000000 1.0
C      1  0.5255670000000  0.5143050000000  0.4370360000000 1.0
C      1  0.5004740000000  0.4713570000000  0.4368370000000 1.0
C      1  0.5274900000000  0.4836910000000  0.5149970000000 1.0
C      1  0.4992490000000  0.5317060000000  0.5189470000000 1.0
C      1  0.4717090000000  0.4833140000000  0.5171240000000 1.0
C      1  0.4725100000000  0.4836910000000  0.4850030000000 1.0
C      1  0.5007510000000  0.5317060000000  0.4810530000000 1.0
C      1  0.5282910000000  0.4833140000000  0.4828760000000 1.0
C      1  0.4725100000000  0.5163090000000  0.4850030000000 1.0
C      1  0.5007510000000  0.4682940000000  0.4810530000000 1.0
C      1  0.5282910000000  0.5166860000000  0.4828760000000 1.0
C      1  0.5274900000000  0.5163090000000  0.5149970000000 1.0
C      1  0.4992490000000  0.4682940000000  0.5189470000000 1.0
C      1  0.4717090000000  0.5166860000000  0.5171240000000 1.0
C      1  0.5476390000000  0.4710640000000  0.5567600000000 1.0
C      1  0.5002570000000  0.5563830000000  0.5586890000000 1.0
C      1  0.4502120000000  0.4724430000000  0.5582170000000 1.0
C      1  0.4523610000000  0.4710640000000  0.4432400000000 1.0
C      1  0.4997430000000  0.5563830000000  0.4413110000000 1.0
C      1  0.5497880000000  0.4724430000000  0.4417830000000 1.0
C      1  0.4523610000000  0.5289360000000  0.4432400000000 1.0
C      1  0.4997430000000  0.4436170000000  0.4413110000000 1.0
C      1  0.5497880000000  0.5275570000000  0.4417830000000 1.0
C      1  0.5476390000000  0.5289360000000  0.5567600000000 1.0
C      1  0.5002570000000  0.4436170000000  0.5586890000000 1.0
C      1  0.4502120000000  0.5275570000000  0.5582170000000 1.0
C      1  0.5516700000000  0.4728210000000  0.5291520000000 1.0
C      1  0.4971580000000  0.5590460000000  0.5310040000000 1.0
C      1  0.4495510000000  0.4680650000000  0.5305740000000 1.0
C      1  0.4483300000000  0.4728210000000  0.4708480000000 1.0
C      1  0.5028420000000  0.5590460000000  0.4689960000000 1.0
C      1  0.5504490000000  0.4680650000000  0.4694260000000 1.0
C      1  0.4483300000000  0.5271790000000  0.4708480000000 1.0
C      1  0.5028420000000  0.4409540000000  0.4689960000000 1.0
C      1  0.5504490000000  0.5319350000000  0.4694260000000 1.0
C      1  0.5516700000000  0.5271790000000  0.5291520000000 1.0
C      1  0.4971580000000  0.4409540000000  0.5310040000000 1.0
C      1  0.4495510000000  0.5319350000000  0.5305740000000 1.0
END
