TITL C-38187-2739-102 1.08980306073815e-05 125000 -357.629307495849 0 0 60 (Ci) n - 1
REM
REM in /home/bkarasulu/CARBON/AIRSS/Generating-Clusters/EDIP-Nigel-Params/Higher-Symm/Box-15A/Only-C60/SD-CG/FIRE-HFTN
REM
REM
REM
REM
REM
REM ./C.cell (414f73aa93bd7a1190c7fd0f31ff2f98)
REM
REM compiler GCC version 9.2.1 20190827 (Red Hat 9.2.1-1)
REM options -cpp -mtune=generic -march=x86-64 -g -O0 -fpre-include=/usr/include/finclude/math-vector-fortran.h
REM seed -607807684 409457551 257875040 -2083016317 -758696549 655273190 1539423879 469609722 -268934628 1125712096 -1802769779 520657308 -799467137 -462197648 -879186585 -1819476926 -2116880974 -1035067350 1911203703 -1688056426 -1115482729 1469814186 550964885 1481602805 486817949 197880993 -1534540746 -458139118 724053631 1895691525 -1658025198 585683072 1893412494
REM
CELL 1.54180   50.00000   50.00000   50.00000   90.00000   90.00000   90.00000
LATT -1
SFAC C  
C      1  0.4485440000000  0.5484600000000  0.5250600000000 1.0
C      1  0.5514560000000  0.4515400000000  0.4749400000000 1.0
C      1  0.4913460000000  0.4927940000000  0.5541610000000 1.0
C      1  0.5086540000000  0.5072060000000  0.4458390000000 1.0
C      1  0.5116330000000  0.5383520000000  0.4440120000000 1.0
C      1  0.4883670000000  0.4616480000000  0.5559880000000 1.0
C      1  0.4964670000000  0.5120160000000  0.4196840000000 1.0
C      1  0.5035330000000  0.4879840000000  0.5803160000000 1.0
C      1  0.4989320000000  0.4771150000000  0.4866030000000 1.0
C      1  0.5010680000000  0.5228850000000  0.5133970000000 1.0
C      1  0.5365310000000  0.5408620000000  0.5395350000000 1.0
C      1  0.4634690000000  0.4591380000000  0.4604650000000 1.0
C      1  0.5610270000000  0.5018210000000  0.4681140000000 1.0
C      1  0.4389730000000  0.4981790000000  0.5318860000000 1.0
C      1  0.5397730000000  0.4558550000000  0.5673740000000 1.0
C      1  0.4602270000000  0.5441450000000  0.4326260000000 1.0
C      1  0.4897080000000  0.4996400000000  0.4686530000000 1.0
C      1  0.5102920000000  0.5003600000000  0.5313470000000 1.0
C      1  0.5421920000000  0.5367560000000  0.4908370000000 1.0
C      1  0.4578080000000  0.4632440000000  0.5091630000000 1.0
C      1  0.5497010000000  0.4333920000000  0.4538940000000 1.0
C      1  0.4502990000000  0.5666080000000  0.5461060000000 1.0
C      1  0.4858050000000  0.5259620000000  0.4870260000000 1.0
C      1  0.5141950000000  0.4740380000000  0.5129740000000 1.0
C      1  0.5222130000000  0.5442460000000  0.5142450000000 1.0
C      1  0.4777870000000  0.4557540000000  0.4857550000000 1.0
C      1  0.4603680000000  0.4531450000000  0.5594730000000 1.0
C      1  0.5396320000000  0.5468550000000  0.4405270000000 1.0
C      1  0.4994170000000  0.5474980000000  0.4698540000000 1.0
C      1  0.5005830000000  0.4525020000000  0.5301460000000 1.0
C      1  0.5436370000000  0.4440680000000  0.5023640000000 1.0
C      1  0.4563630000000  0.5559320000000  0.4976360000000 1.0
C      1  0.4433820000000  0.4877150000000  0.5056750000000 1.0
C      1  0.5566180000000  0.5122850000000  0.4943250000000 1.0
C      1  0.4447920000000  0.4540040000000  0.5349510000000 1.0
C      1  0.5552080000000  0.5459960000000  0.4650490000000 1.0
C      1  0.4295000000000  0.5255030000000  0.5246730000000 1.0
C      1  0.5705000000000  0.4744970000000  0.4753270000000 1.0
C      1  0.4789850000000  0.5332660000000  0.4164640000000 1.0
C      1  0.5210150000000  0.4667340000000  0.5835360000000 1.0
C      1  0.4851460000000  0.5649930000000  0.4903470000000 1.0
C      1  0.5148540000000  0.4350070000000  0.5096530000000 1.0
C      1  0.5564310000000  0.4978510000000  0.5534350000000 1.0
C      1  0.4435690000000  0.5021490000000  0.4465650000000 1.0
C      1  0.4954790000000  0.5814880000000  0.5353980000000 1.0
C      1  0.5045210000000  0.4185120000000  0.4646020000000 1.0
C      1  0.5541060000000  0.4704710000000  0.5484150000000 1.0
C      1  0.4458940000000  0.5295290000000  0.4515850000000 1.0
C      1  0.5054370000000  0.5699640000000  0.5122710000000 1.0
C      1  0.4945630000000  0.4300360000000  0.4877290000000 1.0
C      1  0.4262340000000  0.5200340000000  0.4956530000000 1.0
C      1  0.5737660000000  0.4799660000000  0.5043470000000 1.0
C      1  0.4313130000000  0.4764360000000  0.5492230000000 1.0
C      1  0.5686870000000  0.5235640000000  0.4507770000000 1.0
C      1  0.5349360000000  0.5130500000000  0.5437720000000 1.0
C      1  0.4650640000000  0.4869500000000  0.4562280000000 1.0
C      1  0.5560920000000  0.4638980000000  0.5199510000000 1.0
C      1  0.4439080000000  0.5361020000000  0.4800490000000 1.0
C      1  0.5272620000000  0.4191130000000  0.4506200000000 1.0
C      1  0.4727380000000  0.5808870000000  0.5493800000000 1.0
END
