TITL C-38199-1586-101 -0.0184466856485368 125000 -347.192533381781 0 0 60 (C1) n - 1
REM
REM in /home/bkarasulu/CARBON/AIRSS/Generating-Clusters/EDIP-Nigel-Params/Higher-Symm/Box-15A/Only-C60/SD-CG/FIRE-HFTN
REM
REM
REM
REM
REM
REM ./C.cell (414f73aa93bd7a1190c7fd0f31ff2f98)
REM
REM compiler GCC version 9.2.1 20190827 (Red Hat 9.2.1-1)
REM options -cpp -mtune=generic -march=x86-64 -g -O0 -fpre-include=/usr/include/finclude/math-vector-fortran.h
REM seed -1706769898 284723 -2128687480 -382870626 1417430338 -1968311954 1624508129 -1148499561 666173023 -1865790396 124706709 466868257 1375315288 2046958055 -917304835 -2086601763 573796112 -2078550364 -191387272 356694653 -1410421834 -639418496 500350050 -1333848859 1592241715 -1138840369 -1177736819 1729877036 611746227 -38351683 -1750312382 -1879645001 1879765327
REM
CELL 1.54180   50.00000   50.00000   50.00000   90.00000   90.00000   90.00000
LATT -1
SFAC C  
C      1  0.5189540000000  0.5257060000000  0.5175570000000 1.0
C      1  0.5149860000000  0.4988140000000  0.4714760000000 1.0
C      1  0.5189040000000  0.4714660000000  0.5180060000000 1.0
C      1  0.4824860000000  0.4437390000000  0.5320680000000 1.0
C      1  0.4826030000000  0.5489890000000  0.5396900000000 1.0
C      1  0.4728010000000  0.5026680000000  0.4477520000000 1.0
C      1  0.5566740000000  0.4475300000000  0.4940740000000 1.0
C      1  0.5591360000000  0.5197740000000  0.5490780000000 1.0
C      1  0.5512890000000  0.5315790000000  0.4561310000000 1.0
C      1  0.4372790000000  0.4975350000000  0.5359630000000 1.0
C      1  0.4388960000000  0.5319590000000  0.4999780000000 1.0
C      1  0.4350850000000  0.4606790000000  0.4788440000000 1.0
C      1  0.4486980000000  0.5134730000000  0.5576170000000 1.0
C      1  0.4472340000000  0.5407640000000  0.4736700000000 1.0
C      1  0.4590010000000  0.4471940000000  0.4870200000000 1.0
C      1  0.4357850000000  0.4558090000000  0.4506850000000 1.0
C      1  0.4423720000000  0.4712910000000  0.5466020000000 1.0
C      1  0.4447290000000  0.5556980000000  0.5152610000000 1.0
C      1  0.5012570000000  0.5631540000000  0.4698900000000 1.0
C      1  0.5064870000000  0.4390300000000  0.4644910000000 1.0
C      1  0.5048430000000  0.4991280000000  0.5738080000000 1.0
C      1  0.4623870000000  0.4457890000000  0.4479950000000 1.0
C      1  0.4618260000000  0.4784600000000  0.5665590000000 1.0
C      1  0.4609930000000  0.5693740000000  0.4957050000000 1.0
C      1  0.5608850000000  0.4808670000000  0.5480090000000 1.0
C      1  0.5559930000000  0.5509600000000  0.4896110000000 1.0
C      1  0.5532850000000  0.4643090000000  0.4590880000000 1.0
C      1  0.4936230000000  0.4857470000000  0.4544150000000 1.0
C      1  0.5009380000000  0.4625470000000  0.5406100000000 1.0
C      1  0.4996100000000  0.5488240000000  0.5177440000000 1.0
C      1  0.5432150000000  0.5270600000000  0.4995080000000 1.0
C      1  0.5416780000000  0.4850190000000  0.4754790000000 1.0
C      1  0.5448320000000  0.4857390000000  0.5245400000000 1.0
C      1  0.5735530000000  0.5004110000000  0.5626900000000 1.0
C      1  0.5656960000000  0.5539260000000  0.4640160000000 1.0
C      1  0.5674430000000  0.4427710000000  0.4689320000000 1.0
C      1  0.4894490000000  0.4813920000000  0.5593190000000 1.0
C      1  0.4886490000000  0.5621260000000  0.4944570000000 1.0
C      1  0.4879410000000  0.4572300000000  0.4550420000000 1.0
C      1  0.5288860000000  0.4471640000000  0.5019320000000 1.0
C      1  0.5305250000000  0.5218570000000  0.5457980000000 1.0
C      1  0.5231870000000  0.5260180000000  0.4599240000000 1.0
C      1  0.5128860000000  0.4286390000000  0.4884540000000 1.0
C      1  0.5155560000000  0.5233320000000  0.5694250000000 1.0
C      1  0.5055660000000  0.5454310000000  0.4501320000000 1.0
C      1  0.4570970000000  0.5230010000000  0.4551450000000 1.0
C      1  0.4650700000000  0.4390540000000  0.5123700000000 1.0
C      1  0.4628000000000  0.5365650000000  0.5528640000000 1.0
C      1  0.3830720000000  0.5109240000000  0.4731520000000 1.0
C      1  0.5553250000000  0.4990350000000  0.4989670000000 1.0
C      1  0.5837030000000  0.4991330000000  0.4970780000000 1.0
C      1  0.6617970000000  0.5023500000000  0.4906820000000 1.0
C      1  0.4294280000000  0.4875310000000  0.4878210000000 1.0
C      1  0.4462280000000  0.5034530000000  0.5075470000000 1.0
C      1  0.4751570000000  0.4990730000000  0.5042800000000 1.0
C      1  0.6363350000000  0.5012660000000  0.4927820000000 1.0
C      1  0.5044940000000  0.4988540000000  0.5027480000000 1.0
C      1  0.6100520000000  0.5003040000000  0.4948840000000 1.0
C      1  0.3611120000000  0.5220330000000  0.4662090000000 1.0
C      1  0.4052490000000  0.4981270000000  0.4797610000000 1.0
END
