TITL C-38196-2854-626 4.60443650243708e-05 125000 -356.713856707821 0 0 60 (C1) n - 1
REM
REM in /home/bkarasulu/CARBON/AIRSS/Generating-Clusters/EDIP-Nigel-Params/Higher-Symm/Box-15A/Only-C60/SD-CG/FIRE-HFTN
REM
REM
REM
REM
REM
REM ./C.cell (414f73aa93bd7a1190c7fd0f31ff2f98)
REM
REM compiler GCC version 9.2.1 20190827 (Red Hat 9.2.1-1)
REM options -cpp -mtune=generic -march=x86-64 -g -O0 -fpre-include=/usr/include/finclude/math-vector-fortran.h
REM seed 2115594028 1559348010 -1044520502 309587041 883094623 -193306259 1306551718 963610916 554645544 -1249569845 -456701656 983061614 99431350 1538196 1472033899 1782343559 -1625119815 1142915341 684259853 671111124 613589588 -529012936 -1475574141 -743038181 325392414 -1557978784 -720158316 1100580547 1278214289 -920072472 -291030468 -1060344319 -2128565069
REM
CELL 1.54180   50.00000   50.00000   50.00000   90.00000   90.00000   90.00000
LATT -1
SFAC C  
C      1  0.4983610000000  0.5687890000000  0.4675380000000 1.0
C      1  0.4981600000000  0.4310560000000  0.5324800000000 1.0
C      1  0.4992450000000  0.4328980000000  0.4657590000000 1.0
C      1  0.4994690000000  0.5669390000000  0.5342540000000 1.0
C      1  0.4739170000000  0.5128050000000  0.3701450000000 1.0
C      1  0.4737090000000  0.4893870000000  0.6285510000000 1.0
C      1  0.4720780000000  0.4859390000000  0.3730340000000 1.0
C      1  0.4720430000000  0.5164110000000  0.6279670000000 1.0
C      1  0.4583010000000  0.4508420000000  0.4851410000000 1.0
C      1  0.4584620000000  0.5491210000000  0.5148900000000 1.0
C      1  0.4567360000000  0.5497870000000  0.4849360000000 1.0
C      1  0.4565880000000  0.4501840000000  0.5150950000000 1.0
C      1  0.5557800000000  0.5643150000000  0.4687380000000 1.0
C      1  0.5555930000000  0.4353500000000  0.5312540000000 1.0
C      1  0.5576660000000  0.4380520000000  0.4700500000000 1.0
C      1  0.5578720000000  0.5616030000000  0.5299410000000 1.0
C      1  0.4724670000000  0.5727660000000  0.5248040000000 1.0
C      1  0.4722290000000  0.4271540000000  0.4752210000000 1.0
C      1  0.4702060000000  0.4264380000000  0.5251450000000 1.0
C      1  0.4704240000000  0.5734920000000  0.4748830000000 1.0
C      1  0.4948000000000  0.5191550000000  0.4814340000000 1.0
C      1  0.4947490000000  0.4806970000000  0.5185740000000 1.0
C      1  0.4953170000000  0.4821270000000  0.4868730000000 1.0
C      1  0.4953790000000  0.5177230000000  0.5131370000000 1.0
C      1  0.5534710000000  0.5177510000000  0.5127900000000 1.0
C      1  0.5534070000000  0.4819190000000  0.4871970000000 1.0
C      1  0.5536250000000  0.4802320000000  0.5160820000000 1.0
C      1  0.5536780000000  0.5194380000000  0.4839050000000 1.0
C      1  0.4686940000000  0.5128120000000  0.5775060000000 1.0
C      1  0.4686300000000  0.4871430000000  0.4225290000000 1.0
C      1  0.4738110000000  0.4843600000000  0.5794860000000 1.0
C      1  0.4738420000000  0.5155760000000  0.4205320000000 1.0
C      1  0.4674200000000  0.4742150000000  0.5298480000000 1.0
C      1  0.4674870000000  0.5257260000000  0.4701730000000 1.0
C      1  0.4693390000000  0.5235770000000  0.5268920000000 1.0
C      1  0.4692520000000  0.4763510000000  0.4731330000000 1.0
C      1  0.5398800000000  0.4582710000000  0.5289370000000 1.0
C      1  0.5399960000000  0.5414430000000  0.4710590000000 1.0
C      1  0.5413410000000  0.5392570000000  0.5278380000000 1.0
C      1  0.5412050000000  0.4604500000000  0.4721570000000 1.0
C      1  0.5682030000000  0.5802740000000  0.4862660000000 1.0
C      1  0.5679590000000  0.4193520000000  0.5137200000000 1.0
C      1  0.5688510000000  0.4206850000000  0.4870370000000 1.0
C      1  0.5691040000000  0.5789360000000  0.5129490000000 1.0
C      1  0.4862980000000  0.4399860000000  0.5578390000000 1.0
C      1  0.4864640000000  0.5599010000000  0.4421810000000 1.0
C      1  0.4848750000000  0.5566670000000  0.5577750000000 1.0
C      1  0.4846730000000  0.4432150000000  0.4422440000000 1.0
C      1  0.4772190000000  0.4708460000000  0.4450480000000 1.0
C      1  0.4773380000000  0.5290590000000  0.5549750000000 1.0
C      1  0.4716930000000  0.5349220000000  0.4422140000000 1.0
C      1  0.4716080000000  0.4650130000000  0.5578060000000 1.0
C      1  0.5136340000000  0.5449940000000  0.5177310000000 1.0
C      1  0.5134840000000  0.4547990000000  0.4822760000000 1.0
C      1  0.5124120000000  0.4538490000000  0.5175110000000 1.0
C      1  0.5125480000000  0.5459480000000  0.4824970000000 1.0
C      1  0.4742080000000  0.5248970000000  0.3943480000000 1.0
C      1  0.4741290000000  0.4750710000000  0.6056830000000 1.0
C      1  0.4702940000000  0.4748510000000  0.3975850000000 1.0
C      1  0.4703790000000  0.5251860000000  0.6024100000000 1.0
END
