TITL C-38186-4112-71 2.44642187644476e-05 125000 -350.208043579702 0 0 60 (C1) n - 1
REM
REM in /home/bkarasulu/CARBON/AIRSS/Generating-Clusters/EDIP-Nigel-Params/Higher-Symm/Box-15A/Only-C60/SD-CG/FIRE-HFTN
REM
REM
REM
REM
REM
REM ./C.cell (414f73aa93bd7a1190c7fd0f31ff2f98)
REM
REM compiler GCC version 9.2.1 20190827 (Red Hat 9.2.1-1)
REM options -cpp -mtune=generic -march=x86-64 -g -O0 -fpre-include=/usr/include/finclude/math-vector-fortran.h
REM seed -2075912776 1363831435 -1668161338 -1538074186 485398910 1867961058 -815601248 56935656 -1524828600 187756791 1790556792 -125551910 -1900388665 -510278098 -1889023794 964389677 -1552195009 1800283050 1663473476 -672268376 1437505252 -1888538029 368256605 -2099273865 1105568438 632916629 742649146 -1041055162 -1239542824 613034778 -1935839987 -1608431554 -1131799686
REM
CELL 1.54180   50.00000   50.00000   50.00000   90.00000   90.00000   90.00000
LATT -1
SFAC C  
C      1  0.4705310000000  0.5547430000000  0.5269970000000 1.0
C      1  0.5606390000000  0.5019620000000  0.5289460000000 1.0
C      1  0.4694110000000  0.4501960000000  0.5270570000000 1.0
C      1  0.5247010000000  0.5572070000000  0.5255590000000 1.0
C      1  0.4414890000000  0.4990030000000  0.5269570000000 1.0
C      1  0.5432720000000  0.4544170000000  0.5236130000000 1.0
C      1  0.5719380000000  0.5223050000000  0.4863580000000 1.0
C      1  0.4836790000000  0.4272340000000  0.4873630000000 1.0
C      1  0.4430310000000  0.5505410000000  0.4861840000000 1.0
C      1  0.4325050000000  0.5229870000000  0.4842810000000 1.0
C      1  0.5124570000000  0.4301540000000  0.4931120000000 1.0
C      1  0.5547480000000  0.5461970000000  0.4860510000000 1.0
C      1  0.5279750000000  0.4951890000000  0.5628700000000 1.0
C      1  0.4832520000000  0.4717520000000  0.5674580000000 1.0
C      1  0.4860650000000  0.5216450000000  0.5584380000000 1.0
C      1  0.4694050000000  0.4978350000000  0.5670290000000 1.0
C      1  0.5119660000000  0.4719600000000  0.5578070000000 1.0
C      1  0.5145560000000  0.5214040000000  0.5581140000000 1.0
C      1  0.5196130000000  0.5300660000000  0.4847670000000 1.0
C      1  0.5156170000000  0.4683980000000  0.4856320000000 1.0
C      1  0.4643640000000  0.5023690000000  0.4859180000000 1.0
C      1  0.4759410000000  0.5298920000000  0.4847580000000 1.0
C      1  0.4868090000000  0.4653790000000  0.4868750000000 1.0
C      1  0.5367850000000  0.5058540000000  0.4862430000000 1.0
C      1  0.5415260000000  0.4358910000000  0.4989700000000 1.0
C      1  0.4242890000000  0.5017800000000  0.5031650000000 1.0
C      1  0.5379860000000  0.5666280000000  0.4998410000000 1.0
C      1  0.4599910000000  0.4350230000000  0.5033310000000 1.0
C      1  0.5762280000000  0.4991690000000  0.5038680000000 1.0
C      1  0.4619680000000  0.5676910000000  0.5010200000000 1.0
C      1  0.5199790000000  0.5502360000000  0.5543700000000 1.0
C      1  0.5334400000000  0.4526380000000  0.5513950000000 1.0
C      1  0.4436600000000  0.4900210000000  0.5545320000000 1.0
C      1  0.4810410000000  0.5503420000000  0.5544870000000 1.0
C      1  0.4618900000000  0.4558520000000  0.5544600000000 1.0
C      1  0.5539770000000  0.4859600000000  0.5528090000000 1.0
C      1  0.5335960000000  0.5017100000000  0.5164870000000 1.0
C      1  0.4837860000000  0.4729790000000  0.5161490000000 1.0
C      1  0.4836570000000  0.5305530000000  0.5148170000000 1.0
C      1  0.4685480000000  0.4989410000000  0.5162200000000 1.0
C      1  0.5225820000000  0.4745720000000  0.5148690000000 1.0
C      1  0.5132010000000  0.5317040000000  0.5147590000000 1.0
C      1  0.5528260000000  0.4503830000000  0.4722220000000 1.0
C      1  0.4328330000000  0.4805560000000  0.4725430000000 1.0
C      1  0.5151600000000  0.5700220000000  0.4705810000000 1.0
C      1  0.4474070000000  0.4542750000000  0.4738520000000 1.0
C      1  0.5661450000000  0.4775440000000  0.4742730000000 1.0
C      1  0.4853090000000  0.5692140000000  0.4714970000000 1.0
C      1  0.4855050000000  0.5255090000000  0.4420840000000 1.0
C      1  0.5293800000000  0.4992810000000  0.4433030000000 1.0
C      1  0.4849140000000  0.4750370000000  0.4439180000000 1.0
C      1  0.5147360000000  0.5253130000000  0.4414160000000 1.0
C      1  0.4703310000000  0.4999640000000  0.4422400000000 1.0
C      1  0.5146310000000  0.4742410000000  0.4423080000000 1.0
C      1  0.4739800000000  0.5505740000000  0.4517110000000 1.0
C      1  0.5565590000000  0.4964130000000  0.4537960000000 1.0
C      1  0.4692570000000  0.4528190000000  0.4543330000000 1.0
C      1  0.5265080000000  0.5500700000000  0.4519890000000 1.0
C      1  0.4429360000000  0.4969430000000  0.4504540000000 1.0
C      1  0.5294890000000  0.4514590000000  0.4535440000000 1.0
END
