TITL C-38184-643-636 -4.41614943465802e-06 125000 -355.773682240274 0 0 60 (C1) n - 1
REM
REM in /home/bkarasulu/CARBON/AIRSS/Generating-Clusters/EDIP-Nigel-Params/Higher-Symm/Box-15A/Only-C60/SD-CG/FIRE-HFTN
REM
REM
REM
REM
REM
REM ./C.cell (414f73aa93bd7a1190c7fd0f31ff2f98)
REM
REM compiler GCC version 9.2.1 20190827 (Red Hat 9.2.1-1)
REM options -cpp -mtune=generic -march=x86-64 -g -O0 -fpre-include=/usr/include/finclude/math-vector-fortran.h
REM seed -589265527 -951943785 740596088 1697716534 -1285588067 -20221651 1163608533 -1485419941 1993127287 -1377671933 -811474327 1656384326 1472902593 67647137 80674635 801188870 849586915 1136533542 1886288030 -1658544865 562247980 -1619608093 1118453341 2045697614 94121959 -1888172219 -42573661 -949549225 -353046468 -751219998 424243144 1636944543 -72877461
REM
CELL 1.54180   50.00000   50.00000   50.00000   90.00000   90.00000   90.00000
LATT -1
SFAC C  
C      1  0.4705300000000  0.5451150000000  0.5495490000000 1.0
C      1  0.4945310000000  0.5526430000000  0.5337200000000 1.0
C      1  0.5190120000000  0.5391470000000  0.5455980000000 1.0
C      1  0.5395100000000  0.5305450000000  0.5259300000000 1.0
C      1  0.5462490000000  0.4956130000000  0.5371210000000 1.0
C      1  0.5372150000000  0.4702720000000  0.5263320000000 1.0
C      1  0.5146140000000  0.4533540000000  0.5187920000000 1.0
C      1  0.4907250000000  0.4563360000000  0.5376060000000 1.0
C      1  0.4673240000000  0.4721880000000  0.5274020000000 1.0
C      1  0.4543400000000  0.4924440000000  0.5446170000000 1.0
C      1  0.4504110000000  0.5191740000000  0.5330240000000 1.0
C      1  0.5248970000000  0.4513590000000  0.4282510000000 1.0
C      1  0.5034540000000  0.4497670000000  0.4109190000000 1.0
C      1  0.4765400000000  0.4555840000000  0.4093080000000 1.0
C      1  0.4696650000000  0.4807120000000  0.3999390000000 1.0
C      1  0.4608250000000  0.5051350000000  0.4094580000000 1.0
C      1  0.4772930000000  0.5272830000000  0.4061610000000 1.0
C      1  0.4894770000000  0.5445700000000  0.4242340000000 1.0
C      1  0.5158990000000  0.5380800000000  0.4336370000000 1.0
C      1  0.5325070000000  0.5212410000000  0.4186660000000 1.0
C      1  0.5455990000000  0.5001610000000  0.4316690000000 1.0
C      1  0.5411790000000  0.4735690000000  0.4250690000000 1.0
C      1  0.4487980000000  0.5225530000000  0.5037430000000 1.0
C      1  0.4644320000000  0.5465030000000  0.4930520000000 1.0
C      1  0.4919200000000  0.5492000000000  0.5044040000000 1.0
C      1  0.5164360000000  0.5540970000000  0.4879080000000 1.0
C      1  0.5413910000000  0.5472410000000  0.5021560000000 1.0
C      1  0.5587890000000  0.4834920000000  0.4752340000000 1.0
C      1  0.5450310000000  0.4611320000000  0.4841080000000 1.0
C      1  0.5076030000000  0.4505490000000  0.4887510000000 1.0
C      1  0.4775260000000  0.4532490000000  0.4832660000000 1.0
C      1  0.4625450000000  0.4734490000000  0.4988090000000 1.0
C      1  0.4489260000000  0.4973480000000  0.4871170000000 1.0
C      1  0.5208370000000  0.4541400000000  0.5768780000000 1.0
C      1  0.4951280000000  0.4568220000000  0.5667460000000 1.0
C      1  0.4748850000000  0.4690760000000  0.5815120000000 1.0
C      1  0.4598300000000  0.4911250000000  0.5733010000000 1.0
C      1  0.4617030000000  0.5158690000000  0.5862400000000 1.0
C      1  0.4748970000000  0.5392260000000  0.5779530000000 1.0
C      1  0.5014920000000  0.5423370000000  0.5866180000000 1.0
C      1  0.5271960000000  0.5339980000000  0.5888060000000 1.0
C      1  0.5461920000000  0.5163770000000  0.5810430000000 1.0
C      1  0.5515030000000  0.4935630000000  0.5658130000000 1.0
C      1  0.5429080000000  0.4694560000000  0.5768620000000 1.0
C      1  0.4468670000000  0.5039470000000  0.4333160000000 1.0
C      1  0.4619190000000  0.5517980000000  0.4659540000000 1.0
C      1  0.4729510000000  0.5570500000000  0.4423520000000 1.0
C      1  0.5243400000000  0.5430070000000  0.4613180000000 1.0
C      1  0.5501740000000  0.5320200000000  0.4686960000000 1.0
C      1  0.5558560000000  0.5054540000000  0.4582110000000 1.0
C      1  0.5450890000000  0.4371270000000  0.4701010000000 1.0
C      1  0.5221940000000  0.4396910000000  0.4544940000000 1.0
C      1  0.4673540000000  0.4475310000000  0.4580990000000 1.0
C      1  0.4629620000000  0.4473580000000  0.4318090000000 1.0
C      1  0.4447140000000  0.4995570000000  0.4596210000000 1.0
C      1  0.5130850000000  0.5015270000000  0.5056110000000 1.0
C      1  0.4947870000000  0.4928720000000  0.4569850000000 1.0
C      1  0.5095560000000  0.5135260000000  0.5537200000000 1.0
C      1  0.5027600000000  0.4986640000000  0.5311640000000 1.0
C      1  0.5063600000000  0.4972530000000  0.4796520000000 1.0
END
