TITL C-38199-1586-158 2.04888587333374e-06 125000 -374.545518685012 0 0 60 (Ci) n - 1
REM
REM in /home/bkarasulu/CARBON/AIRSS/Generating-Clusters/EDIP-Nigel-Params/Higher-Symm/Box-15A/Only-C60/SD-CG/FIRE-HFTN
REM
REM
REM
REM
REM
REM ./C.cell (414f73aa93bd7a1190c7fd0f31ff2f98)
REM
REM compiler GCC version 9.2.1 20190827 (Red Hat 9.2.1-1)
REM options -cpp -mtune=generic -march=x86-64 -g -O0 -fpre-include=/usr/include/finclude/math-vector-fortran.h
REM seed 1386439706 -69700971 -1952505387 -504057002 -744021394 1796479680 -223974076 -1381126050 1020380539 259229518 -1026173644 1455218336 166778412 -1693781743 857528162 -782045213 -251795434 -441744465 -1218904114 601164767 2090337549 430435339 1479623214 -2119780781 -1042544213 -1665946073 553749290 24485664 1798629946 2134481021 647523331 -951378995 243884585
REM
CELL 1.54180   50.00000   50.00000   50.00000   90.00000   90.00000   90.00000
LATT -1
SFAC C  
C      1  0.4455670000000  0.4658240000000  0.5363690000000 1.0
C      1  0.5544330000000  0.5341760000000  0.4636310000000 1.0
C      1  0.4452870000000  0.5081130000000  0.5601220000000 1.0
C      1  0.5547130000000  0.4918870000000  0.4398780000000 1.0
C      1  0.4613950000000  0.5590880000000  0.4749400000000 1.0
C      1  0.5386050000000  0.4409120000000  0.5250600000000 1.0
C      1  0.4477500000000  0.5371130000000  0.4628630000000 1.0
C      1  0.5522500000000  0.4628870000000  0.5371370000000 1.0
C      1  0.5197220000000  0.5166050000000  0.5657660000000 1.0
C      1  0.4802780000000  0.4833950000000  0.4342340000000 1.0
C      1  0.5520320000000  0.5343990000000  0.5133580000000 1.0
C      1  0.4479680000000  0.4656010000000  0.4866420000000 1.0
C      1  0.5608230000000  0.4634080000000  0.4894970000000 1.0
C      1  0.4391770000000  0.5365920000000  0.5105030000000 1.0
C      1  0.5036770000000  0.5736640000000  0.5022950000000 1.0
C      1  0.4963230000000  0.4263360000000  0.4977050000000 1.0
C      1  0.4559820000000  0.4558450000000  0.5608580000000 1.0
C      1  0.5440180000000  0.5441550000000  0.4391420000000 1.0
C      1  0.5574300000000  0.5057680000000  0.5138480000000 1.0
C      1  0.4425700000000  0.4942320000000  0.4861520000000 1.0
C      1  0.5593990000000  0.5054610000000  0.4641290000000 1.0
C      1  0.4406010000000  0.4945390000000  0.5358710000000 1.0
C      1  0.5016310000000  0.4649260000000  0.5441390000000 1.0
C      1  0.4983690000000  0.5350740000000  0.4558610000000 1.0
C      1  0.5084740000000  0.4377140000000  0.5323000000000 1.0
C      1  0.4915260000000  0.5622860000000  0.4677000000000 1.0
C      1  0.5143600000000  0.4467010000000  0.4851580000000 1.0
C      1  0.4856400000000  0.5532990000000  0.5148420000000 1.0
C      1  0.5256710000000  0.5684990000000  0.4850860000000 1.0
C      1  0.4743290000000  0.4315010000000  0.5149140000000 1.0
C      1  0.5454830000000  0.5472270000000  0.4880220000000 1.0
C      1  0.4545170000000  0.4527730000000  0.5119780000000 1.0
C      1  0.5622230000000  0.4913550000000  0.4892880000000 1.0
C      1  0.4377770000000  0.5086450000000  0.5107120000000 1.0
C      1  0.5555400000000  0.4908730000000  0.5387150000000 1.0
C      1  0.4444600000000  0.5091270000000  0.4612850000000 1.0
C      1  0.4957760000000  0.4318340000000  0.4413760000000 1.0
C      1  0.5042240000000  0.5681660000000  0.5586240000000 1.0
C      1  0.5206290000000  0.5278070000000  0.4357490000000 1.0
C      1  0.4793710000000  0.4721930000000  0.5642510000000 1.0
C      1  0.4876160000000  0.5498340000000  0.5458060000000 1.0
C      1  0.5123840000000  0.4501660000000  0.4541940000000 1.0
C      1  0.4575680000000  0.5570750000000  0.5041670000000 1.0
C      1  0.5424320000000  0.4429250000000  0.4958330000000 1.0
C      1  0.4938260000000  0.5269140000000  0.5049210000000 1.0
C      1  0.5061740000000  0.4730860000000  0.4950790000000 1.0
C      1  0.4537150000000  0.4516740000000  0.4633620000000 1.0
C      1  0.5462850000000  0.5483260000000  0.5366380000000 1.0
C      1  0.4985000000000  0.5175530000000  0.4785010000000 1.0
C      1  0.5015000000000  0.4824470000000  0.5214990000000 1.0
C      1  0.4703250000000  0.4372630000000  0.4480020000000 1.0
C      1  0.5296750000000  0.5627370000000  0.5519980000000 1.0
C      1  0.4567900000000  0.4957050000000  0.4401290000000 1.0
C      1  0.5432100000000  0.5042950000000  0.5598710000000 1.0
C      1  0.5059760000000  0.4798160000000  0.4473090000000 1.0
C      1  0.4940240000000  0.5201840000000  0.5526910000000 1.0
C      1  0.5273420000000  0.4978070000000  0.4344100000000 1.0
C      1  0.4726580000000  0.5021930000000  0.5655900000000 1.0
C      1  0.4970910000000  0.5093910000000  0.5259950000000 1.0
C      1  0.5029090000000  0.4906090000000  0.4740050000000 1.0
END
