TITL C-38197-8510-91 -1.17347865254128e-06 125000 -365.596954003344 0 0 60 (D2d) n - 1
REM
REM in /home/bkarasulu/CARBON/AIRSS/Generating-Clusters/EDIP-Nigel-Params/Higher-Symm/Box-15A/Only-C60/SD-CG/FIRE-HFTN
REM
REM
REM
REM
REM
REM ./C.cell (414f73aa93bd7a1190c7fd0f31ff2f98)
REM
REM compiler GCC version 9.2.1 20190827 (Red Hat 9.2.1-1)
REM options -cpp -mtune=generic -march=x86-64 -g -O0 -fpre-include=/usr/include/finclude/math-vector-fortran.h
REM seed -966606666 -1975640290 1457787834 2004846358 -1881964506 310413897 -1182676790 -2093987714 -1366362396 -1076604061 816838142 798241457 2057992006 284473392 2079751770 687690224 -1694502471 1878627064 -1457818062 2063585854 733727045 1146370466 -1650343633 1622246523 1991399621 1064739310 461412573 1418340805 752123943 -1041526110 -871938095 939684744 119687729
REM
CELL 1.54180   50.00000   50.00000   50.00000   90.00000   90.00000   90.00000
LATT -1
SFAC C  
C      1  0.5327140000000  0.4927510000000  0.4410340000000 1.0
C      1  0.4672860000000  0.4927510000000  0.5589660000000 1.0
C      1  0.4672860000000  0.5072490000000  0.4410340000000 1.0
C      1  0.5327140000000  0.5072490000000  0.5589660000000 1.0
C      1  0.4410340000000  0.4927510000000  0.5327140000000 1.0
C      1  0.5589660000000  0.4927510000000  0.4672860000000 1.0
C      1  0.4410340000000  0.5072490000000  0.4672860000000 1.0
C      1  0.5589660000000  0.5072490000000  0.5327140000000 1.0
C      1  0.4832690000000  0.4812530000000  0.4469980000000 1.0
C      1  0.5167310000000  0.4812530000000  0.5530020000000 1.0
C      1  0.5167310000000  0.5187470000000  0.4469980000000 1.0
C      1  0.4832690000000  0.5187470000000  0.5530020000000 1.0
C      1  0.4469980000000  0.4812530000000  0.4832690000000 1.0
C      1  0.5530020000000  0.4812530000000  0.5167310000000 1.0
C      1  0.4469980000000  0.5187470000000  0.5167310000000 1.0
C      1  0.5530020000000  0.5187470000000  0.4832690000000 1.0
C      1  0.4590140000000  0.4360990000000  0.4863710000000 1.0
C      1  0.5409860000000  0.4360990000000  0.5136290000000 1.0
C      1  0.5409860000000  0.5639010000000  0.4863710000000 1.0
C      1  0.4590140000000  0.5639010000000  0.5136290000000 1.0
C      1  0.4863710000000  0.4360990000000  0.4590140000000 1.0
C      1  0.5136290000000  0.4360990000000  0.5409860000000 1.0
C      1  0.4863710000000  0.5639010000000  0.5409860000000 1.0
C      1  0.5136290000000  0.5639010000000  0.4590140000000 1.0
C      1  0.4678190000000  0.5445600000000  0.5524720000000 1.0
C      1  0.5321810000000  0.5445600000000  0.4475280000000 1.0
C      1  0.5321810000000  0.4554400000000  0.5524720000000 1.0
C      1  0.4678190000000  0.4554400000000  0.4475280000000 1.0
C      1  0.5524720000000  0.5445600000000  0.4678190000000 1.0
C      1  0.4475280000000  0.5445600000000  0.5321810000000 1.0
C      1  0.5524720000000  0.4554400000000  0.5321810000000 1.0
C      1  0.4475280000000  0.4554400000000  0.4678190000000 1.0
C      1  0.5256910000000  0.5131750000000  0.4942200000000 1.0
C      1  0.4743090000000  0.5131750000000  0.5057800000000 1.0
C      1  0.4743090000000  0.4868250000000  0.4942200000000 1.0
C      1  0.5256910000000  0.4868250000000  0.5057800000000 1.0
C      1  0.4942200000000  0.5131750000000  0.5256910000000 1.0
C      1  0.5057800000000  0.5131750000000  0.4743090000000 1.0
C      1  0.4942200000000  0.4868250000000  0.4743090000000 1.0
C      1  0.5057800000000  0.4868250000000  0.5256910000000 1.0
C      1  0.4360630000000  0.5276390000000  0.4886120000000 1.0
C      1  0.5639370000000  0.5276390000000  0.5113880000000 1.0
C      1  0.5639370000000  0.4723610000000  0.4886120000000 1.0
C      1  0.4360630000000  0.4723610000000  0.5113880000000 1.0
C      1  0.4886120000000  0.5276390000000  0.4360630000000 1.0
C      1  0.5113880000000  0.5276390000000  0.5639370000000 1.0
C      1  0.4886120000000  0.4723610000000  0.5639370000000 1.0
C      1  0.5113880000000  0.4723610000000  0.4360630000000 1.0
C      1  0.4493720000000  0.4451520000000  0.5129020000000 1.0
C      1  0.5506280000000  0.4451520000000  0.4870980000000 1.0
C      1  0.5506280000000  0.5548480000000  0.5129020000000 1.0
C      1  0.4493720000000  0.5548480000000  0.4870980000000 1.0
C      1  0.5129020000000  0.4451520000000  0.4493720000000 1.0
C      1  0.4870980000000  0.4451520000000  0.5506280000000 1.0
C      1  0.5129020000000  0.5548480000000  0.5506280000000 1.0
C      1  0.4870980000000  0.5548480000000  0.4493720000000 1.0
C      1  0.4639830000000  0.5602460000000  0.4639830000000 1.0
C      1  0.4639830000000  0.4397540000000  0.5360170000000 1.0
C      1  0.5360170000000  0.4397540000000  0.4639830000000 1.0
C      1  0.5360170000000  0.5602460000000  0.5360170000000 1.0
END
