TITL C-38187-2739-62 1.40335981314567e-06 125000 -384.374233387666 0 0 60 (C6) n - 1
REM
REM in /home/bkarasulu/CARBON/AIRSS/Generating-Clusters/EDIP-Nigel-Params/Higher-Symm/Box-15A/Only-C60/SD-CG/FIRE-HFTN
REM
REM
REM
REM
REM
REM ./C.cell (414f73aa93bd7a1190c7fd0f31ff2f98)
REM
REM compiler GCC version 9.2.1 20190827 (Red Hat 9.2.1-1)
REM options -cpp -mtune=generic -march=x86-64 -g -O0 -fpre-include=/usr/include/finclude/math-vector-fortran.h
REM seed 1795168261 1016961068 1790995680 -1125713335 1686827183 -58943897 -666744623 2088763373 -1464431636 -1535258268 -526520120 1673770495 -2143689708 600342855 -1556087782 -2117491449 -1094926737 64657854 -771525251 -2064123042 -870318260 -8134748 1963258536 -1847206020 803014369 -208765401 -337460061 1739059996 1168626028 926363985 -598171336 1243972754 907804924
REM
CELL 1.54180   50.00000   50.00000   50.00000   90.00000   90.00000   90.00000
LATT -1
SFAC C  
C      1  0.5366630000000  0.4416960000000  0.4629650000000 1.0
C      1  0.5504050000000  0.4416960000000  0.5132340000000 1.0
C      1  0.5137420000000  0.4416960000000  0.5502690000000 1.0
C      1  0.4633370000000  0.4416960000000  0.5370350000000 1.0
C      1  0.4495950000000  0.4416960000000  0.4867660000000 1.0
C      1  0.4862580000000  0.4416960000000  0.4497310000000 1.0
C      1  0.4633370000000  0.5583040000000  0.4629650000000 1.0
C      1  0.4495950000000  0.5583040000000  0.5132340000000 1.0
C      1  0.4862580000000  0.5583040000000  0.5502690000000 1.0
C      1  0.5366630000000  0.5583040000000  0.5370350000000 1.0
C      1  0.5504050000000  0.5583040000000  0.4867660000000 1.0
C      1  0.5137420000000  0.5583040000000  0.4497310000000 1.0
C      1  0.4656090000000  0.4324830000000  0.4660070000000 1.0
C      1  0.5122440000000  0.4324830000000  0.4532200000000 1.0
C      1  0.5466340000000  0.4324830000000  0.4872130000000 1.0
C      1  0.5343910000000  0.4324830000000  0.5339930000000 1.0
C      1  0.4877560000000  0.4324830000000  0.5467800000000 1.0
C      1  0.4533660000000  0.4324830000000  0.5127870000000 1.0
C      1  0.5343910000000  0.5675170000000  0.4660070000000 1.0
C      1  0.4877560000000  0.5675170000000  0.4532200000000 1.0
C      1  0.4533660000000  0.5675170000000  0.4872130000000 1.0
C      1  0.4656090000000  0.5675170000000  0.5339930000000 1.0
C      1  0.5122440000000  0.5675170000000  0.5467800000000 1.0
C      1  0.5466340000000  0.5675170000000  0.5127870000000 1.0
C      1  0.4847420000000  0.4676630000000  0.4373430000000 1.0
C      1  0.5466340000000  0.4676630000000  0.4554570000000 1.0
C      1  0.5618920000000  0.4676630000000  0.5181150000000 1.0
C      1  0.5152580000000  0.4676630000000  0.5626570000000 1.0
C      1  0.4533660000000  0.4676630000000  0.5445430000000 1.0
C      1  0.4381080000000  0.4676630000000  0.4818850000000 1.0
C      1  0.5152580000000  0.5323370000000  0.4373430000000 1.0
C      1  0.4533660000000  0.5323370000000  0.4554570000000 1.0
C      1  0.4381080000000  0.5323370000000  0.5181150000000 1.0
C      1  0.4847420000000  0.5323370000000  0.5626570000000 1.0
C      1  0.5466340000000  0.5323370000000  0.5445430000000 1.0
C      1  0.5618920000000  0.5323370000000  0.4818850000000 1.0
C      1  0.4322530000000  0.4774210000000  0.5293650000000 1.0
C      1  0.4406960000000  0.4774210000000  0.4560110000000 1.0
C      1  0.5084430000000  0.4774210000000  0.4266470000000 1.0
C      1  0.5677470000000  0.4774210000000  0.4706350000000 1.0
C      1  0.5593040000000  0.4774210000000  0.5439890000000 1.0
C      1  0.4915570000000  0.4774210000000  0.5733530000000 1.0
C      1  0.5677470000000  0.5225790000000  0.5293650000000 1.0
C      1  0.5593040000000  0.5225790000000  0.4560110000000 1.0
C      1  0.4915570000000  0.5225790000000  0.4266470000000 1.0
C      1  0.4322530000000  0.5225790000000  0.4706350000000 1.0
C      1  0.4406960000000  0.5225790000000  0.5439890000000 1.0
C      1  0.5084430000000  0.5225790000000  0.5733530000000 1.0
C      1  0.5371820000000  0.4858770000000  0.5585640000000 1.0
C      1  0.4678730000000  0.4858770000000  0.5614830000000 1.0
C      1  0.4306910000000  0.4858770000000  0.5029190000000 1.0
C      1  0.4628180000000  0.4858770000000  0.4414360000000 1.0
C      1  0.5321270000000  0.4858770000000  0.4385170000000 1.0
C      1  0.5693090000000  0.4858770000000  0.4970810000000 1.0
C      1  0.4628180000000  0.5141230000000  0.5585640000000 1.0
C      1  0.5321270000000  0.5141230000000  0.5614830000000 1.0
C      1  0.5693090000000  0.5141230000000  0.5029190000000 1.0
C      1  0.5371820000000  0.5141230000000  0.4414360000000 1.0
C      1  0.4678730000000  0.5141230000000  0.4385170000000 1.0
C      1  0.4306910000000  0.5141230000000  0.4970810000000 1.0
END
