TITL C-38185-7677-591 1.36344114111317e-05 125000 -350.523629463687 0 0 60 (C1) n - 1
REM
REM in /home/bkarasulu/CARBON/AIRSS/Generating-Clusters/EDIP-Nigel-Params/Higher-Symm/Box-15A/Only-C60/SD-CG/FIRE-HFTN
REM
REM
REM
REM
REM
REM ./C.cell (414f73aa93bd7a1190c7fd0f31ff2f98)
REM
REM compiler GCC version 9.2.1 20190827 (Red Hat 9.2.1-1)
REM options -cpp -mtune=generic -march=x86-64 -g -O0 -fpre-include=/usr/include/finclude/math-vector-fortran.h
REM seed 1132591181 2025213214 -1359206412 1761539605 1214357784 -1667773972 -1011061032 1757799302 -1764227745 1322385054 -1700606442 -241162804 40629124 -1708538227 385051115 981724001 113513559 1220521369 272083390 -1682272436 2025923445 1938694385 1316187762 942493199 1365107146 1166062967 -23706874 1791892055 835663859 -996604705 -540533233 -2110310726 -1372713685
REM
CELL 1.54180   50.00000   50.00000   50.00000   90.00000   90.00000   90.00000
LATT -1
SFAC C  
C      1  0.5123080000000  0.4747280000000  0.5363410000000 1.0
C      1  0.5292580000000  0.5085180000000  0.5410390000000 1.0
C      1  0.5058910000000  0.5285430000000  0.5367170000000 1.0
C      1  0.4741310000000  0.5096270000000  0.5404980000000 1.0
C      1  0.4810910000000  0.4789110000000  0.5377980000000 1.0
C      1  0.5431400000000  0.5471410000000  0.5110840000000 1.0
C      1  0.4685410000000  0.5532770000000  0.5150740000000 1.0
C      1  0.4409720000000  0.4890390000000  0.5112030000000 1.0
C      1  0.4906590000000  0.4390710000000  0.5113590000000 1.0
C      1  0.5578500000000  0.4740660000000  0.5165840000000 1.0
C      1  0.5145850000000  0.5400840000000  0.5101060000000 1.0
C      1  0.4689170000000  0.5235420000000  0.5131570000000 1.0
C      1  0.4676520000000  0.4770280000000  0.5107650000000 1.0
C      1  0.5117600000000  0.4597180000000  0.5102590000000 1.0
C      1  0.5416390000000  0.4988650000000  0.5141490000000 1.0
C      1  0.4459290000000  0.4279870000000  0.5144590000000 1.0
C      1  0.5502130000000  0.4272790000000  0.5157270000000 1.0
C      1  0.5854730000000  0.5292690000000  0.5132420000000 1.0
C      1  0.5001760000000  0.5883610000000  0.5144540000000 1.0
C      1  0.4143630000000  0.5264870000000  0.5160220000000 1.0
C      1  0.5497310000000  0.5539320000000  0.4838490000000 1.0
C      1  0.4640720000000  0.5623690000000  0.4879690000000 1.0
C      1  0.4285930000000  0.4862040000000  0.4853200000000 1.0
C      1  0.4898200000000  0.4272920000000  0.4849780000000 1.0
C      1  0.5648490000000  0.4692020000000  0.4889230000000 1.0
C      1  0.5489980000000  0.4503730000000  0.5323280000000 1.0
C      1  0.5626490000000  0.5349720000000  0.5292430000000 1.0
C      1  0.4882390000000  0.5687450000000  0.5312660000000 1.0
C      1  0.4309790000000  0.5085910000000  0.5305080000000 1.0
C      1  0.4678480000000  0.4371670000000  0.5300080000000 1.0
C      1  0.5279780000000  0.4556030000000  0.5517660000000 1.0
C      1  0.5524470000000  0.5218920000000  0.5526470000000 1.0
C      1  0.5026360000000  0.5535090000000  0.5514040000000 1.0
C      1  0.4479680000000  0.5138820000000  0.5529810000000 1.0
C      1  0.4675500000000  0.4566120000000  0.5513640000000 1.0
C      1  0.4593410000000  0.4996440000000  0.4441090000000 1.0
C      1  0.4887680000000  0.4623990000000  0.4422650000000 1.0
C      1  0.5340710000000  0.4764720000000  0.4424250000000 1.0
C      1  0.5318120000000  0.5237080000000  0.4416440000000 1.0
C      1  0.4865830000000  0.5382370000000  0.4433660000000 1.0
C      1  0.5094450000000  0.4759930000000  0.4843290000000 1.0
C      1  0.5270080000000  0.5002230000000  0.4850480000000 1.0
C      1  0.5087060000000  0.5239630000000  0.4846380000000 1.0
C      1  0.4805930000000  0.5144730000000  0.4854610000000 1.0
C      1  0.4812930000000  0.4849610000000  0.4846230000000 1.0
C      1  0.4706100000000  0.4775730000000  0.4573130000000 1.0
C      1  0.5129890000000  0.4642540000000  0.4564040000000 1.0
C      1  0.5383040000000  0.5006140000000  0.4561720000000 1.0
C      1  0.5113290000000  0.5358380000000  0.4566180000000 1.0
C      1  0.4692080000000  0.5219240000000  0.4581790000000 1.0
C      1  0.5734040000000  0.5241650000000  0.4879070000000 1.0
C      1  0.4997180000000  0.5757860000000  0.4890700000000 1.0
C      1  0.4246810000000  0.5240530000000  0.4895730000000 1.0
C      1  0.4529450000000  0.4368490000000  0.4883210000000 1.0
C      1  0.5439530000000  0.4376080000000  0.4901250000000 1.0
C      1  0.5258890000000  0.5701590000000  0.4775700000000 1.0
C      1  0.4411000000000  0.5460830000000  0.4810080000000 1.0
C      1  0.4372880000000  0.4591650000000  0.4787310000000 1.0
C      1  0.5187390000000  0.4279400000000  0.4791680000000 1.0
C      1  0.5733170000000  0.4960290000000  0.4813410000000 1.0
END
