TITL C-38187-2739-58 1.46439739879798e-06 125000 -354.252911908361 0 0 60 (C5) n - 1
REM
REM in /home/bkarasulu/CARBON/AIRSS/Generating-Clusters/EDIP-Nigel-Params/Higher-Symm/Box-15A/Only-C60/SD-CG/FIRE-HFTN
REM
REM
REM
REM
REM
REM ./C.cell (414f73aa93bd7a1190c7fd0f31ff2f98)
REM
REM compiler GCC version 9.2.1 20190827 (Red Hat 9.2.1-1)
REM options -cpp -mtune=generic -march=x86-64 -g -O0 -fpre-include=/usr/include/finclude/math-vector-fortran.h
REM seed -1219010088 713235702 2114183626 497055141 2060572565 -575250401 -1530473824 1013593960 896623067 -806038146 1124019331 -1261883634 171126852 1966946054 -485809605 1421263797 165530658 -950550698 -106056169 1444753412 -249670401 1986629382 -264755704 -490363535 -2141192824 -1046756034 968343954 1608367284 -977848587 -1118675285 886976290 524432559 -1956135248
REM
CELL 1.54180   50.00000   50.00000   50.00000   90.00000   90.00000   90.00000
LATT -1
SFAC C  
C      1  0.5381540000000  0.5425760000000  0.5559650000000 1.0
C      1  0.5522830000000  0.4768700000000  0.5559650000000 1.0
C      1  0.4941580000000  0.4431280000000  0.5559650000000 1.0
C      1  0.4441070000000  0.4879820000000  0.5559650000000 1.0
C      1  0.4712980000000  0.5494440000000  0.5559650000000 1.0
C      1  0.5381540000000  0.5425760000000  0.4440350000000 1.0
C      1  0.5522830000000  0.4768700000000  0.4440350000000 1.0
C      1  0.4941580000000  0.4431280000000  0.4440350000000 1.0
C      1  0.4441070000000  0.4879820000000  0.4440350000000 1.0
C      1  0.4712980000000  0.5494440000000  0.4440350000000 1.0
C      1  0.4585050000000  0.5802860000000  0.5136190000000 1.0
C      1  0.5635340000000  0.5642730000000  0.5136190000000 1.0
C      1  0.5807610000000  0.4594380000000  0.5136190000000 1.0
C      1  0.4863790000000  0.4106580000000  0.5136190000000 1.0
C      1  0.4108210000000  0.4853460000000  0.5136190000000 1.0
C      1  0.4585050000000  0.5802860000000  0.4863810000000 1.0
C      1  0.5635340000000  0.5642730000000  0.4863810000000 1.0
C      1  0.5807610000000  0.4594380000000  0.4863810000000 1.0
C      1  0.4863790000000  0.4106580000000  0.4863810000000 1.0
C      1  0.4108210000000  0.4853460000000  0.4863810000000 1.0
C      1  0.4328210000000  0.4943230000000  0.4710940000000 1.0
C      1  0.4738410000000  0.5621370000000  0.4710940000000 1.0
C      1  0.5510120000000  0.5440800000000  0.4710940000000 1.0
C      1  0.5576860000000  0.4651060000000  0.4710940000000 1.0
C      1  0.4846390000000  0.4343540000000  0.4710940000000 1.0
C      1  0.4328210000000  0.4943230000000  0.5289060000000 1.0
C      1  0.4738410000000  0.5621370000000  0.5289060000000 1.0
C      1  0.5510120000000  0.5440800000000  0.5289060000000 1.0
C      1  0.5576860000000  0.4651060000000  0.5289060000000 1.0
C      1  0.4846390000000  0.4343540000000  0.5289060000000 1.0
C      1  0.5085230000000  0.5404250000000  0.5578050000000 1.0
C      1  0.5410800000000  0.5043860000000  0.5578050000000 1.0
C      1  0.5168660000000  0.4622860000000  0.5578050000000 1.0
C      1  0.4693440000000  0.4723050000000  0.5578050000000 1.0
C      1  0.4641870000000  0.5205980000000  0.5578050000000 1.0
C      1  0.5085230000000  0.5404250000000  0.4421950000000 1.0
C      1  0.5410800000000  0.5043860000000  0.4421950000000 1.0
C      1  0.5168660000000  0.4622860000000  0.4421950000000 1.0
C      1  0.4693440000000  0.4723050000000  0.4421950000000 1.0
C      1  0.4641870000000  0.5205980000000  0.4421950000000 1.0
C      1  0.5030720000000  0.5260900000000  0.4677220000000 1.0
C      1  0.5257620000000  0.5051410000000  0.4677220000000 1.0
C      1  0.5128500000000  0.4770870000000  0.4677220000000 1.0
C      1  0.4821800000000  0.4806980000000  0.4677220000000 1.0
C      1  0.4761360000000  0.5109840000000  0.4677220000000 1.0
C      1  0.5030720000000  0.5260900000000  0.5322780000000 1.0
C      1  0.5257620000000  0.5051410000000  0.5322780000000 1.0
C      1  0.5128500000000  0.4770870000000  0.5322780000000 1.0
C      1  0.4821800000000  0.4806980000000  0.5322780000000 1.0
C      1  0.4761360000000  0.5109840000000  0.5322780000000 1.0
C      1  0.4940400000000  0.5477440000000  0.5142760000000 1.0
C      1  0.5435660000000  0.5204220000000  0.5142760000000 1.0
C      1  0.5328850000000  0.4648770000000  0.5142760000000 1.0
C      1  0.4767580000000  0.4578710000000  0.5142760000000 1.0
C      1  0.4527510000000  0.5090850000000  0.5142760000000 1.0
C      1  0.4940400000000  0.5477440000000  0.4857240000000 1.0
C      1  0.5435660000000  0.5204220000000  0.4857240000000 1.0
C      1  0.5328850000000  0.4648770000000  0.4857240000000 1.0
C      1  0.4767580000000  0.4578710000000  0.4857240000000 1.0
C      1  0.4527510000000  0.5090850000000  0.4857240000000 1.0
END
