TITL C-38186-4112-472 -1.60173093989162e-06 125000 -361.387134365722 0 0 60 (Cs) n - 1
REM
REM in /home/bkarasulu/CARBON/AIRSS/Generating-Clusters/EDIP-Nigel-Params/Higher-Symm/Box-15A/Only-C60/SD-CG/FIRE-HFTN
REM
REM
REM
REM
REM
REM ./C.cell (414f73aa93bd7a1190c7fd0f31ff2f98)
REM
REM compiler GCC version 9.2.1 20190827 (Red Hat 9.2.1-1)
REM options -cpp -mtune=generic -march=x86-64 -g -O0 -fpre-include=/usr/include/finclude/math-vector-fortran.h
REM seed 669281429 -1756287106 1829427279 1965202351 -1112842466 840028592 -1219606771 -2055976142 741711975 -241175015 1323665531 471833947 -68687 1253953834 -1154405898 1897777461 1987531273 -989393927 -1972584211 1003518481 -260651520 205245197 -663674617 -978161877 459055637 18269705 -694895073 -175026391 -1591398943 -1084800956 1123420494 -473555589 501637589
REM
CELL 1.54180   50.00000   50.00000   50.00000   90.00000   90.00000   90.00000
LATT -1
SFAC C  
C      1  0.5233800000000  0.4763700000000  0.4393320000000 1.0
C      1  0.4802110000000  0.5160060000000  0.4437700000000 1.0
C      1  0.5243200000000  0.4705190000000  0.5573020000000 1.0
C      1  0.4772920000000  0.5221610000000  0.5633300000000 1.0
C      1  0.4802110000000  0.4839940000000  0.4437700000000 1.0
C      1  0.5233800000000  0.5236300000000  0.4393320000000 1.0
C      1  0.4772920000000  0.4778390000000  0.5633300000000 1.0
C      1  0.5243200000000  0.5294810000000  0.5573020000000 1.0
C      1  0.5274910000000  0.5653330000000  0.4768330000000 1.0
C      1  0.4698580000000  0.4316340000000  0.4791270000000 1.0
C      1  0.5307840000000  0.5654830000000  0.5243030000000 1.0
C      1  0.4707210000000  0.4359900000000  0.5265030000000 1.0
C      1  0.4698580000000  0.5683660000000  0.4791270000000 1.0
C      1  0.5274910000000  0.4346670000000  0.4768330000000 1.0
C      1  0.4707210000000  0.5640100000000  0.5265030000000 1.0
C      1  0.5307840000000  0.4345170000000  0.5243030000000 1.0
C      1  0.5584280000000  0.5232660000000  0.5228070000000 1.0
C      1  0.4406660000000  0.4762380000000  0.5246130000000 1.0
C      1  0.5508700000000  0.5225340000000  0.4793080000000 1.0
C      1  0.4493690000000  0.4769690000000  0.4814360000000 1.0
C      1  0.4406660000000  0.5237620000000  0.5246130000000 1.0
C      1  0.5584280000000  0.4767340000000  0.5228070000000 1.0
C      1  0.4493690000000  0.5230310000000  0.4814360000000 1.0
C      1  0.5508700000000  0.4774660000000  0.4793080000000 1.0
C      1  0.5220990000000  0.5154920000000  0.4860360000000 1.0
C      1  0.4776000000000  0.4846230000000  0.4880250000000 1.0
C      1  0.5150690000000  0.5168020000000  0.5181060000000 1.0
C      1  0.4835170000000  0.4837290000000  0.5197370000000 1.0
C      1  0.4776000000000  0.5153770000000  0.4880250000000 1.0
C      1  0.5220990000000  0.4845080000000  0.4860360000000 1.0
C      1  0.4835170000000  0.5162710000000  0.5197370000000 1.0
C      1  0.5150690000000  0.4831980000000  0.5181060000000 1.0
C      1  0.4516490000000  0.4854440000000  0.5502760000000 1.0
C      1  0.5468740000000  0.5148250000000  0.5482970000000 1.0
C      1  0.4499910000000  0.4849370000000  0.4528040000000 1.0
C      1  0.5502930000000  0.5150000000000  0.4498110000000 1.0
C      1  0.5468740000000  0.4851750000000  0.5482970000000 1.0
C      1  0.4516490000000  0.5145560000000  0.5502760000000 1.0
C      1  0.5502930000000  0.4850000000000  0.4498110000000 1.0
C      1  0.4499910000000  0.5150630000000  0.4528040000000 1.0
C      1  0.5531310000000  0.4490300000000  0.5135280000000 1.0
C      1  0.4470110000000  0.5513520000000  0.5159850000000 1.0
C      1  0.5516320000000  0.4480330000000  0.4841430000000 1.0
C      1  0.4473500000000  0.5527210000000  0.4865740000000 1.0
C      1  0.4470110000000  0.4486480000000  0.5159850000000 1.0
C      1  0.5531310000000  0.5509700000000  0.5135280000000 1.0
C      1  0.4473500000000  0.4472790000000  0.4865740000000 1.0
C      1  0.5516320000000  0.5519670000000  0.4841430000000 1.0
C      1  0.5039750000000  0.4698150000000  0.4635610000000 1.0
C      1  0.5039750000000  0.5301850000000  0.4635610000000 1.0
C      1  0.4980270000000  0.4630310000000  0.5486740000000 1.0
C      1  0.4980270000000  0.5369690000000  0.5486740000000 1.0
C      1  0.5141860000000  0.4317240000000  0.5014430000000 1.0
C      1  0.5141860000000  0.5682760000000  0.5014430000000 1.0
C      1  0.4852810000000  0.4308020000000  0.5026610000000 1.0
C      1  0.4852810000000  0.5691980000000  0.5026610000000 1.0
C      1  0.5686470000000  0.5000000000000  0.5053330000000 1.0
C      1  0.4309910000000  0.5000000000000  0.5065560000000 1.0
C      1  0.4868800000000  0.5000000000000  0.5784580000000 1.0
C      1  0.5113320000000  0.5000000000000  0.4256000000000 1.0
END
