TITL C-38190-6388-103 5.77810323315651e-06 125000 -359.024180585392 0 0 60 (C1) n - 1
REM
REM in /home/bkarasulu/CARBON/AIRSS/Generating-Clusters/EDIP-Nigel-Params/Higher-Symm/Box-15A/Only-C60/SD-CG/FIRE-HFTN
REM
REM
REM
REM
REM
REM ./C.cell (414f73aa93bd7a1190c7fd0f31ff2f98)
REM
REM compiler GCC version 9.2.1 20190827 (Red Hat 9.2.1-1)
REM options -cpp -mtune=generic -march=x86-64 -g -O0 -fpre-include=/usr/include/finclude/math-vector-fortran.h
REM seed 1545903596 -519520891 1079773273 1468548512 -782865900 -1109864864 1375974012 1514711822 1454049297 -275023422 1528339434 1063949395 -1652511482 -2074825467 -389113454 1179932411 -1130434750 1495811496 997267326 12050334 -632520080 -1962163643 -1407234008 1346821844 -1371624269 1841035401 1798283949 -2071438308 -1551484219 -113814636 307608130 2077631827 257939988
REM
CELL 1.54180   50.00000   50.00000   50.00000   90.00000   90.00000   90.00000
LATT -1
SFAC C  
C      1  0.4896310000000  0.5536110000000  0.4303410000000 1.0
C      1  0.5196670000000  0.5503620000000  0.4386880000000 1.0
C      1  0.5346520000000  0.5301740000000  0.4263760000000 1.0
C      1  0.5449000000000  0.5051330000000  0.4325730000000 1.0
C      1  0.5336680000000  0.4828430000000  0.4202880000000 1.0
C      1  0.5217740000000  0.4602990000000  0.4312220000000 1.0
C      1  0.4967520000000  0.4529500000000  0.4216630000000 1.0
C      1  0.4730170000000  0.4633310000000  0.4319130000000 1.0
C      1  0.4628270000000  0.4852620000000  0.4179320000000 1.0
C      1  0.4626900000000  0.5109440000000  0.4285980000000 1.0
C      1  0.4766220000000  0.5321900000000  0.4177330000000 1.0
C      1  0.4274400000000  0.4822840000000  0.5363040000000 1.0
C      1  0.4235910000000  0.5240730000000  0.5322550000000 1.0
C      1  0.4605610000000  0.5531370000000  0.5241870000000 1.0
C      1  0.4834490000000  0.5713950000000  0.5270670000000 1.0
C      1  0.5338130000000  0.5504190000000  0.5143270000000 1.0
C      1  0.5523200000000  0.5281950000000  0.5148980000000 1.0
C      1  0.5800430000000  0.4838580000000  0.5310090000000 1.0
C      1  0.5606170000000  0.4623440000000  0.5229880000000 1.0
C      1  0.5156070000000  0.4314170000000  0.5252990000000 1.0
C      1  0.4865870000000  0.4288550000000  0.5280960000000 1.0
C      1  0.4428800000000  0.4585590000000  0.5338940000000 1.0
C      1  0.4974570000000  0.5567380000000  0.5483460000000 1.0
C      1  0.5246820000000  0.5491430000000  0.5423190000000 1.0
C      1  0.5505860000000  0.5216470000000  0.5433080000000 1.0
C      1  0.5617560000000  0.4962020000000  0.5513030000000 1.0
C      1  0.5459970000000  0.4616210000000  0.5484950000000 1.0
C      1  0.5211570000000  0.4475730000000  0.5488420000000 1.0
C      1  0.4837620000000  0.4451070000000  0.5529560000000 1.0
C      1  0.4595180000000  0.4600350000000  0.5570510000000 1.0
C      1  0.4420220000000  0.4943150000000  0.5592920000000 1.0
C      1  0.4397150000000  0.5230580000000  0.5556530000000 1.0
C      1  0.4627320000000  0.5400290000000  0.5504530000000 1.0
C      1  0.4742120000000  0.4688510000000  0.4615790000000 1.0
C      1  0.4501020000000  0.4868560000000  0.4696560000000 1.0
C      1  0.4544100000000  0.5131330000000  0.4561860000000 1.0
C      1  0.4619910000000  0.5367380000000  0.4721870000000 1.0
C      1  0.4820710000000  0.5561400000000  0.4610670000000 1.0
C      1  0.5115590000000  0.5501250000000  0.4684640000000 1.0
C      1  0.5714270000000  0.5182010000000  0.4716200000000 1.0
C      1  0.5530750000000  0.5008720000000  0.4600310000000 1.0
C      1  0.5470670000000  0.4744450000000  0.4717580000000 1.0
C      1  0.5206930000000  0.4645240000000  0.4606520000000 1.0
C      1  0.4957300000000  0.4438960000000  0.4818950000000 1.0
C      1  0.5894260000000  0.5005250000000  0.5104610000000 1.0
C      1  0.5429060000000  0.4639170000000  0.4991600000000 1.0
C      1  0.5215250000000  0.4435120000000  0.4991220000000 1.0
C      1  0.4745310000000  0.4404870000000  0.5031220000000 1.0
C      1  0.4573390000000  0.4629080000000  0.5102120000000 1.0
C      1  0.4391830000000  0.4855800000000  0.4987760000000 1.0
C      1  0.4362300000000  0.5154570000000  0.5081540000000 1.0
C      1  0.4562050000000  0.5351100000000  0.5008500000000 1.0
C      1  0.4975550000000  0.5780660000000  0.5038650000000 1.0
C      1  0.5188840000000  0.5639590000000  0.4929700000000 1.0
C      1  0.5749740000000  0.5209330000000  0.4988220000000 1.0
C      1  0.5004750000000  0.5007480000000  0.5701360000000 1.0
C      1  0.4992600000000  0.4847580000000  0.4668880000000 1.0
C      1  0.4999690000000  0.5002620000000  0.5180560000000 1.0
C      1  0.4985770000000  0.4995440000000  0.5445500000000 1.0
C      1  0.5009380000000  0.4972410000000  0.4916590000000 1.0
END
