TITL C-38194-9318-507 -0.241139691945786 125000 -336.255157142138 0 0 60 (C1) n - 1
REM
REM in /home/bkarasulu/CARBON/AIRSS/Generating-Clusters/EDIP-Nigel-Params/Higher-Symm/Box-15A/Only-C60/SD-CG/FIRE-HFTN
REM
REM
REM
REM
REM
REM ./C.cell (414f73aa93bd7a1190c7fd0f31ff2f98)
REM
REM compiler GCC version 9.2.1 20190827 (Red Hat 9.2.1-1)
REM options -cpp -mtune=generic -march=x86-64 -g -O0 -fpre-include=/usr/include/finclude/math-vector-fortran.h
REM seed 1567309361 -1169822868 1606979744 -1851183056 -1642240177 1793049403 1725232726 2146802965 -971115923 1800063846 -677609503 -666151812 27151881 1715654818 -1480392323 818235783 1460382664 -276927864 870118062 740767936 87041353 1266708703 -2072927051 429470385 -976248053 -1413700145 -1883629409 1488544634 180166094 1890058337 -739988329 -843128364 1938799132
REM
CELL 1.54180   50.00000   50.00000   50.00000   90.00000   90.00000   90.00000
LATT -1
SFAC C  
C      1  0.5582730000000  0.5135030000000  0.5445780000000 1.0
C      1  0.4380810000000  0.5099870000000  0.5486180000000 1.0
C      1  0.4361360000000  0.4555920000000  0.5060110000000 1.0
C      1  0.5587080000000  0.4586790000000  0.5024690000000 1.0
C      1  0.4334740000000  0.5201700000000  0.4509790000000 1.0
C      1  0.5655930000000  0.5194520000000  0.4480770000000 1.0
C      1  0.4415500000000  0.5275530000000  0.5036520000000 1.0
C      1  0.5547210000000  0.5306270000000  0.4993750000000 1.0
C      1  0.5238180000000  0.4252750000000  0.5221060000000 1.0
C      1  0.4730060000000  0.4232270000000  0.5229230000000 1.0
C      1  0.5396650000000  0.4389910000000  0.4984320000000 1.0
C      1  0.4550840000000  0.4361710000000  0.5004790000000 1.0
C      1  0.4297690000000  0.5166330000000  0.4259270000000 1.0
C      1  0.5712570000000  0.5138750000000  0.4237730000000 1.0
C      1  0.4301320000000  0.4808480000000  0.5119820000000 1.0
C      1  0.5653270000000  0.4838460000000  0.5081570000000 1.0
C      1  0.4366100000000  0.5058500000000  0.5215750000000 1.0
C      1  0.5592070000000  0.5090190000000  0.5175660000000 1.0
C      1  0.5217920000000  0.5712700000000  0.5085870000000 1.0
C      1  0.4735600000000  0.5685520000000  0.5142670000000 1.0
C      1  0.5215550000000  0.4314250000000  0.5527140000000 1.0
C      1  0.4754300000000  0.4295260000000  0.5533390000000 1.0
C      1  0.5602390000000  0.5153090000000  0.5700530000000 1.0
C      1  0.4383630000000  0.5125590000000  0.5741020000000 1.0
C      1  0.4530050000000  0.5510140000000  0.5126410000000 1.0
C      1  0.5426630000000  0.5540920000000  0.5077160000000 1.0
C      1  0.5579990000000  0.5261020000000  0.4725220000000 1.0
C      1  0.4385480000000  0.5235590000000  0.4767020000000 1.0
C      1  0.5198190000000  0.4574400000000  0.4530130000000 1.0
C      1  0.4710700000000  0.4559180000000  0.4542280000000 1.0
C      1  0.4720500000000  0.4382810000000  0.4760530000000 1.0
C      1  0.5214440000000  0.4398260000000  0.4748340000000 1.0
C      1  0.5076730000000  0.5777500000000  0.4275150000000 1.0
C      1  0.4984210000000  0.5037840000000  0.6037810000000 1.0
C      1  0.4972530000000  0.4242950000000  0.4769170000000 1.0
C      1  0.5062060000000  0.5123660000000  0.3900010000000 1.0
C      1  0.4988700000000  0.4874360000000  0.3950620000000 1.0
C      1  0.4994800000000  0.4073710000000  0.5466540000000 1.0
C      1  0.4981000000000  0.4929660000000  0.5279430000000 1.0
C      1  0.4998160000000  0.5317000000000  0.4749410000000 1.0
C      1  0.4986250000000  0.5023080000000  0.5554850000000 1.0
C      1  0.4940620000000  0.4701400000000  0.4145340000000 1.0
C      1  0.4980830000000  0.5124430000000  0.5070220000000 1.0
C      1  0.4922280000000  0.5856990000000  0.4745690000000 1.0
C      1  0.4979870000000  0.5045980000000  0.4804280000000 1.0
C      1  0.4978030000000  0.4487420000000  0.5601130000000 1.0
C      1  0.4975560000000  0.4608150000000  0.5849060000000 1.0
C      1  0.4976760000000  0.4384230000000  0.5121950000000 1.0
C      1  0.5119220000000  0.5351830000000  0.4022130000000 1.0
C      1  0.5001620000000  0.5426010000000  0.5830590000000 1.0
C      1  0.5138480000000  0.5486010000000  0.4261420000000 1.0
C      1  0.4996700000000  0.5307080000000  0.5580770000000 1.0
C      1  0.4949510000000  0.4615710000000  0.4405670000000 1.0
C      1  0.4967540000000  0.4664520000000  0.5197620000000 1.0
C      1  0.4994840000000  0.5305870000000  0.6072960000000 1.0
C      1  0.4876850000000  0.5744620000000  0.4495960000000 1.0
C      1  0.5014930000000  0.5456580000000  0.5360810000000 1.0
C      1  0.4930880000000  0.5431580000000  0.4491060000000 1.0
C      1  0.4979880000000  0.4881310000000  0.5809480000000 1.0
C      1  0.4959650000000  0.5793990000000  0.5011890000000 1.0
END
