TITL C-38193-7935-182 1.05457973024779e-05 125000 -368.956493654603 0 0 60 (D2) n - 1
REM
REM in /home/bkarasulu/CARBON/AIRSS/Generating-Clusters/EDIP-Nigel-Params/Higher-Symm/Box-15A/Only-C60/SD-CG/FIRE-HFTN
REM
REM
REM
REM
REM
REM ./C.cell (414f73aa93bd7a1190c7fd0f31ff2f98)
REM
REM compiler GCC version 9.2.1 20190827 (Red Hat 9.2.1-1)
REM options -cpp -mtune=generic -march=x86-64 -g -O0 -fpre-include=/usr/include/finclude/math-vector-fortran.h
REM seed -1713777635 -1479072690 1130662614 -1538554841 -1897123646 607773978 1979076357 -763637416 -1898420782 -333789690 1391636792 -1112524269 -363591547 730347551 -235582983 -861736999 1978368341 -319854371 -794123476 -106278148 1770388365 -780838274 1346958182 -1995987323 -1365229816 -1460824420 543955389 2125049090 341234700 -348639880 271187820 214474970 1449228972
REM
CELL 1.54180   50.00000   50.00000   50.00000   90.00000   90.00000   90.00000
LATT -1
SFAC C  
C      1  0.4483600000000  0.5490040000000  0.4890260000000 1.0
C      1  0.5516400000000  0.4509960000000  0.4890260000000 1.0
C      1  0.5516400000000  0.5490040000000  0.5109740000000 1.0
C      1  0.4483600000000  0.4509960000000  0.5109740000000 1.0
C      1  0.4987430000000  0.4352250000000  0.5152810000000 1.0
C      1  0.5012570000000  0.5647750000000  0.5152810000000 1.0
C      1  0.5012570000000  0.4352250000000  0.4847190000000 1.0
C      1  0.4987430000000  0.5647750000000  0.4847190000000 1.0
C      1  0.4947540000000  0.4789820000000  0.4810900000000 1.0
C      1  0.5052460000000  0.5210180000000  0.4810900000000 1.0
C      1  0.5052460000000  0.4789820000000  0.5189100000000 1.0
C      1  0.4947540000000  0.5210180000000  0.5189100000000 1.0
C      1  0.4789920000000  0.5126390000000  0.5670790000000 1.0
C      1  0.5210080000000  0.4873610000000  0.5670790000000 1.0
C      1  0.5210080000000  0.5126390000000  0.4329210000000 1.0
C      1  0.4789920000000  0.4873610000000  0.4329210000000 1.0
C      1  0.4305120000000  0.4729160000000  0.5216130000000 1.0
C      1  0.5694880000000  0.5270840000000  0.5216130000000 1.0
C      1  0.5694880000000  0.4729160000000  0.4783870000000 1.0
C      1  0.4305120000000  0.5270840000000  0.4783870000000 1.0
C      1  0.5544480000000  0.4953620000000  0.4654850000000 1.0
C      1  0.4455520000000  0.5046380000000  0.4654850000000 1.0
C      1  0.4455520000000  0.4953620000000  0.5345150000000 1.0
C      1  0.5544480000000  0.5046380000000  0.5345150000000 1.0
C      1  0.5489270000000  0.5451210000000  0.4807120000000 1.0
C      1  0.4510730000000  0.4548790000000  0.4807120000000 1.0
C      1  0.4510730000000  0.5451210000000  0.5192880000000 1.0
C      1  0.5489270000000  0.4548790000000  0.5192880000000 1.0
C      1  0.5340870000000  0.5094200000000  0.5554380000000 1.0
C      1  0.4659130000000  0.4905800000000  0.5554380000000 1.0
C      1  0.4659130000000  0.5094200000000  0.4445620000000 1.0
C      1  0.5340870000000  0.4905800000000  0.4445620000000 1.0
C      1  0.5200020000000  0.4644480000000  0.4476840000000 1.0
C      1  0.4799980000000  0.5355520000000  0.4476840000000 1.0
C      1  0.4799980000000  0.4644480000000  0.5523160000000 1.0
C      1  0.5200020000000  0.5355520000000  0.5523160000000 1.0
C      1  0.5842380000000  0.5153000000000  0.4978270000000 1.0
C      1  0.4157620000000  0.4847000000000  0.4978270000000 1.0
C      1  0.4157620000000  0.5153000000000  0.5021730000000 1.0
C      1  0.5842380000000  0.4847000000000  0.5021730000000 1.0
C      1  0.4330300000000  0.4784510000000  0.4731230000000 1.0
C      1  0.5669700000000  0.5215490000000  0.4731230000000 1.0
C      1  0.5669700000000  0.4784510000000  0.5268770000000 1.0
C      1  0.4330300000000  0.5215490000000  0.5268770000000 1.0
C      1  0.4806730000000  0.4527520000000  0.4693510000000 1.0
C      1  0.5193270000000  0.5472480000000  0.4693510000000 1.0
C      1  0.5193270000000  0.4527520000000  0.5306490000000 1.0
C      1  0.4806730000000  0.5472480000000  0.5306490000000 1.0
C      1  0.4740710000000  0.4486150000000  0.5267750000000 1.0
C      1  0.5259290000000  0.5513850000000  0.5267750000000 1.0
C      1  0.5259290000000  0.4486150000000  0.4732250000000 1.0
C      1  0.4740710000000  0.5513850000000  0.4732250000000 1.0
C      1  0.5254900000000  0.4856040000000  0.4974140000000 1.0
C      1  0.4745100000000  0.5143960000000  0.4974140000000 1.0
C      1  0.4745100000000  0.4856040000000  0.5025860000000 1.0
C      1  0.5254900000000  0.5143960000000  0.5025860000000 1.0
C      1  0.4904710000000  0.5372380000000  0.5594000000000 1.0
C      1  0.5095290000000  0.4627620000000  0.5594000000000 1.0
C      1  0.5095290000000  0.5372380000000  0.4406000000000 1.0
C      1  0.4904710000000  0.4627620000000  0.4406000000000 1.0
END
