TITL C-38185-7677-375 4.62939807984552e-06 125000 -358.879131750222 0 0 60 (C1) n - 1
REM
REM in /home/bkarasulu/CARBON/AIRSS/Generating-Clusters/EDIP-Nigel-Params/Higher-Symm/Box-15A/Only-C60/SD-CG/FIRE-HFTN
REM
REM
REM
REM
REM
REM ./C.cell (414f73aa93bd7a1190c7fd0f31ff2f98)
REM
REM compiler GCC version 9.2.1 20190827 (Red Hat 9.2.1-1)
REM options -cpp -mtune=generic -march=x86-64 -g -O0 -fpre-include=/usr/include/finclude/math-vector-fortran.h
REM seed 1037462061 -1250025992 366427399 1870520618 1687808985 -1307452015 786564665 -1955937535 -200871976 -1158776405 -894513518 -2099092690 -1338711371 1571891440 -1941171230 1524232933 264931087 -1684404544 1444385463 246537341 -1461119203 -873644427 -1927149738 -1164726504 -1581586219 1683345957 209993696 -1794937926 1590145656 1496816405 620095404 -30424600 632335064
REM
CELL 1.54180   50.00000   50.00000   50.00000   90.00000   90.00000   90.00000
LATT -1
SFAC C  
C      1  0.4707150000000  0.5336520000000  0.5729350000000 1.0
C      1  0.4905250000000  0.5493820000000  0.5849970000000 1.0
C      1  0.5142360000000  0.5423560000000  0.5717910000000 1.0
C      1  0.5344160000000  0.5281310000000  0.5847970000000 1.0
C      1  0.5394960000000  0.5037530000000  0.5722810000000 1.0
C      1  0.5358270000000  0.4795190000000  0.5856700000000 1.0
C      1  0.5227740000000  0.4596180000000  0.5706090000000 1.0
C      1  0.4937290000000  0.4609870000000  0.5665940000000 1.0
C      1  0.4735760000000  0.4662340000000  0.5856330000000 1.0
C      1  0.4591700000000  0.4877000000000  0.5742990000000 1.0
C      1  0.4580830000000  0.5127640000000  0.5865540000000 1.0
C      1  0.5453170000000  0.4333600000000  0.4652790000000 1.0
C      1  0.4952920000000  0.4353800000000  0.4769260000000 1.0
C      1  0.4681310000000  0.4475070000000  0.4800230000000 1.0
C      1  0.4319440000000  0.4880950000000  0.4695460000000 1.0
C      1  0.4280850000000  0.5164890000000  0.4656060000000 1.0
C      1  0.4576060000000  0.5520120000000  0.4673970000000 1.0
C      1  0.4794460000000  0.5710360000000  0.4687350000000 1.0
C      1  0.5281610000000  0.5598540000000  0.4702910000000 1.0
C      1  0.5543730000000  0.5476080000000  0.4685490000000 1.0
C      1  0.5637640000000  0.4992420000000  0.4664630000000 1.0
C      1  0.5650260000000  0.4706990000000  0.4632100000000 1.0
C      1  0.4890500000000  0.5494690000000  0.5291730000000 1.0
C      1  0.5155500000000  0.5448100000000  0.5426630000000 1.0
C      1  0.5369200000000  0.5284370000000  0.5291720000000 1.0
C      1  0.5428890000000  0.5035830000000  0.5435160000000 1.0
C      1  0.5457090000000  0.4776020000000  0.5301190000000 1.0
C      1  0.5358170000000  0.4552970000000  0.5450490000000 1.0
C      1  0.4862850000000  0.4512330000000  0.5402520000000 1.0
C      1  0.4606000000000  0.4621230000000  0.5305050000000 1.0
C      1  0.4541260000000  0.4876860000000  0.5454690000000 1.0
C      1  0.4515870000000  0.5142680000000  0.5309030000000 1.0
C      1  0.4664900000000  0.5364490000000  0.5441170000000 1.0
C      1  0.4437580000000  0.5172810000000  0.5011370000000 1.0
C      1  0.4655140000000  0.5331890000000  0.4876700000000 1.0
C      1  0.4885280000000  0.5505850000000  0.4985210000000 1.0
C      1  0.5149810000000  0.5417300000000  0.4880160000000 1.0
C      1  0.5408090000000  0.5292130000000  0.4988830000000 1.0
C      1  0.5455670000000  0.5013500000000  0.4883000000000 1.0
C      1  0.5528360000000  0.4735290000000  0.5005250000000 1.0
C      1  0.5416950000000  0.4450710000000  0.4908910000000 1.0
C      1  0.5144230000000  0.4395990000000  0.5000330000000 1.0
C      1  0.4658490000000  0.4694320000000  0.5017010000000 1.0
C      1  0.4431190000000  0.4878440000000  0.4958020000000 1.0
C      1  0.4915620000000  0.5644770000000  0.4424930000000 1.0
C      1  0.5193540000000  0.5570280000000  0.4430780000000 1.0
C      1  0.5506150000000  0.5356850000000  0.4415710000000 1.0
C      1  0.5531870000000  0.5071270000000  0.4411390000000 1.0
C      1  0.5472630000000  0.4690280000000  0.4393310000000 1.0
C      1  0.5312610000000  0.4449330000000  0.4435020000000 1.0
C      1  0.5028840000000  0.4467060000000  0.4506180000000 1.0
C      1  0.4665890000000  0.4585730000000  0.4525710000000 1.0
C      1  0.4510800000000  0.4824650000000  0.4485900000000 1.0
C      1  0.4441630000000  0.5190160000000  0.4410060000000 1.0
C      1  0.4609650000000  0.5421980000000  0.4405640000000 1.0
C      1  0.4929800000000  0.4828410000000  0.5038620000000 1.0
C      1  0.5031010000000  0.4923710000000  0.4796920000000 1.0
C      1  0.5015650000000  0.4984740000000  0.4535210000000 1.0
C      1  0.5008480000000  0.4996850000000  0.4278170000000 1.0
C      1  0.5072490000000  0.4603300000000  0.5201400000000 1.0
END
