TITL C-38197-8510-377 -3.51209833166666e-06 125000 -367.255883923852 0 0 60 (C2) n - 1
REM
REM in /home/bkarasulu/CARBON/AIRSS/Generating-Clusters/EDIP-Nigel-Params/Higher-Symm/Box-15A/Only-C60/SD-CG/FIRE-HFTN
REM
REM
REM
REM
REM
REM ./C.cell (414f73aa93bd7a1190c7fd0f31ff2f98)
REM
REM compiler GCC version 9.2.1 20190827 (Red Hat 9.2.1-1)
REM options -cpp -mtune=generic -march=x86-64 -g -O0 -fpre-include=/usr/include/finclude/math-vector-fortran.h
REM seed -1355316028 381359671 1061660435 -1327642198 678312867 -879738765 -1378116112 -2086628961 -2064950572 -1318045274 160765154 266718234 -1934208199 -89429996 1648006284 -619726465 1856233558 -1531262059 -1406023708 -1018635533 1909759464 1466740230 -1524417173 842772391 1379125237 -1735130213 464729383 1946153511 874600506 -1423123524 622611236 1323927047 1327766804
REM
CELL 1.54180   50.00000   50.00000   50.00000   90.00000   90.00000   90.00000
LATT -1
SFAC C  
C      1  0.5178320000000  0.4481760000000  0.4447760000000 1.0
C      1  0.4821680000000  0.5518240000000  0.4447760000000 1.0
C      1  0.4893970000000  0.4175500000000  0.5254720000000 1.0
C      1  0.5106030000000  0.5824500000000  0.5254720000000 1.0
C      1  0.5138680000000  0.4234510000000  0.5392550000000 1.0
C      1  0.4861320000000  0.5765490000000  0.5392550000000 1.0
C      1  0.5592540000000  0.4973480000000  0.4831620000000 1.0
C      1  0.4407460000000  0.5026520000000  0.4831620000000 1.0
C      1  0.5615480000000  0.4506310000000  0.5229490000000 1.0
C      1  0.4384520000000  0.5493690000000  0.5229490000000 1.0
C      1  0.5180540000000  0.4509780000000  0.5445440000000 1.0
C      1  0.4819460000000  0.5490220000000  0.5445440000000 1.0
C      1  0.5323280000000  0.5480230000000  0.5435720000000 1.0
C      1  0.4676720000000  0.4519770000000  0.5435720000000 1.0
C      1  0.5104370000000  0.5783210000000  0.4965330000000 1.0
C      1  0.4895630000000  0.4216790000000  0.4965330000000 1.0
C      1  0.4796470000000  0.5760120000000  0.4583780000000 1.0
C      1  0.5203530000000  0.4239880000000  0.4583780000000 1.0
C      1  0.5293020000000  0.5413530000000  0.4566370000000 1.0
C      1  0.4706980000000  0.4586470000000  0.4566370000000 1.0
C      1  0.5430560000000  0.4666500000000  0.5372100000000 1.0
C      1  0.4569440000000  0.5333500000000  0.5372100000000 1.0
C      1  0.5269500000000  0.4703860000000  0.4620050000000 1.0
C      1  0.4730500000000  0.5296140000000  0.4620050000000 1.0
C      1  0.5412230000000  0.5174680000000  0.4480710000000 1.0
C      1  0.4587770000000  0.4825320000000  0.4480710000000 1.0
C      1  0.4537890000000  0.5024040000000  0.5373520000000 1.0
C      1  0.5462110000000  0.4975960000000  0.5373520000000 1.0
C      1  0.4618980000000  0.5849380000000  0.5004960000000 1.0
C      1  0.5381020000000  0.4150620000000  0.5004960000000 1.0
C      1  0.5064570000000  0.5359870000000  0.5352810000000 1.0
C      1  0.4935430000000  0.4640130000000  0.5352810000000 1.0
C      1  0.5349450000000  0.5752390000000  0.5375620000000 1.0
C      1  0.4650550000000  0.4247610000000  0.5375620000000 1.0
C      1  0.5511440000000  0.5285050000000  0.5304410000000 1.0
C      1  0.4488560000000  0.4714950000000  0.5304410000000 1.0
C      1  0.4950210000000  0.4652990000000  0.5031420000000 1.0
C      1  0.5049790000000  0.5347010000000  0.5031420000000 1.0
C      1  0.4461350000000  0.4623530000000  0.5014460000000 1.0
C      1  0.5538650000000  0.5376470000000  0.5014460000000 1.0
C      1  0.5479050000000  0.4913920000000  0.4564580000000 1.0
C      1  0.4520950000000  0.5086080000000  0.4564580000000 1.0
C      1  0.5464560000000  0.4419520000000  0.5007490000000 1.0
C      1  0.4535440000000  0.5580480000000  0.5007490000000 1.0
C      1  0.5365080000000  0.4909520000000  0.5015300000000 1.0
C      1  0.4634920000000  0.5090480000000  0.5015300000000 1.0
C      1  0.5093240000000  0.5494470000000  0.4390710000000 1.0
C      1  0.4906760000000  0.4505530000000  0.4390710000000 1.0
C      1  0.4939820000000  0.4883190000000  0.5488290000000 1.0
C      1  0.5060180000000  0.5116810000000  0.5488290000000 1.0
C      1  0.4284350000000  0.4776240000000  0.4859270000000 1.0
C      1  0.5715650000000  0.5223760000000  0.4859270000000 1.0
C      1  0.5284600000000  0.5491620000000  0.4869470000000 1.0
C      1  0.4715400000000  0.4508380000000  0.4869470000000 1.0
C      1  0.4846810000000  0.5850470000000  0.4841130000000 1.0
C      1  0.5153190000000  0.4149530000000  0.4841130000000 1.0
C      1  0.4735730000000  0.5367310000000  0.4917900000000 1.0
C      1  0.5264270000000  0.4632690000000  0.4917900000000 1.0
C      1  0.5118140000000  0.5073960000000  0.4963000000000 1.0
C      1  0.4881860000000  0.4926040000000  0.4963000000000 1.0
END
