TITL C-38184-643-656 85.7742009685498 125000 -358.326560281243 0 0 60 (C1) n - 1
REM
REM in /home/bkarasulu/CARBON/AIRSS/Generating-Clusters/EDIP-Nigel-Params/Higher-Symm/Box-15A/Only-C60/SD-CG/FIRE-HFTN
REM
REM
REM
REM
REM
REM ./C.cell (414f73aa93bd7a1190c7fd0f31ff2f98)
REM
REM compiler GCC version 9.2.1 20190827 (Red Hat 9.2.1-1)
REM options -cpp -mtune=generic -march=x86-64 -g -O0 -fpre-include=/usr/include/finclude/math-vector-fortran.h
REM seed 1426419203 -1063211731 -1509437481 419505724 -81274703 -1268289317 -1459191460 -1085016137 361969658 -650414901 51462186 -141717286 1397523679 339743658 -1748782077 1938627491 -1079525904 390188123 1920149433 -362380425 -1739743301 -1467038552 957861790 -1341013569 -1223475919 1682749408 1854722170 -1304398258 -1476864190 -669036958 1520223527 1085165164 293269126
REM
CELL 1.54180   50.00000   50.00000   50.00000   90.00000   90.00000   90.00000
LATT -1
SFAC C  
C      1  0.4814360000000  0.5541650000000  0.5055150000000 1.0
C      1  0.5798610000000  0.5627510000000  0.4916240000000 1.0
C      1  0.5369350000000  0.4443110000000  0.5489250000000 1.0
C      1  0.5123390000000  0.4819250000000  0.5680620000000 1.0
C      1  0.5740040000000  0.4500720000000  0.5188830000000 1.0
C      1  0.5163510000000  0.5247970000000  0.5246380000000 1.0
C      1  0.5016380000000  0.4383030000000  0.4646820000000 1.0
C      1  0.5436010000000  0.5426210000000  0.4910540000000 1.0
C      1  0.5345750000000  0.4970570000000  0.5756130000000 1.0
C      1  0.5621610000000  0.5311090000000  0.5577860000000 1.0
C      1  0.4236510000000  0.5077310000000  0.5014710000000 1.0
C      1  0.4867840000000  0.4946440000000  0.5716030000000 1.0
C      1  0.5218890000000  0.5532960000000  0.4719670000000 1.0
C      1  0.4463140000000  0.4211240000000  0.3917760000000 1.0
C      1  0.4825130000000  0.5671410000000  0.5328560000000 1.0
C      1  0.5076140000000  0.5641170000000  0.5490660000000 1.0
C      1  0.4872490000000  0.4655760000000  0.5032980000000 1.0
C      1  0.4951160000000  0.5629640000000  0.4803560000000 1.0
C      1  0.5784540000000  0.5522000000000  0.5166840000000 1.0
C      1  0.5119060000000  0.5333250000000  0.5543900000000 1.0
C      1  0.4467810000000  0.4969040000000  0.4482390000000 1.0
C      1  0.4772280000000  0.5622310000000  0.4590360000000 1.0
C      1  0.5679040000000  0.5716670000000  0.4690740000000 1.0
C      1  0.4884550000000  0.5219250000000  0.5671620000000 1.0
C      1  0.4487080000000  0.5210930000000  0.4612210000000 1.0
C      1  0.4216630000000  0.4800710000000  0.5013770000000 1.0
C      1  0.4419740000000  0.5493930000000  0.5296160000000 1.0
C      1  0.5936930000000  0.4578460000000  0.5367150000000 1.0
C      1  0.5292040000000  0.5717170000000  0.5319080000000 1.0
C      1  0.4321240000000  0.4107920000000  0.3692300000000 1.0
C      1  0.4626870000000  0.5418150000000  0.4496580000000 1.0
C      1  0.4260620000000  0.4758410000000  0.4110300000000 1.0
C      1  0.5822840000000  0.5049410000000  0.5217880000000 1.0
C      1  0.4450660000000  0.5225160000000  0.4896910000000 1.0
C      1  0.4530790000000  0.5465190000000  0.5039630000000 1.0
C      1  0.5188160000000  0.4292710000000  0.4828860000000 1.0
C      1  0.5787520000000  0.5307910000000  0.5349140000000 1.0
C      1  0.5073790000000  0.4828030000000  0.4989650000000 1.0
C      1  0.4624160000000  0.4529970000000  0.4322150000000 1.0
C      1  0.5342930000000  0.5471170000000  0.5183420000000 1.0
C      1  0.5373280000000  0.5240950000000  0.5689260000000 1.0
C      1  0.4450500000000  0.4756780000000  0.4308930000000 1.0
C      1  0.4902480000000  0.4463080000000  0.5453940000000 1.0
C      1  0.4588360000000  0.4329660000000  0.4136860000000 1.0
C      1  0.4732420000000  0.4565870000000  0.5256220000000 1.0
C      1  0.4292140000000  0.4806730000000  0.5280520000000 1.0
C      1  0.5456810000000  0.5122280000000  0.4890650000000 1.0
C      1  0.4558100000000  0.4763020000000  0.5375630000000 1.0
C      1  0.5496950000000  0.4369870000000  0.5254940000000 1.0
C      1  0.5341900000000  0.4280690000000  0.5045620000000 1.0
C      1  0.4235120000000  0.4362550000000  0.3790350000000 1.0
C      1  0.5132350000000  0.4547900000000  0.5585060000000 1.0
C      1  0.4632900000000  0.4816300000000  0.5638890000000 1.0
C      1  0.5804210000000  0.4820690000000  0.5389390000000 1.0
C      1  0.4821310000000  0.4503600000000  0.4511660000000 1.0
C      1  0.5716340000000  0.5035570000000  0.4957000000000 1.0
C      1  0.5422970000000  0.5690690000000  0.4602330000000 1.0
C      1  0.4585540000000  0.5621160000000  0.5471880000000 1.0
C      1  0.5251660000000  0.5020600000000  0.5079680000000 1.0
C      1  0.4175050000000  0.4607240000000  0.3908420000000 1.0
END
