TITL C-38185-7677-166 -0.00010729391718712 125000 -354.677455996297 0 0 60 (C2h) n - 1
REM
REM in /home/bkarasulu/CARBON/AIRSS/Generating-Clusters/EDIP-Nigel-Params/Higher-Symm/Box-15A/Only-C60/SD-CG/FIRE-HFTN
REM
REM
REM
REM
REM
REM ./C.cell (414f73aa93bd7a1190c7fd0f31ff2f98)
REM
REM compiler GCC version 9.2.1 20190827 (Red Hat 9.2.1-1)
REM options -cpp -mtune=generic -march=x86-64 -g -O0 -fpre-include=/usr/include/finclude/math-vector-fortran.h
REM seed -360902810 1022092258 1517259495 -694223835 1627760992 -1927453074 -1372454441 1832667986 -64265890 917066773 -19700726 -1214563408 -878376088 1541166890 -739676114 -203931039 566433242 1897357960 -2096308230 528699432 1030392576 -1915849276 -1907522141 -1152737944 42792237 1696852892 1859503167 1362774762 404260550 -1758703819 -728795685 -256843561 406586479
REM
CELL 1.54180   50.00000   50.00000   50.00000   90.00000   90.00000   90.00000
LATT -1
SFAC C  
C      1  0.4710840000000  0.4317740000000  0.5157150000000 1.0
C      1  0.4707510000000  0.5187880000000  0.4359940000000 1.0
C      1  0.4743410000000  0.5453240000000  0.5467040000000 1.0
C      1  0.5292410000000  0.5648260000000  0.5157420000000 1.0
C      1  0.5256570000000  0.4822310000000  0.4373910000000 1.0
C      1  0.5289270000000  0.4522720000000  0.5512170000000 1.0
C      1  0.5289160000000  0.5682260000000  0.4842850000000 1.0
C      1  0.5292490000000  0.4812120000000  0.5640060000000 1.0
C      1  0.5256590000000  0.4546760000000  0.4532960000000 1.0
C      1  0.4707590000000  0.4351740000000  0.4842580000000 1.0
C      1  0.4743430000000  0.5177690000000  0.5626090000000 1.0
C      1  0.4710730000000  0.5477280000000  0.4487830000000 1.0
C      1  0.4456850000000  0.5074280000000  0.4305480000000 1.0
C      1  0.4493160000000  0.5562320000000  0.5398210000000 1.0
C      1  0.4457890000000  0.4325590000000  0.5280360000000 1.0
C      1  0.5506790000000  0.4936500000000  0.4313860000000 1.0
C      1  0.5542230000000  0.4419990000000  0.5443720000000 1.0
C      1  0.5543080000000  0.5638640000000  0.5283000000000 1.0
C      1  0.5543150000000  0.4925720000000  0.5694520000000 1.0
C      1  0.5506840000000  0.4437680000000  0.4601790000000 1.0
C      1  0.5542110000000  0.5674410000000  0.4719640000000 1.0
C      1  0.4493210000000  0.5063500000000  0.5686140000000 1.0
C      1  0.4457770000000  0.5580010000000  0.4556280000000 1.0
C      1  0.4456920000000  0.4361360000000  0.4717000000000 1.0
C      1  0.4315160000000  0.4555910000000  0.5339080000000 1.0
C      1  0.4289750000000  0.4898500000000  0.4439450000000 1.0
C      1  0.4338800000000  0.5517400000000  0.5172390000000 1.0
C      1  0.5710220000000  0.5434730000000  0.5368200000000 1.0
C      1  0.5661140000000  0.5109600000000  0.4465690000000 1.0
C      1  0.5684930000000  0.4484360000000  0.5214900000000 1.0
C      1  0.5684840000000  0.5444090000000  0.4660920000000 1.0
C      1  0.5710250000000  0.5101500000000  0.5560550000000 1.0
C      1  0.5661200000000  0.4482600000000  0.4827610000000 1.0
C      1  0.4289780000000  0.4565270000000  0.4631800000000 1.0
C      1  0.4338860000000  0.4890400000000  0.5534310000000 1.0
C      1  0.4315070000000  0.5515640000000  0.4785100000000 1.0
C      1  0.4859740000000  0.4589200000000  0.5180980000000 1.0
C      1  0.4844150000000  0.5077460000000  0.4613720000000 1.0
C      1  0.4884830000000  0.5310270000000  0.5230460000000 1.0
C      1  0.5155810000000  0.5373260000000  0.5126110000000 1.0
C      1  0.5115150000000  0.4955640000000  0.4616050000000 1.0
C      1  0.5140340000000  0.4637830000000  0.5265190000000 1.0
C      1  0.5140260000000  0.5410800000000  0.4819020000000 1.0
C      1  0.5155850000000  0.4922540000000  0.5386280000000 1.0
C      1  0.5115170000000  0.4689730000000  0.4769540000000 1.0
C      1  0.4844190000000  0.4626740000000  0.4873890000000 1.0
C      1  0.4884850000000  0.5044360000000  0.5383950000000 1.0
C      1  0.4859660000000  0.5362170000000  0.4734810000000 1.0
C      1  0.5805220000000  0.5007470000000  0.5302560000000 1.0
C      1  0.5724220000000  0.4761650000000  0.4874830000000 1.0
C      1  0.5721940000000  0.5253550000000  0.4878460000000 1.0
C      1  0.4275800000000  0.4989070000000  0.5269060000000 1.0
C      1  0.4278020000000  0.5231960000000  0.4841290000000 1.0
C      1  0.4194810000000  0.4741620000000  0.4842270000000 1.0
C      1  0.4194780000000  0.4992530000000  0.4697440000000 1.0
C      1  0.4275780000000  0.5238350000000  0.5125170000000 1.0
C      1  0.4278060000000  0.4746450000000  0.5121540000000 1.0
C      1  0.5724200000000  0.5010930000000  0.4730940000000 1.0
C      1  0.5721980000000  0.4768040000000  0.5158710000000 1.0
C      1  0.5805190000000  0.5258380000000  0.5157730000000 1.0
END
