TITL C-38191-7580-75 0.00335849157203865 125000 -357.396542697296 0 0 60 (C1) n - 1
REM
REM in /home/bkarasulu/CARBON/AIRSS/Generating-Clusters/EDIP-Nigel-Params/Higher-Symm/Box-15A/Only-C60/SD-CG/FIRE-HFTN
REM
REM
REM
REM
REM
REM ./C.cell (414f73aa93bd7a1190c7fd0f31ff2f98)
REM
REM compiler GCC version 9.2.1 20190827 (Red Hat 9.2.1-1)
REM options -cpp -mtune=generic -march=x86-64 -g -O0 -fpre-include=/usr/include/finclude/math-vector-fortran.h
REM seed -922792245 48935636 -1654151299 -1366315072 778149948 869949130 1476705478 1819237326 -581455480 -1321948536 971311362 -1837189289 -2116405753 2027902588 -711373813 -197966125 1540272117 87376408 -1266181824 -784574323 713715560 1094692038 -609479109 1940977221 -1964476339 -366269396 -566586205 -1040713796 606199677 -289704350 1932515643 44928293 -146726930
REM
CELL 1.54180   50.00000   50.00000   50.00000   90.00000   90.00000   90.00000
LATT -1
SFAC C  
C      1  0.5458680000000  0.4977850000000  0.4546210000000 1.0
C      1  0.5710510000000  0.4958220000000  0.5061380000000 1.0
C      1  0.5411230000000  0.4953250000000  0.5622340000000 1.0
C      1  0.4770200000000  0.4979660000000  0.5666020000000 1.0
C      1  0.4393950000000  0.5002720000000  0.5217960000000 1.0
C      1  0.4473930000000  0.5011830000000  0.4681200000000 1.0
C      1  0.4940770000000  0.4998980000000  0.4402300000000 1.0
C      1  0.5208210000000  0.5382530000000  0.4494620000000 1.0
C      1  0.5568870000000  0.5349930000000  0.4823960000000 1.0
C      1  0.5508650000000  0.5331210000000  0.5314340000000 1.0
C      1  0.5098710000000  0.5339990000000  0.5591110000000 1.0
C      1  0.4630860000000  0.5368280000000  0.5425710000000 1.0
C      1  0.4479800000000  0.5397530000000  0.4962030000000 1.0
C      1  0.4715840000000  0.5399040000000  0.4531140000000 1.0
C      1  0.5553630000000  0.4434180000000  0.5050200000000 1.0
C      1  0.5295510000000  0.4438970000000  0.5454000000000 1.0
C      1  0.4822490000000  0.4454070000000  0.5521340000000 1.0
C      1  0.4475010000000  0.4462760000000  0.5189720000000 1.0
C      1  0.4530620000000  0.4471200000000  0.4705330000000 1.0
C      1  0.4932420000000  0.4465230000000  0.4435670000000 1.0
C      1  0.5400660000000  0.4443520000000  0.4588180000000 1.0
C      1  0.4429160000000  0.4579870000000  0.4940620000000 1.0
C      1  0.4678180000000  0.4569810000000  0.4490680000000 1.0
C      1  0.5194640000000  0.4565620000000  0.4438200000000 1.0
C      1  0.5572560000000  0.4536990000000  0.4790470000000 1.0
C      1  0.5509790000000  0.4534200000000  0.5307890000000 1.0
C      1  0.5077720000000  0.4543330000000  0.5588560000000 1.0
C      1  0.4582830000000  0.4561020000000  0.5427340000000 1.0
C      1  0.4951090000000  0.5286930000000  0.4425470000000 1.0
C      1  0.5455530000000  0.5270880000000  0.4578720000000 1.0
C      1  0.5643980000000  0.5247360000000  0.5074940000000 1.0
C      1  0.5371370000000  0.5247510000000  0.5555390000000 1.0
C      1  0.4820200000000  0.5268610000000  0.5610950000000 1.0
C      1  0.4448120000000  0.5294190000000  0.5222560000000 1.0
C      1  0.4515680000000  0.5298320000000  0.4701520000000 1.0
C      1  0.5111540000000  0.5101400000000  0.4791590000000 1.0
C      1  0.5268810000000  0.4870900000000  0.4935050000000 1.0
C      1  0.5313660000000  0.4982860000000  0.5202990000000 1.0
C      1  0.5063610000000  0.4990150000000  0.5366550000000 1.0
C      1  0.4825100000000  0.4906220000000  0.5229270000000 1.0
C      1  0.4769510000000  0.5091740000000  0.4998840000000 1.0
C      1  0.4850120000000  0.4837460000000  0.4796190000000 1.0
C      1  0.4393720000000  0.4869630000000  0.4938660000000 1.0
C      1  0.4660180000000  0.4867070000000  0.4459730000000 1.0
C      1  0.5203980000000  0.4856330000000  0.4434730000000 1.0
C      1  0.5549760000000  0.4832140000000  0.4810250000000 1.0
C      1  0.5559290000000  0.4827170000000  0.5346530000000 1.0
C      1  0.5098570000000  0.4836360000000  0.5646370000000 1.0
C      1  0.4602650000000  0.4858940000000  0.5418640000000 1.0
C      1  0.4936360000000  0.6351780000000  0.4883060000000 1.0
C      1  0.5073240000000  0.4374730000000  0.4897490000000 1.0
C      1  0.5024450000000  0.3848040000000  0.4935310000000 1.0
C      1  0.5048950000000  0.4648900000000  0.4947290000000 1.0
C      1  0.4922350000000  0.6605930000000  0.4858650000000 1.0
C      1  0.5006710000000  0.5294720000000  0.5002340000000 1.0
C      1  0.4947850000000  0.6089000000000  0.4903880000000 1.0
C      1  0.5000030000000  0.3594260000000  0.4954950000000 1.0
C      1  0.4963400000000  0.5826970000000  0.4930670000000 1.0
C      1  0.4969520000000  0.5562080000000  0.4943620000000 1.0
C      1  0.5042850000000  0.4111140000000  0.4925640000000 1.0
END
