TITL C-38196-2854-304 0.000884031899856222 125000 -335.868664288022 0 0 60 (C2) n - 1
REM
REM in /home/bkarasulu/CARBON/AIRSS/Generating-Clusters/EDIP-Nigel-Params/Higher-Symm/Box-15A/Only-C60/SD-CG/FIRE-HFTN
REM
REM
REM
REM
REM
REM ./C.cell (414f73aa93bd7a1190c7fd0f31ff2f98)
REM
REM compiler GCC version 9.2.1 20190827 (Red Hat 9.2.1-1)
REM options -cpp -mtune=generic -march=x86-64 -g -O0 -fpre-include=/usr/include/finclude/math-vector-fortran.h
REM seed 1205162865 -1816293868 -1498937677 -1146846992 -601051998 -1006368303 1199942307 -1499280297 243509791 -872454276 274549939 -1833683251 1769140031 -1338667809 -811718898 -152031308 872454013 731374115 -47532486 -1915596398 1756176156 -879104457 64482235 2114613388 -160444291 -2038109710 1626294768 -1479039714 -1294291028 -1430295478 -612192012 -1543342071 -2020704376
REM
CELL 1.54180   50.00000   50.00000   50.00000   90.00000   90.00000   90.00000
LATT -1
SFAC C  
C      1  0.4980880000000  0.4792980000000  0.5342110000000 1.0
C      1  0.5183770000000  0.5124750000000  0.5350490000000 1.0
C      1  0.4795480000000  0.5135120000000  0.5333140000000 1.0
C      1  0.5019130000000  0.4793190000000  0.4657770000000 1.0
C      1  0.4816220000000  0.5124950000000  0.4649590000000 1.0
C      1  0.5204510000000  0.5135340000000  0.4666940000000 1.0
C      1  0.5101650000000  0.5960530000000  0.4657950000000 1.0
C      1  0.3799770000000  0.4427740000000  0.4819230000000 1.0
C      1  0.5577520000000  0.4574850000000  0.4871530000000 1.0
C      1  0.4898290000000  0.5960300000000  0.5342640000000 1.0
C      1  0.6200270000000  0.4427710000000  0.5180420000000 1.0
C      1  0.4422510000000  0.4574730000000  0.5128210000000 1.0
C      1  0.5044800000000  0.5285630000000  0.4256070000000 1.0
C      1  0.4784970000000  0.4892810000000  0.4247370000000 1.0
C      1  0.5255430000000  0.4864270000000  0.4267640000000 1.0
C      1  0.4955180000000  0.5285170000000  0.5744110000000 1.0
C      1  0.5215040000000  0.4892360000000  0.5752560000000 1.0
C      1  0.4744580000000  0.4863800000000  0.5732270000000 1.0
C      1  0.4691300000000  0.4146050000000  0.4815000000000 1.0
C      1  0.5919290000000  0.5113420000000  0.4879790000000 1.0
C      1  0.4370550000000  0.5697850000000  0.4820710000000 1.0
C      1  0.5308760000000  0.4145950000000  0.5184480000000 1.0
C      1  0.4080700000000  0.5113290000000  0.5120280000000 1.0
C      1  0.5629400000000  0.5697790000000  0.5179720000000 1.0
C      1  0.4809720000000  0.5156120000000  0.4352940000000 1.0
C      1  0.5008820000000  0.4758500000000  0.4362380000000 1.0
C      1  0.5253210000000  0.5129780000000  0.4372110000000 1.0
C      1  0.5190270000000  0.5155730000000  0.5647160000000 1.0
C      1  0.4991200000000  0.4758100000000  0.5637470000000 1.0
C      1  0.4746780000000  0.5129380000000  0.5627970000000 1.0
C      1  0.4929570000000  0.4295520000000  0.4861340000000 1.0
C      1  0.5681290000000  0.5268490000000  0.4896280000000 1.0
C      1  0.4397350000000  0.5414400000000  0.4840580000000 1.0
C      1  0.5070480000000  0.4295440000000  0.5138220000000 1.0
C      1  0.4318690000000  0.5268380000000  0.5103880000000 1.0
C      1  0.5602620000000  0.5414350000000  0.5159680000000 1.0
C      1  0.5118670000000  0.5943450000000  0.4921170000000 1.0
C      1  0.3972880000000  0.4541900000000  0.4983030000000 1.0
C      1  0.5749930000000  0.4482200000000  0.5049190000000 1.0
C      1  0.4881270000000  0.5943390000000  0.5079410000000 1.0
C      1  0.6027150000000  0.4541960000000  0.5016690000000 1.0
C      1  0.4250100000000  0.4482180000000  0.4950490000000 1.0
C      1  0.3892360000000  0.4775330000000  0.5122650000000 1.0
C      1  0.5680310000000  0.4247080000000  0.5193130000000 1.0
C      1  0.5374370000000  0.5953440000000  0.5043540000000 1.0
C      1  0.6107660000000  0.4775480000000  0.4877210000000 1.0
C      1  0.4319740000000  0.4247150000000  0.4806410000000 1.0
C      1  0.4625570000000  0.5953440000000  0.4957050000000 1.0
C      1  0.4515610000000  0.4214620000000  0.4613370000000 1.0
C      1  0.5958060000000  0.4915500000000  0.4690930000000 1.0
C      1  0.4561770000000  0.5860990000000  0.4703520000000 1.0
C      1  0.5484440000000  0.4214420000000  0.5386150000000 1.0
C      1  0.4041950000000  0.4915240000000  0.5309010000000 1.0
C      1  0.5438170000000  0.5860840000000  0.5297010000000 1.0
C      1  0.4679290000000  0.5284710000000  0.4855790000000 1.0
C      1  0.4926620000000  0.4605590000000  0.4864580000000 1.0
C      1  0.5400870000000  0.5138120000000  0.4886280000000 1.0
C      1  0.5320690000000  0.5284640000000  0.5144380000000 1.0
C      1  0.5073400000000  0.4605510000000  0.5135180000000 1.0
C      1  0.4599120000000  0.5138020000000  0.5113800000000 1.0
END
