TITL C-38187-2739-515 -2.1370669603282e-06 125000 -355.976023984202 0 0 60 (C3) n - 1
REM
REM in /home/bkarasulu/CARBON/AIRSS/Generating-Clusters/EDIP-Nigel-Params/Higher-Symm/Box-15A/Only-C60/SD-CG/FIRE-HFTN
REM
REM
REM
REM
REM
REM ./C.cell (414f73aa93bd7a1190c7fd0f31ff2f98)
REM
REM compiler GCC version 9.2.1 20190827 (Red Hat 9.2.1-1)
REM options -cpp -mtune=generic -march=x86-64 -g -O0 -fpre-include=/usr/include/finclude/math-vector-fortran.h
REM seed -2103978309 1502446052 1791516282 169281108 1111028635 764825917 798714036 -707093577 -419298728 -622989211 1468228872 -1686130755 2058462292 2115778373 -2078507077 623810020 857748803 365174466 1513665274 -2142941839 -571399162 2116422669 205006463 -2043594632 781857998 794425682 -752667530 1497012444 1949135599 -1195984117 -399727878 561305853 -359063848
REM
CELL 1.54180   50.00000   50.00000   50.00000   90.00000   90.00000   90.00000
LATT -1
SFAC C  
C      1  0.5546970000000  0.4477780000000  0.4570110000000 1.0
C      1  0.4354220000000  0.4477790000000  0.4741250000000 1.0
C      1  0.5098810000000  0.4477780000000  0.5688640000000 1.0
C      1  0.4540480000000  0.4526610000000  0.5150310000000 1.0
C      1  0.5359930000000  0.4526610000000  0.5322800000000 1.0
C      1  0.5099590000000  0.4526610000000  0.4526890000000 1.0
C      1  0.4849650000000  0.5476940000000  0.4314150000000 1.0
C      1  0.4481210000000  0.5476940000000  0.5473130000000 1.0
C      1  0.5669140000000  0.5476940000000  0.5212720000000 1.0
C      1  0.5400760000000  0.4782290000000  0.5187650000000 1.0
C      1  0.4962130000000  0.4782290000000  0.4559100000000 1.0
C      1  0.4637110000000  0.4782290000000  0.5253240000000 1.0
C      1  0.5651630000000  0.4910030000000  0.4847530000000 1.0
C      1  0.4542140000000  0.4910030000000  0.4511910000000 1.0
C      1  0.4806230000000  0.4910030000000  0.5640560000000 1.0
C      1  0.4678600000000  0.5334070000000  0.4738830000000 1.0
C      1  0.4934520000000  0.5334070000000  0.5408920000000 1.0
C      1  0.5386870000000  0.5334070000000  0.4852240000000 1.0
C      1  0.4744060000000  0.4996290000000  0.4317220000000 1.0
C      1  0.4536670000000  0.4996290000000  0.5563040000000 1.0
C      1  0.5719280000000  0.4996290000000  0.5119730000000 1.0
C      1  0.4971150000000  0.5212370000000  0.4675890000000 1.0
C      1  0.4733740000000  0.5212370000000  0.5187040000000 1.0
C      1  0.5295120000000  0.5212370000000  0.5137070000000 1.0
C      1  0.5397460000000  0.4753000000000  0.4891280000000 1.0
C      1  0.4707110000000  0.4753000000000  0.4710150000000 1.0
C      1  0.4895420000000  0.4753000000000  0.5398570000000 1.0
C      1  0.5102470000000  0.4393410000000  0.5202260000000 1.0
C      1  0.5123920000000  0.4393410000000  0.4810130000000 1.0
C      1  0.4773600000000  0.4393410000000  0.4987620000000 1.0
C      1  0.5313250000000  0.4647880000000  0.5601260000000 1.0
C      1  0.5364080000000  0.4647880000000  0.4428090000000 1.0
C      1  0.4322670000000  0.4647880000000  0.4970650000000 1.0
C      1  0.5105090000000  0.4931480000000  0.4785930000000 1.0
C      1  0.4762060000000  0.4931480000000  0.5016020000000 1.0
C      1  0.5132850000000  0.4931480000000  0.5198050000000 1.0
C      1  0.4747510000000  0.5583900000000  0.4559940000000 1.0
C      1  0.4745140000000  0.5583900000000  0.5438690000000 1.0
C      1  0.5507350000000  0.5583900000000  0.5001370000000 1.0
C      1  0.4942130000000  0.4461530000000  0.5451480000000 1.0
C      1  0.5419930000000  0.4461530000000  0.4824370000000 1.0
C      1  0.4637940000000  0.4461530000000  0.4724150000000 1.0
C      1  0.4447900000000  0.5113200000000  0.4702420000000 1.0
C      1  0.5018340000000  0.5113200000000  0.5626930000000 1.0
C      1  0.5533760000000  0.5113200000000  0.4670650000000 1.0
C      1  0.5208130000000  0.5124570000000  0.4281100000000 1.0
C      1  0.4273350000000  0.5124570000000  0.5179200000000 1.0
C      1  0.5518520000000  0.5124570000000  0.5539700000000 1.0
C      1  0.5568850000000  0.5203180000000  0.5265360000000 1.0
C      1  0.4945380000000  0.5203180000000  0.4374680000000 1.0
C      1  0.4485770000000  0.5203180000000  0.5359960000000 1.0
C      1  0.5289730000000  0.4967990000000  0.5607350000000 1.0
C      1  0.5381110000000  0.4967990000000  0.4445420000000 1.0
C      1  0.4329160000000  0.4967990000000  0.4947240000000 1.0
C      1  0.5149700000000  0.5434340000000  0.4718050000000 1.0
C      1  0.4680970000000  0.5434340000000  0.5011330000000 1.0
C      1  0.5169330000000  0.5434340000000  0.5270620000000 1.0
C      1  0.4973210000000  0.5669150000000  0.4776790000000 1.0
C      1  0.4820090000000  0.5669150000000  0.5134810000000 1.0
C      1  0.5206710000000  0.5669150000000  0.5088400000000 1.0
END
