TITL C-38189-4514-606 8.36974178871778e-07 125000 -359.494974159311 0 0 60 (C1) n - 1
REM
REM in /home/bkarasulu/CARBON/AIRSS/Generating-Clusters/EDIP-Nigel-Params/Higher-Symm/Box-15A/Only-C60/SD-CG/FIRE-HFTN
REM
REM
REM
REM
REM
REM ./C.cell (414f73aa93bd7a1190c7fd0f31ff2f98)
REM
REM compiler GCC version 9.2.1 20190827 (Red Hat 9.2.1-1)
REM options -cpp -mtune=generic -march=x86-64 -g -O0 -fpre-include=/usr/include/finclude/math-vector-fortran.h
REM seed -1298335357 -1978970443 -1041757885 -1886227091 590620718 51050759 524103508 -13739048 2064959826 -136377095 -1216773452 -863500597 1475230162 747230171 -1597781632 -975303824 -687572665 1161702237 1495526771 1088321880 -1371301099 -130769208 1104382599 1304507678 429325558 1629513817 1737513058 -1105325165 1660949845 945914722 1777278008 1385614099 -1933815134
REM
CELL 1.54180   50.00000   50.00000   50.00000   90.00000   90.00000   90.00000
LATT -1
SFAC C  
C      1  0.5179780000000  0.5250120000000  0.4966730000000 1.0
C      1  0.4899450000000  0.5206740000000  0.4775620000000 1.0
C      1  0.4902080000000  0.5254360000000  0.5155180000000 1.0
C      1  0.4873430000000  0.4516760000000  0.5597760000000 1.0
C      1  0.5575820000000  0.4520960000000  0.4814270000000 1.0
C      1  0.4542170000000  0.4495570000000  0.4594170000000 1.0
C      1  0.4806490000000  0.5466970000000  0.4352990000000 1.0
C      1  0.4527280000000  0.5447180000000  0.5496500000000 1.0
C      1  0.5623720000000  0.5426360000000  0.5172570000000 1.0
C      1  0.4885560000000  0.5716240000000  0.5280310000000 1.0
C      1  0.5282480000000  0.5681550000000  0.4971110000000 1.0
C      1  0.4812330000000  0.5743540000000  0.4762340000000 1.0
C      1  0.4921420000000  0.4447150000000  0.4654410000000 1.0
C      1  0.4748680000000  0.4469400000000  0.5234770000000 1.0
C      1  0.5332370000000  0.4462810000000  0.5109830000000 1.0
C      1  0.4430460000000  0.5323870000000  0.5259960000000 1.0
C      1  0.5492210000000  0.5301240000000  0.5386470000000 1.0
C      1  0.5043970000000  0.5317190000000  0.4375270000000 1.0
C      1  0.5109010000000  0.5670820000000  0.4732550000000 1.0
C      1  0.4693380000000  0.5721110000000  0.5052260000000 1.0
C      1  0.5148830000000  0.5611860000000  0.5220110000000 1.0
C      1  0.5239190000000  0.4844310000000  0.4476040000000 1.0
C      1  0.4464900000000  0.4853400000000  0.5040700000000 1.0
C      1  0.5302990000000  0.4841660000000  0.5449660000000 1.0
C      1  0.4361080000000  0.4894590000000  0.4784480000000 1.0
C      1  0.5151410000000  0.4892710000000  0.5678610000000 1.0
C      1  0.5508820000000  0.4897770000000  0.4527000000000 1.0
C      1  0.4959240000000  0.4703690000000  0.5207440000000 1.0
C      1  0.5190760000000  0.4697890000000  0.4949770000000 1.0
C      1  0.4859430000000  0.4679070000000  0.4849340000000 1.0
C      1  0.5358620000000  0.4390670000000  0.4674750000000 1.0
C      1  0.4534110000000  0.4380300000000  0.4859050000000 1.0
C      1  0.5105910000000  0.4385340000000  0.5481200000000 1.0
C      1  0.5171600000000  0.4565760000000  0.4522690000000 1.0
C      1  0.4504550000000  0.4571780000000  0.5090290000000 1.0
C      1  0.5332950000000  0.4562350000000  0.5396430000000 1.0
C      1  0.4458370000000  0.4768170000000  0.4549730000000 1.0
C      1  0.4887670000000  0.4790100000000  0.5693750000000 1.0
C      1  0.5648950000000  0.4794060000000  0.4751460000000 1.0
C      1  0.5613720000000  0.4964140000000  0.4982890000000 1.0
C      1  0.4675350000000  0.4915810000000  0.4429150000000 1.0
C      1  0.4706060000000  0.4964550000000  0.5549800000000 1.0
C      1  0.5525170000000  0.5010900000000  0.5357770000000 1.0
C      1  0.5038470000000  0.5019240000000  0.4336010000000 1.0
C      1  0.4431640000000  0.5026960000000  0.5282820000000 1.0
C      1  0.5022080000000  0.5384320000000  0.5613530000000 1.0
C      1  0.5449020000000  0.5344000000000  0.4708370000000 1.0
C      1  0.4616210000000  0.5342710000000  0.4767690000000 1.0
C      1  0.5118000000000  0.4233250000000  0.5195220000000 1.0
C      1  0.5111390000000  0.4232260000000  0.4807390000000 1.0
C      1  0.4779610000000  0.4234640000000  0.5009750000000 1.0
C      1  0.5524270000000  0.5520210000000  0.4926450000000 1.0
C      1  0.4653950000000  0.5563610000000  0.4573160000000 1.0
C      1  0.4801540000000  0.5525930000000  0.5491950000000 1.0
C      1  0.5320190000000  0.4973860000000  0.5028800000000 1.0
C      1  0.4854440000000  0.4929120000000  0.4667790000000 1.0
C      1  0.4818340000000  0.4975560000000  0.5274010000000 1.0
C      1  0.5210690000000  0.5441340000000  0.4578310000000 1.0
C      1  0.4635850000000  0.5420900000000  0.5059240000000 1.0
C      1  0.5222510000000  0.5411230000000  0.5412340000000 1.0
END
