TITL C-38192-7909-255 2.29526922042229e-05 125000 -361.589657370074 0 0 60 (C1) n - 1
REM
REM in /home/bkarasulu/CARBON/AIRSS/Generating-Clusters/EDIP-Nigel-Params/Higher-Symm/Box-15A/Only-C60/SD-CG/FIRE-HFTN
REM
REM
REM
REM
REM
REM ./C.cell (414f73aa93bd7a1190c7fd0f31ff2f98)
REM
REM compiler GCC version 9.2.1 20190827 (Red Hat 9.2.1-1)
REM options -cpp -mtune=generic -march=x86-64 -g -O0 -fpre-include=/usr/include/finclude/math-vector-fortran.h
REM seed 1638682225 1697118093 -1754273829 222490824 980547151 1091144197 -1226450773 -378447508 1141111798 -1675619355 523655529 1520840642 -1211487193 -1963234659 1879253191 -59638849 -1443845707 -673383585 -596344407 987891752 836488697 484491291 1086626587 739378276 1701945195 2020390792 -258531311 142786568 379252873 1555274188 652433460 1912298387 1149332969
REM
CELL 1.54180   50.00000   50.00000   50.00000   90.00000   90.00000   90.00000
LATT -1
SFAC C  
C      1  0.5115790000000  0.4503650000000  0.4445020000000 1.0
C      1  0.5507090000000  0.4966880000000  0.4452280000000 1.0
C      1  0.5168870000000  0.5478350000000  0.4411170000000 1.0
C      1  0.4600320000000  0.5311330000000  0.4391330000000 1.0
C      1  0.4574610000000  0.4714210000000  0.4434140000000 1.0
C      1  0.5159870000000  0.4522970000000  0.5626310000000 1.0
C      1  0.5508070000000  0.4989230000000  0.5634700000000 1.0
C      1  0.5170740000000  0.5471800000000  0.5600750000000 1.0
C      1  0.4592980000000  0.5298180000000  0.5599770000000 1.0
C      1  0.4595260000000  0.4673190000000  0.5672640000000 1.0
C      1  0.4801180000000  0.5152560000000  0.5276000000000 1.0
C      1  0.4765350000000  0.4839370000000  0.5238410000000 1.0
C      1  0.5066060000000  0.4728630000000  0.5253050000000 1.0
C      1  0.5271960000000  0.4967530000000  0.5270750000000 1.0
C      1  0.5102020000000  0.5224110000000  0.5280130000000 1.0
C      1  0.4792150000000  0.5195610000000  0.4764940000000 1.0
C      1  0.4768750000000  0.4889760000000  0.4747420000000 1.0
C      1  0.5045130000000  0.4756430000000  0.4757100000000 1.0
C      1  0.5247390000000  0.4985410000000  0.4768170000000 1.0
C      1  0.5096910000000  0.5258850000000  0.4776310000000 1.0
C      1  0.4790260000000  0.4856450000000  0.4310100000000 1.0
C      1  0.5065560000000  0.4752880000000  0.4318280000000 1.0
C      1  0.5250890000000  0.4983340000000  0.4329010000000 1.0
C      1  0.5087410000000  0.5224900000000  0.4332950000000 1.0
C      1  0.4810480000000  0.5147080000000  0.4321030000000 1.0
C      1  0.4803390000000  0.4851180000000  0.5733060000000 1.0
C      1  0.5078720000000  0.4762590000000  0.5737320000000 1.0
C      1  0.5244250000000  0.4995240000000  0.5714320000000 1.0
C      1  0.5078800000000  0.5232120000000  0.5718520000000 1.0
C      1  0.4799710000000  0.5143660000000  0.5715860000000 1.0
C      1  0.5233750000000  0.4410940000000  0.5387630000000 1.0
C      1  0.5632330000000  0.5027650000000  0.5394780000000 1.0
C      1  0.5161040000000  0.5629500000000  0.5368650000000 1.0
C      1  0.4444250000000  0.5345380000000  0.5365510000000 1.0
C      1  0.4613980000000  0.4633830000000  0.5396690000000 1.0
C      1  0.5233630000000  0.4389130000000  0.4673360000000 1.0
C      1  0.5651690000000  0.5049220000000  0.4680900000000 1.0
C      1  0.5157250000000  0.5620530000000  0.4646150000000 1.0
C      1  0.4481990000000  0.5372440000000  0.4630190000000 1.0
C      1  0.4488040000000  0.4583470000000  0.4671140000000 1.0
C      1  0.4334140000000  0.5128630000000  0.5234590000000 1.0
C      1  0.4694590000000  0.4390060000000  0.5281010000000 1.0
C      1  0.5442770000000  0.4500550000000  0.5231990000000 1.0
C      1  0.5608120000000  0.5258990000000  0.5248850000000 1.0
C      1  0.4914280000000  0.5678500000000  0.5257500000000 1.0
C      1  0.4348730000000  0.5185290000000  0.4782230000000 1.0
C      1  0.4648870000000  0.4408160000000  0.4812520000000 1.0
C      1  0.5458640000000  0.4507930000000  0.4778190000000 1.0
C      1  0.5593570000000  0.5294230000000  0.4794810000000 1.0
C      1  0.4934600000000  0.5667080000000  0.4802540000000 1.0
C      1  0.5079060000000  0.4545500000000  0.4993930000000 1.0
C      1  0.5190690000000  0.5412370000000  0.5046400000000 1.0
C      1  0.5451420000000  0.4938610000000  0.5002400000000 1.0
C      1  0.4589150000000  0.4805580000000  0.4974460000000 1.0
C      1  0.4670180000000  0.5319410000000  0.5038290000000 1.0
C      1  0.4821170000000  0.4386350000000  0.5028170000000 1.0
C      1  0.4787560000000  0.5597970000000  0.5027960000000 1.0
C      1  0.5519630000000  0.4644700000000  0.5008410000000 1.0
C      1  0.5490810000000  0.5386940000000  0.5033520000000 1.0
C      1  0.4364080000000  0.5003550000000  0.4990650000000 1.0
END
