TITL C-38191-7580-17 -9.3171551622139e-06 125000 -359.814001636415 0 0 60 (C1) n - 1
REM
REM in /home/bkarasulu/CARBON/AIRSS/Generating-Clusters/EDIP-Nigel-Params/Higher-Symm/Box-15A/Only-C60/SD-CG/FIRE-HFTN
REM
REM
REM
REM
REM
REM ./C.cell (414f73aa93bd7a1190c7fd0f31ff2f98)
REM
REM compiler GCC version 9.2.1 20190827 (Red Hat 9.2.1-1)
REM options -cpp -mtune=generic -march=x86-64 -g -O0 -fpre-include=/usr/include/finclude/math-vector-fortran.h
REM seed -932737486 1173153737 -1464321869 -1852826248 1794730200 -420401706 -378373031 1653811598 -1236590060 1243228078 725664911 -1382753798 -1166380076 -1014484670 -863675916 -1746331880 2091443975 1036898862 -803393710 -144959875 -698612097 -1188312815 1115454116 -1714167488 1716129836 2138812861 -1587787788 1459633758 1228313307 1788327865 -1110454213 -534073345 -352227828
REM
CELL 1.54180   50.00000   50.00000   50.00000   90.00000   90.00000   90.00000
LATT -1
SFAC C  
C      1  0.4990420000000  0.5339270000000  0.4509790000000 1.0
C      1  0.4598480000000  0.4311590000000  0.5014160000000 1.0
C      1  0.5737620000000  0.5007970000000  0.4626550000000 1.0
C      1  0.4107630000000  0.4751310000000  0.5228570000000 1.0
C      1  0.5144810000000  0.5727790000000  0.5143310000000 1.0
C      1  0.4329960000000  0.4298870000000  0.5091080000000 1.0
C      1  0.4569430000000  0.5223570000000  0.5633890000000 1.0
C      1  0.4597500000000  0.4717340000000  0.5261940000000 1.0
C      1  0.4864150000000  0.4988930000000  0.4814710000000 1.0
C      1  0.4740530000000  0.5875050000000  0.4979370000000 1.0
C      1  0.4390620000000  0.5046430000000  0.5536020000000 1.0
C      1  0.3987860000000  0.4885240000000  0.4823370000000 1.0
C      1  0.4447020000000  0.5647400000000  0.5354480000000 1.0
C      1  0.5955550000000  0.5393490000000  0.5113930000000 1.0
C      1  0.4794330000000  0.4197260000000  0.5171970000000 1.0
C      1  0.4829690000000  0.5137680000000  0.4356940000000 1.0
C      1  0.5541480000000  0.4844110000000  0.5319540000000 1.0
C      1  0.5270900000000  0.4405550000000  0.5238800000000 1.0
C      1  0.5268740000000  0.5211170000000  0.4933000000000 1.0
C      1  0.5494500000000  0.4504910000000  0.4810700000000 1.0
C      1  0.4747990000000  0.5765420000000  0.4734520000000 1.0
C      1  0.5406330000000  0.4327930000000  0.5007880000000 1.0
C      1  0.5731210000000  0.5011910000000  0.5129470000000 1.0
C      1  0.4822000000000  0.4771790000000  0.5413500000000 1.0
C      1  0.4811250000000  0.5143150000000  0.5053970000000 1.0
C      1  0.5491590000000  0.5386700000000  0.4574630000000 1.0
C      1  0.4871280000000  0.4662470000000  0.4408280000000 1.0
C      1  0.4640860000000  0.4604790000000  0.4985220000000 1.0
C      1  0.4457620000000  0.4726330000000  0.4768010000000 1.0
C      1  0.6026030000000  0.5362960000000  0.5387690000000 1.0
C      1  0.5302600000000  0.4654070000000  0.4641060000000 1.0
C      1  0.4706340000000  0.5593820000000  0.5366830000000 1.0
C      1  0.3935140000000  0.4929910000000  0.5088950000000 1.0
C      1  0.5087830000000  0.4838010000000  0.5442720000000 1.0
C      1  0.5022180000000  0.4560310000000  0.4657610000000 1.0
C      1  0.5070130000000  0.5223460000000  0.5141970000000 1.0
C      1  0.4907110000000  0.4698650000000  0.4890560000000 1.0
C      1  0.5464940000000  0.5114340000000  0.5395420000000 1.0
C      1  0.5750750000000  0.4603140000000  0.4842800000000 1.0
C      1  0.4846370000000  0.5558000000000  0.4599730000000 1.0
C      1  0.5991300000000  0.5110260000000  0.5257670000000 1.0
C      1  0.5165320000000  0.5126510000000  0.5406130000000 1.0
C      1  0.4873640000000  0.5762540000000  0.5196260000000 1.0
C      1  0.4577160000000  0.4737650000000  0.4474810000000 1.0
C      1  0.5111070000000  0.5122200000000  0.4700600000000 1.0
C      1  0.4779000000000  0.5396540000000  0.5569180000000 1.0
C      1  0.5268930000000  0.4937100000000  0.4511530000000 1.0
C      1  0.5523300000000  0.5116150000000  0.4489000000000 1.0
C      1  0.5449560000000  0.5433680000000  0.4861670000000 1.0
C      1  0.5027470000000  0.4277750000000  0.5276250000000 1.0
C      1  0.5041840000000  0.5301410000000  0.5600420000000 1.0
C      1  0.5697910000000  0.5420280000000  0.5005660000000 1.0
C      1  0.5023500000000  0.4909430000000  0.4306910000000 1.0
C      1  0.4135250000000  0.4503100000000  0.5047580000000 1.0
C      1  0.4162920000000  0.4664390000000  0.4797140000000 1.0
C      1  0.4362940000000  0.4867760000000  0.5322840000000 1.0
C      1  0.5314930000000  0.5676460000000  0.4938940000000 1.0
C      1  0.5792290000000  0.4874840000000  0.4863220000000 1.0
C      1  0.4649800000000  0.5018820000000  0.4583500000000 1.0
C      1  0.5291080000000  0.4691000000000  0.5297770000000 1.0
END
