TITL C-38184-643-660 0.0830105463654601 125000 -357.997039106185 0 0 60 (C1) n - 1
REM
REM in /home/bkarasulu/CARBON/AIRSS/Generating-Clusters/EDIP-Nigel-Params/Higher-Symm/Box-15A/Only-C60/SD-CG/FIRE-HFTN
REM
REM
REM
REM
REM
REM ./C.cell (414f73aa93bd7a1190c7fd0f31ff2f98)
REM
REM compiler GCC version 9.2.1 20190827 (Red Hat 9.2.1-1)
REM options -cpp -mtune=generic -march=x86-64 -g -O0 -fpre-include=/usr/include/finclude/math-vector-fortran.h
REM seed 2098593821 1345588608 -618477606 -656516104 -1628732890 -190249648 -1158363858 1320389208 -2013131241 -1998353061 2023599381 -434213957 2055427511 1258577212 209923656 1992814737 -1956161691 1595582414 1700594849 909230302 -1648722527 979380416 1252997877 1761012885 1690269277 874447656 -1311607545 766875560 -1972960821 1899802942 1530626487 -34747785 -430063239
REM
CELL 1.54180   50.00000   50.00000   50.00000   90.00000   90.00000   90.00000
LATT -1
SFAC C  
C      1  0.5463380000000  0.4320140000000  0.4431940000000 1.0
C      1  0.5389010000000  0.4502330000000  0.4881380000000 1.0
C      1  0.4319780000000  0.5554550000000  0.4275570000000 1.0
C      1  0.4546660000000  0.5075940000000  0.5806960000000 1.0
C      1  0.4854410000000  0.4320360000000  0.5306690000000 1.0
C      1  0.4463870000000  0.5368380000000  0.4122900000000 1.0
C      1  0.5294130000000  0.5858980000000  0.4689900000000 1.0
C      1  0.4631940000000  0.5183190000000  0.3984290000000 1.0
C      1  0.5298870000000  0.5329140000000  0.4725820000000 1.0
C      1  0.5358320000000  0.5757120000000  0.4939100000000 1.0
C      1  0.4603970000000  0.4747500000000  0.5434380000000 1.0
C      1  0.5096090000000  0.5856310000000  0.4511220000000 1.0
C      1  0.4270300000000  0.5011410000000  0.5194360000000 1.0
C      1  0.5454900000000  0.5073790000000  0.5651170000000 1.0
C      1  0.5162010000000  0.4653570000000  0.4956830000000 1.0
C      1  0.4841340000000  0.4617470000000  0.5309080000000 1.0
C      1  0.4915770000000  0.4733430000000  0.5045370000000 1.0
C      1  0.4712500000000  0.4960710000000  0.5602770000000 1.0
C      1  0.5630370000000  0.4785200000000  0.5262580000000 1.0
C      1  0.4622220000000  0.5159690000000  0.4887180000000 1.0
C      1  0.4369400000000  0.5199170000000  0.5016610000000 1.0
C      1  0.4864740000000  0.5726010000000  0.4437060000000 1.0
C      1  0.5719660000000  0.4665960000000  0.4545400000000 1.0
C      1  0.4618340000000  0.5856090000000  0.4450600000000 1.0
C      1  0.5565200000000  0.5315670000000  0.5574620000000 1.0
C      1  0.5376650000000  0.5460420000000  0.4967480000000 1.0
C      1  0.4744090000000  0.5299420000000  0.4219240000000 1.0
C      1  0.5188510000000  0.5059590000000  0.5728580000000 1.0
C      1  0.4859290000000  0.4195220000000  0.5044600000000 1.0
C      1  0.5332080000000  0.4068060000000  0.4843410000000 1.0
C      1  0.5712090000000  0.4857270000000  0.5008640000000 1.0
C      1  0.5269290000000  0.4101100000000  0.5278860000000 1.0
C      1  0.5606800000000  0.4689920000000  0.4797950000000 1.0
C      1  0.4226330000000  0.5418000000000  0.4905010000000 1.0
C      1  0.5744920000000  0.5130700000000  0.4970190000000 1.0
C      1  0.4661290000000  0.5372280000000  0.4701020000000 1.0
C      1  0.5659060000000  0.4487650000000  0.4352910000000 1.0
C      1  0.5550950000000  0.4858850000000  0.5506610000000 1.0
C      1  0.4347940000000  0.5273080000000  0.5760930000000 1.0
C      1  0.4362970000000  0.4759560000000  0.5269330000000 1.0
C      1  0.4426130000000  0.5535360000000  0.4733970000000 1.0
C      1  0.4850280000000  0.5429000000000  0.4474420000000 1.0
C      1  0.5107910000000  0.5325820000000  0.4539200000000 1.0
C      1  0.4986200000000  0.4879120000000  0.5668010000000 1.0
C      1  0.5642220000000  0.5368500000000  0.5072170000000 1.0
C      1  0.5065780000000  0.4662840000000  0.5495630000000 1.0
C      1  0.4323700000000  0.4541020000000  0.5101790000000 1.0
C      1  0.5168210000000  0.5431370000000  0.5175840000000 1.0
C      1  0.5090030000000  0.4008330000000  0.5037680000000 1.0
C      1  0.4807710000000  0.4968640000000  0.4952990000000 1.0
C      1  0.5670400000000  0.5406580000000  0.5345150000000 1.0
C      1  0.5306490000000  0.4303980000000  0.4660490000000 1.0
C      1  0.4608780000000  0.4146290000000  0.4933150000000 1.0
C      1  0.4408060000000  0.4318590000000  0.4979950000000 1.0
C      1  0.5113830000000  0.5635510000000  0.5353490000000 1.0
C      1  0.5113420000000  0.4289240000000  0.5438130000000 1.0
C      1  0.4569480000000  0.5343820000000  0.5897410000000 1.0
C      1  0.4381190000000  0.5711530000000  0.4499640000000 1.0
C      1  0.5474730000000  0.4215450000000  0.5088180000000 1.0
C      1  0.5176020000000  0.5815760000000  0.5154190000000 1.0
END
