TITL C-38198-1686-61 3.8800493057202e-06 125000 -373.233312748353 0 0 60 (C1) n - 1
REM
REM in /home/bkarasulu/CARBON/AIRSS/Generating-Clusters/EDIP-Nigel-Params/Higher-Symm/Box-15A/Only-C60/SD-CG/FIRE-HFTN
REM
REM
REM
REM
REM
REM ./C.cell (414f73aa93bd7a1190c7fd0f31ff2f98)
REM
REM compiler GCC version 9.2.1 20190827 (Red Hat 9.2.1-1)
REM options -cpp -mtune=generic -march=x86-64 -g -O0 -fpre-include=/usr/include/finclude/math-vector-fortran.h
REM seed 1624115556 -1614154008 -1636000165 1508061840 1763669490 1065130579 1697184743 347022889 593875434 -1445883320 -581545525 -2085535834 1128228460 -1184872967 -237789037 1203392896 1824138061 -633754003 1973320729 -2133695544 -884468371 811684374 40262412 945532854 217068777 232570329 1744278399 -1395736973 -1939821014 -133504525 1560783511 -603526165 1174327649
REM
CELL 1.54180   50.00000   50.00000   50.00000   90.00000   90.00000   90.00000
LATT -1
SFAC C  
C      1  0.5656170000000  0.4723130000000  0.4769460000000 1.0
C      1  0.4898030000000  0.5744790000000  0.4787220000000 1.0
C      1  0.4777570000000  0.4861910000000  0.5669010000000 1.0
C      1  0.4190150000000  0.5256110000000  0.4804010000000 1.0
C      1  0.4250230000000  0.4882950000000  0.5168750000000 1.0
C      1  0.5685410000000  0.5167290000000  0.5104750000000 1.0
C      1  0.5207820000000  0.4221290000000  0.4803640000000 1.0
C      1  0.5064250000000  0.5735060000000  0.5303300000000 1.0
C      1  0.4918820000000  0.4298710000000  0.5260100000000 1.0
C      1  0.5205260000000  0.5145510000000  0.5665410000000 1.0
C      1  0.5265900000000  0.4855200000000  0.4273050000000 1.0
C      1  0.4778000000000  0.5141860000000  0.4403780000000 1.0
C      1  0.5751760000000  0.4678770000000  0.5039760000000 1.0
C      1  0.4792840000000  0.5676760000000  0.5213100000000 1.0
C      1  0.4797680000000  0.4848560000000  0.4431770000000 1.0
C      1  0.4182220000000  0.5314010000000  0.5089730000000 1.0
C      1  0.4241650000000  0.4823230000000  0.4885510000000 1.0
C      1  0.5622910000000  0.5187890000000  0.4820630000000 1.0
C      1  0.5210380000000  0.4297420000000  0.5241390000000 1.0
C      1  0.5174110000000  0.5744980000000  0.4872300000000 1.0
C      1  0.4919600000000  0.4250460000000  0.4798090000000 1.0
C      1  0.5265720000000  0.5144500000000  0.4272180000000 1.0
C      1  0.5220770000000  0.4854910000000  0.5686050000000 1.0
C      1  0.4762850000000  0.5153260000000  0.5694270000000 1.0
C      1  0.5364660000000  0.4686420000000  0.5522760000000 1.0
C      1  0.5513840000000  0.5392110000000  0.4648590000000 1.0
C      1  0.4582340000000  0.5525960000000  0.5342360000000 1.0
C      1  0.4624040000000  0.5325740000000  0.5528360000000 1.0
C      1  0.4658800000000  0.4646830000000  0.4586390000000 1.0
C      1  0.5462880000000  0.5301770000000  0.4390510000000 1.0
C      1  0.4447720000000  0.4694270000000  0.4756320000000 1.0
C      1  0.4345490000000  0.5509320000000  0.5200490000000 1.0
C      1  0.5647360000000  0.4482510000000  0.5205390000000 1.0
C      1  0.5410870000000  0.4476430000000  0.5349990000000 1.0
C      1  0.5375890000000  0.5613110000000  0.4738150000000 1.0
C      1  0.4784500000000  0.4400820000000  0.4607930000000 1.0
C      1  0.5483230000000  0.4692830000000  0.4334970000000 1.0
C      1  0.5535500000000  0.5280610000000  0.5307120000000 1.0
C      1  0.4803160000000  0.5584610000000  0.4581670000000 1.0
C      1  0.4657600000000  0.5349120000000  0.4566880000000 1.0
C      1  0.4639630000000  0.4684770000000  0.5489100000000 1.0
C      1  0.5338210000000  0.5334450000000  0.5493070000000 1.0
C      1  0.4414690000000  0.4751450000000  0.5345950000000 1.0
C      1  0.4393790000000  0.5357320000000  0.4647140000000 1.0
C      1  0.5548560000000  0.4550290000000  0.4564720000000 1.0
C      1  0.5385320000000  0.4335320000000  0.4624840000000 1.0
C      1  0.5204150000000  0.5575370000000  0.5479960000000 1.0
C      1  0.4768320000000  0.4445650000000  0.5439800000000 1.0
C      1  0.4089320000000  0.5003050000000  0.4732290000000 1.0
C      1  0.4789920000000  0.4185000000000  0.5038570000000 1.0
C      1  0.5009280000000  0.4747710000000  0.4279950000000 1.0
C      1  0.5731810000000  0.4974910000000  0.4676540000000 1.0
C      1  0.5809580000000  0.4923200000000  0.5163500000000 1.0
C      1  0.4094760000000  0.5101590000000  0.5253790000000 1.0
C      1  0.5226140000000  0.5868920000000  0.5117720000000 1.0
C      1  0.5311560000000  0.4123940000000  0.5043970000000 1.0
C      1  0.4714760000000  0.5822410000000  0.4985270000000 1.0
C      1  0.5004780000000  0.5241040000000  0.4273100000000 1.0
C      1  0.4993900000000  0.4744090000000  0.5808860000000 1.0
C      1  0.4993540000000  0.5258460000000  0.5816700000000 1.0
END
