TITL C-38186-4112-252 2.07414370759899e-06 125000 -344.983346393693 0 0 60 (C1) n - 1
REM
REM in /home/bkarasulu/CARBON/AIRSS/Generating-Clusters/EDIP-Nigel-Params/Higher-Symm/Box-15A/Only-C60/SD-CG/FIRE-HFTN
REM
REM
REM
REM
REM
REM ./C.cell (414f73aa93bd7a1190c7fd0f31ff2f98)
REM
REM compiler GCC version 9.2.1 20190827 (Red Hat 9.2.1-1)
REM options -cpp -mtune=generic -march=x86-64 -g -O0 -fpre-include=/usr/include/finclude/math-vector-fortran.h
REM seed -474951557 -124032313 -281132154 1296014936 -762094549 677525787 169992765 -336965523 1673575044 -1991462523 -1689568774 1600271844 1284383168 416629394 1308994845 -1360263740 -635212248 -2012255008 -1774006311 -460893934 347505599 -1767831455 -158725667 45430675 1079433165 1915445725 -892380588 756606522 746406736 1193865464 -1543201830 704111188 -1375855274
REM
CELL 1.54180   50.00000   50.00000   50.00000   90.00000   90.00000   90.00000
LATT -1
SFAC C  
C      1  0.5815260000000  0.4717260000000  0.5116320000000 1.0
C      1  0.5086400000000  0.5818420000000  0.4712820000000 1.0
C      1  0.4703970000000  0.5092710000000  0.5836370000000 1.0
C      1  0.4166620000000  0.5306040000000  0.5096930000000 1.0
C      1  0.4175470000000  0.4717580000000  0.4917430000000 1.0
C      1  0.5846690000000  0.5287530000000  0.4900690000000 1.0
C      1  0.4899570000000  0.4170740000000  0.4695310000000 1.0
C      1  0.4899410000000  0.5829220000000  0.5300510000000 1.0
C      1  0.5105770000000  0.4185560000000  0.5271960000000 1.0
C      1  0.5277870000000  0.4900520000000  0.5809800000000 1.0
C      1  0.5287330000000  0.5105400000000  0.4190140000000 1.0
C      1  0.4710540000000  0.4904700000000  0.4157560000000 1.0
C      1  0.4715370000000  0.5809280000000  0.5102290000000 1.0
C      1  0.5827350000000  0.5084320000000  0.4722190000000 1.0
C      1  0.5097360000000  0.4699480000000  0.5832810000000 1.0
C      1  0.5300100000000  0.4165130000000  0.5083830000000 1.0
C      1  0.4719720000000  0.4189600000000  0.4897300000000 1.0
C      1  0.5285250000000  0.5843690000000  0.4895500000000 1.0
C      1  0.4153370000000  0.4895970000000  0.4714450000000 1.0
C      1  0.5830260000000  0.4905520000000  0.5310860000000 1.0
C      1  0.4184310000000  0.5111500000000  0.5284950000000 1.0
C      1  0.4899410000000  0.5278820000000  0.5809700000000 1.0
C      1  0.5104070000000  0.5304630000000  0.4174390000000 1.0
C      1  0.4908200000000  0.4719900000000  0.4176420000000 1.0
C      1  0.5277380000000  0.4399420000000  0.4924130000000 1.0
C      1  0.4937370000000  0.5274290000000  0.4402760000000 1.0
C      1  0.4403350000000  0.4933540000000  0.5293350000000 1.0
C      1  0.4710610000000  0.5588490000000  0.4926260000000 1.0
C      1  0.4719710000000  0.4410250000000  0.5073610000000 1.0
C      1  0.5271630000000  0.5610600000000  0.5057330000000 1.0
C      1  0.5074490000000  0.4718530000000  0.4405110000000 1.0
C      1  0.5074100000000  0.5285800000000  0.5588140000000 1.0
C      1  0.4931440000000  0.4718120000000  0.5602620000000 1.0
C      1  0.5601480000000  0.5070690000000  0.5276380000000 1.0
C      1  0.5600210000000  0.4916080000000  0.4724000000000 1.0
C      1  0.4386230000000  0.5058000000000  0.4728000000000 1.0
C      1  0.4395190000000  0.5274190000000  0.4930940000000 1.0
C      1  0.5285880000000  0.4927940000000  0.4410060000000 1.0
C      1  0.4930600000000  0.4406650000000  0.5283030000000 1.0
C      1  0.5598420000000  0.4707800000000  0.4935740000000 1.0
C      1  0.4403090000000  0.4721860000000  0.5084940000000 1.0
C      1  0.5611910000000  0.5273290000000  0.5059900000000 1.0
C      1  0.4729260000000  0.5062260000000  0.4393170000000 1.0
C      1  0.5283880000000  0.5075540000000  0.5588450000000 1.0
C      1  0.4721740000000  0.4928810000000  0.5604540000000 1.0
C      1  0.5067620000000  0.5601740000000  0.5273010000000 1.0
C      1  0.4920720000000  0.5589390000000  0.4715810000000 1.0
C      1  0.5063920000000  0.4401950000000  0.4716930000000 1.0
C      1  0.5336850000000  0.4943520000000  0.5327640000000 1.0
C      1  0.5062050000000  0.4666210000000  0.5340690000000 1.0
C      1  0.5063150000000  0.5330550000000  0.4668180000000 1.0
C      1  0.4665990000000  0.5061830000000  0.5343860000000 1.0
C      1  0.4647790000000  0.4931600000000  0.4651840000000 1.0
C      1  0.5339540000000  0.5054980000000  0.4674590000000 1.0
C      1  0.4659930000000  0.5327220000000  0.5057380000000 1.0
C      1  0.5334280000000  0.4658210000000  0.5060770000000 1.0
C      1  0.4942000000000  0.5337660000000  0.5327540000000 1.0
C      1  0.5351920000000  0.5350110000000  0.4930220000000 1.0
C      1  0.4932990000000  0.4665160000000  0.4663160000000 1.0
C      1  0.4663630000000  0.4674210000000  0.4945400000000 1.0
END
