TITL C-38197-8510-566 -9.02345824321712e-06 125000 -360.546590451309 0 0 60 (C1) n - 1
REM
REM in /home/bkarasulu/CARBON/AIRSS/Generating-Clusters/EDIP-Nigel-Params/Higher-Symm/Box-15A/Only-C60/SD-CG/FIRE-HFTN
REM
REM
REM
REM
REM
REM ./C.cell (414f73aa93bd7a1190c7fd0f31ff2f98)
REM
REM compiler GCC version 9.2.1 20190827 (Red Hat 9.2.1-1)
REM options -cpp -mtune=generic -march=x86-64 -g -O0 -fpre-include=/usr/include/finclude/math-vector-fortran.h
REM seed -1286417638 -1687731685 1528844079 -848402591 1121892706 -1003468698 -2068800760 927970044 1129791049 -258984223 -1199166449 565608675 1017399377 -1291117263 -998695423 -479307725 -656913413 -441960503 1132426163 -652301578 43521142 -1960831733 539007837 -1019390774 1906118936 641706612 -1003600561 -702848351 -553865492 2046856852 685059762 41898166 645636306
REM
CELL 1.54180   50.00000   50.00000   50.00000   90.00000   90.00000   90.00000
LATT -1
SFAC C  
C      1  0.5123920000000  0.4484800000000  0.5366320000000 1.0
C      1  0.4978750000000  0.5339740000000  0.4515350000000 1.0
C      1  0.5143760000000  0.4250030000000  0.4927030000000 1.0
C      1  0.5451760000000  0.5322630000000  0.4663280000000 1.0
C      1  0.4813050000000  0.4863470000000  0.5041500000000 1.0
C      1  0.4779440000000  0.4965700000000  0.4246430000000 1.0
C      1  0.4741990000000  0.5209360000000  0.4383750000000 1.0
C      1  0.4547790000000  0.4444470000000  0.4949550000000 1.0
C      1  0.5306350000000  0.4748170000000  0.4963180000000 1.0
C      1  0.5594090000000  0.4670840000000  0.4556600000000 1.0
C      1  0.4626500000000  0.5724550000000  0.5016020000000 1.0
C      1  0.4908610000000  0.5541640000000  0.5468040000000 1.0
C      1  0.5289710000000  0.4940940000000  0.4376980000000 1.0
C      1  0.5643360000000  0.5132020000000  0.4779200000000 1.0
C      1  0.5037630000000  0.4854380000000  0.5710370000000 1.0
C      1  0.5331330000000  0.4995310000000  0.5128420000000 1.0
C      1  0.4347930000000  0.4968510000000  0.4631270000000 1.0
C      1  0.4394040000000  0.5349710000000  0.5049890000000 1.0
C      1  0.5185580000000  0.5705260000000  0.4777160000000 1.0
C      1  0.4279200000000  0.4896690000000  0.4916150000000 1.0
C      1  0.5452750000000  0.5499230000000  0.5406940000000 1.0
C      1  0.4941110000000  0.5274440000000  0.5122550000000 1.0
C      1  0.4241530000000  0.5113990000000  0.5128960000000 1.0
C      1  0.4816830000000  0.5119280000000  0.4910930000000 1.0
C      1  0.4958040000000  0.5604890000000  0.4647090000000 1.0
C      1  0.5213460000000  0.5155790000000  0.5547660000000 1.0
C      1  0.5572020000000  0.4409860000000  0.4700800000000 1.0
C      1  0.5367560000000  0.5513140000000  0.4863200000000 1.0
C      1  0.5511710000000  0.5220060000000  0.5512470000000 1.0
C      1  0.4737580000000  0.4344670000000  0.5124730000000 1.0
C      1  0.5537140000000  0.5493240000000  0.5107650000000 1.0
C      1  0.5404600000000  0.4482630000000  0.5375250000000 1.0
C      1  0.5451090000000  0.4713830000000  0.4317820000000 1.0
C      1  0.5007030000000  0.4302820000000  0.5169770000000 1.0
C      1  0.4414690000000  0.4676610000000  0.5062700000000 1.0
C      1  0.4424430000000  0.4710010000000  0.5354720000000 1.0
C      1  0.4877930000000  0.4786680000000  0.4421560000000 1.0
C      1  0.4786790000000  0.5261470000000  0.5535670000000 1.0
C      1  0.5310940000000  0.4306140000000  0.4718440000000 1.0
C      1  0.4661660000000  0.4480480000000  0.4697650000000 1.0
C      1  0.4662970000000  0.4629090000000  0.5488340000000 1.0
C      1  0.4647800000000  0.5092860000000  0.5303730000000 1.0
C      1  0.5701580000000  0.5237200000000  0.5067300000000 1.0
C      1  0.4940670000000  0.4637360000000  0.5542240000000 1.0
C      1  0.4901720000000  0.4595150000000  0.4620820000000 1.0
C      1  0.4363950000000  0.5631040000000  0.5067950000000 1.0
C      1  0.4364430000000  0.4998660000000  0.5379700000000 1.0
C      1  0.5109370000000  0.5087070000000  0.5280160000000 1.0
C      1  0.4717640000000  0.5704400000000  0.4750750000000 1.0
C      1  0.5242500000000  0.5202600000000  0.4501040000000 1.0
C      1  0.5587700000000  0.5050640000000  0.5272700000000 1.0
C      1  0.4479100000000  0.5221530000000  0.4529570000000 1.0
C      1  0.5482250000000  0.4550930000000  0.5111550000000 1.0
C      1  0.4827320000000  0.5636140000000  0.5204250000000 1.0
C      1  0.4549900000000  0.5222260000000  0.4832770000000 1.0
C      1  0.4979150000000  0.4640390000000  0.4917390000000 1.0
C      1  0.4895740000000  0.5100910000000  0.5760550000000 1.0
C      1  0.5683860000000  0.4420520000000  0.4961660000000 1.0
C      1  0.5458360000000  0.4882720000000  0.4717850000000 1.0
C      1  0.5190320000000  0.5581030000000  0.5496640000000 1.0
END
