TITL C-38192-7909-397 3.4845342660817e-06 125000 -380.111614523503 0 0 60 (C6) n - 1
REM
REM in /home/bkarasulu/CARBON/AIRSS/Generating-Clusters/EDIP-Nigel-Params/Higher-Symm/Box-15A/Only-C60/SD-CG/FIRE-HFTN
REM
REM
REM
REM
REM
REM ./C.cell (414f73aa93bd7a1190c7fd0f31ff2f98)
REM
REM compiler GCC version 9.2.1 20190827 (Red Hat 9.2.1-1)
REM options -cpp -mtune=generic -march=x86-64 -g -O0 -fpre-include=/usr/include/finclude/math-vector-fortran.h
REM seed 471680526 633553928 -970383540 -2138820338 2033755608 1496763475 -929510463 1526366628 -1769249080 1780163421 -1363585347 22073448 883305572 212121757 -470857357 -419382406 892786272 1576283438 1724138220 302584829 1550412547 -941583891 1636308582 -1675395289 1003208439 825187519 1015303892 1127690255 909148808 -798392740 -263433922 1261853218 1046109772
REM
CELL 1.54180   50.00000   50.00000   50.00000   90.00000   90.00000   90.00000
LATT -1
SFAC C  
C      1  0.4770700000000  0.5022200000000  0.4290750000000 1.0
C      1  0.5499580000000  0.5022200000000  0.4446790000000 1.0
C      1  0.5728880000000  0.5022200000000  0.5156050000000 1.0
C      1  0.5229300000000  0.5022200000000  0.5709250000000 1.0
C      1  0.4500420000000  0.5022200000000  0.5553210000000 1.0
C      1  0.4271120000000  0.5022200000000  0.4843950000000 1.0
C      1  0.4305760000000  0.5316070000000  0.5175700000000 1.0
C      1  0.4500720000000  0.5316070000000  0.4486620000000 1.0
C      1  0.5194960000000  0.5316070000000  0.4310930000000 1.0
C      1  0.5694240000000  0.5316070000000  0.4824300000000 1.0
C      1  0.5499280000000  0.5316070000000  0.5513380000000 1.0
C      1  0.4805040000000  0.5316070000000  0.5689070000000 1.0
C      1  0.5513560000000  0.5545780000000  0.4856220000000 1.0
C      1  0.5381300000000  0.5545780000000  0.5372870000000 1.0
C      1  0.4867740000000  0.5545780000000  0.5516650000000 1.0
C      1  0.4486440000000  0.5545780000000  0.5143780000000 1.0
C      1  0.4618700000000  0.5545780000000  0.4627130000000 1.0
C      1  0.5132260000000  0.5545780000000  0.4483350000000 1.0
C      1  0.4507200000000  0.4612520000000  0.5053280000000 1.0
C      1  0.4707460000000  0.4612520000000  0.4599860000000 1.0
C      1  0.5200260000000  0.4612520000000  0.4546580000000 1.0
C      1  0.5492800000000  0.4612520000000  0.4946720000000 1.0
C      1  0.5292540000000  0.4612520000000  0.5400140000000 1.0
C      1  0.4799740000000  0.4612520000000  0.5453420000000 1.0
C      1  0.4157900000000  0.5265240000000  0.4937900000000 1.0
C      1  0.4632740000000  0.5265240000000  0.4239670000000 1.0
C      1  0.5474830000000  0.5265240000000  0.4301780000000 1.0
C      1  0.5842100000000  0.5265240000000  0.5062100000000 1.0
C      1  0.5367260000000  0.5265240000000  0.5760330000000 1.0
C      1  0.4525170000000  0.5265240000000  0.5698220000000 1.0
C      1  0.4657520000000  0.5624410000000  0.5350700000000 1.0
C      1  0.4525040000000  0.5624410000000  0.4878750000000 1.0
C      1  0.4867520000000  0.5624410000000  0.4528050000000 1.0
C      1  0.5342480000000  0.5624410000000  0.4649300000000 1.0
C      1  0.5474960000000  0.5624410000000  0.5121250000000 1.0
C      1  0.5132480000000  0.5624410000000  0.5471950000000 1.0
C      1  0.4418340000000  0.5063450000000  0.5274790000000 1.0
C      1  0.4471200000000  0.5063450000000  0.4633660000000 1.0
C      1  0.5052860000000  0.5063450000000  0.4358870000000 1.0
C      1  0.5581660000000  0.5063450000000  0.4725210000000 1.0
C      1  0.5528800000000  0.5063450000000  0.5366340000000 1.0
C      1  0.4947140000000  0.5063450000000  0.5641130000000 1.0
C      1  0.4351700000000  0.4859120000000  0.5078980000000 1.0
C      1  0.4607460000000  0.4859120000000  0.4478040000000 1.0
C      1  0.5255760000000  0.4859120000000  0.4399070000000 1.0
C      1  0.5648300000000  0.4859120000000  0.4921020000000 1.0
C      1  0.5392540000000  0.4859120000000  0.5521960000000 1.0
C      1  0.4744240000000  0.4859120000000  0.5600930000000 1.0
C      1  0.4605630000000  0.4465140000000  0.5288760000000 1.0
C      1  0.4552740000000  0.4465140000000  0.4802840000000 1.0
C      1  0.4947110000000  0.4465140000000  0.4514080000000 1.0
C      1  0.5394370000000  0.4465140000000  0.4711240000000 1.0
C      1  0.5447260000000  0.4465140000000  0.5197160000000 1.0
C      1  0.5052890000000  0.4465140000000  0.5485920000000 1.0
C      1  0.5246650000000  0.4226070000000  0.4819440000000 1.0
C      1  0.5279690000000  0.4226070000000  0.5123320000000 1.0
C      1  0.5033040000000  0.4226070000000  0.5303880000000 1.0
C      1  0.4753350000000  0.4226070000000  0.5180560000000 1.0
C      1  0.4720310000000  0.4226070000000  0.4876680000000 1.0
C      1  0.4966960000000  0.4226070000000  0.4696120000000 1.0
END
