TITL C-38198-1686-135 -2.38067298935762e-05 125000 -371.718407150789 0 0 60 (C6h) n - 1
REM
REM in /home/bkarasulu/CARBON/AIRSS/Generating-Clusters/EDIP-Nigel-Params/Higher-Symm/Box-15A/Only-C60/SD-CG/FIRE-HFTN
REM
REM
REM
REM
REM
REM ./C.cell (414f73aa93bd7a1190c7fd0f31ff2f98)
REM
REM compiler GCC version 9.2.1 20190827 (Red Hat 9.2.1-1)
REM options -cpp -mtune=generic -march=x86-64 -g -O0 -fpre-include=/usr/include/finclude/math-vector-fortran.h
REM seed 567828134 -1286752643 1180289357 1899631251 -768840506 -206408614 -1287161289 1676244075 -201412034 372511898 -2085755853 -2101088461 -68680548 -759705966 -1506182882 932050449 1333708658 1092552432 -40627226 -1647873680 -1148451751 986782300 1186558923 1592621620 -1897355425 -493207052 1081070302 -1813666414 -132028901 -928436719 2098692788 -1529413806 -1064500865
REM
CELL 1.54180   50.00000   50.00000   50.00000   90.00000   90.00000   90.00000
LATT -1
SFAC C  
C      1  0.4757850000000  0.4489740000000  0.4543380000000 1.0
C      1  0.4437030000000  0.4954580000000  0.4543380000000 1.0
C      1  0.4679180000000  0.5464840000000  0.4543380000000 1.0
C      1  0.5242150000000  0.5510260000000  0.4543380000000 1.0
C      1  0.5562970000000  0.5045420000000  0.4543380000000 1.0
C      1  0.5320820000000  0.4535160000000  0.4543380000000 1.0
C      1  0.4757850000000  0.4489740000000  0.5456620000000 1.0
C      1  0.4437030000000  0.4954580000000  0.5456620000000 1.0
C      1  0.4679180000000  0.5464840000000  0.5456620000000 1.0
C      1  0.5242150000000  0.5510260000000  0.5456620000000 1.0
C      1  0.5562970000000  0.5045420000000  0.5456620000000 1.0
C      1  0.5320820000000  0.4535160000000  0.5456620000000 1.0
C      1  0.5670870000000  0.5277520000000  0.4678580000000 1.0
C      1  0.5575770000000  0.4557770000000  0.4678580000000 1.0
C      1  0.4904900000000  0.4280250000000  0.4678580000000 1.0
C      1  0.4329130000000  0.4722480000000  0.4678580000000 1.0
C      1  0.4424230000000  0.5442230000000  0.4678580000000 1.0
C      1  0.5095100000000  0.5719750000000  0.4678580000000 1.0
C      1  0.5670870000000  0.5277520000000  0.5321420000000 1.0
C      1  0.5575770000000  0.4557770000000  0.5321420000000 1.0
C      1  0.4904900000000  0.4280250000000  0.5321420000000 1.0
C      1  0.4329130000000  0.4722480000000  0.5321420000000 1.0
C      1  0.4424230000000  0.5442230000000  0.5321420000000 1.0
C      1  0.5095100000000  0.5719750000000  0.5321420000000 1.0
C      1  0.4804080000000  0.5676900000000  0.5304910000000 1.0
C      1  0.5488250000000  0.5508130000000  0.5304910000000 1.0
C      1  0.5684180000000  0.4831220000000  0.5304910000000 1.0
C      1  0.5195920000000  0.4323100000000  0.5304910000000 1.0
C      1  0.4511750000000  0.4491870000000  0.5304910000000 1.0
C      1  0.4315820000000  0.5168780000000  0.5304910000000 1.0
C      1  0.4804080000000  0.5676900000000  0.4695090000000 1.0
C      1  0.5488250000000  0.5508130000000  0.4695090000000 1.0
C      1  0.5684180000000  0.4831220000000  0.4695090000000 1.0
C      1  0.5195920000000  0.4323100000000  0.4695090000000 1.0
C      1  0.4511750000000  0.4491870000000  0.4695090000000 1.0
C      1  0.4315820000000  0.5168780000000  0.4695090000000 1.0
C      1  0.4566490000000  0.5751310000000  0.4858340000000 1.0
C      1  0.5433900000000  0.5751090000000  0.4858340000000 1.0
C      1  0.5867410000000  0.4999780000000  0.4858340000000 1.0
C      1  0.5433510000000  0.4248690000000  0.4858340000000 1.0
C      1  0.4566100000000  0.4248910000000  0.4858340000000 1.0
C      1  0.4132590000000  0.5000220000000  0.4858340000000 1.0
C      1  0.4566490000000  0.5751310000000  0.5141660000000 1.0
C      1  0.5433900000000  0.5751090000000  0.5141660000000 1.0
C      1  0.5867410000000  0.4999780000000  0.5141660000000 1.0
C      1  0.5433510000000  0.4248690000000  0.5141660000000 1.0
C      1  0.4566100000000  0.4248910000000  0.5141660000000 1.0
C      1  0.4132590000000  0.5000220000000  0.5141660000000 1.0
C      1  0.5282810000000  0.5024760000000  0.5510440000000 1.0
C      1  0.5162850000000  0.4767460000000  0.5510440000000 1.0
C      1  0.4880040000000  0.4742700000000  0.5510440000000 1.0
C      1  0.4717190000000  0.4975240000000  0.5510440000000 1.0
C      1  0.4837150000000  0.5232540000000  0.5510440000000 1.0
C      1  0.5119960000000  0.5257300000000  0.5510440000000 1.0
C      1  0.5282810000000  0.5024760000000  0.4489560000000 1.0
C      1  0.5162850000000  0.4767460000000  0.4489560000000 1.0
C      1  0.4880040000000  0.4742700000000  0.4489560000000 1.0
C      1  0.4717190000000  0.4975240000000  0.4489560000000 1.0
C      1  0.4837150000000  0.5232540000000  0.4489560000000 1.0
C      1  0.5119960000000  0.5257300000000  0.4489560000000 1.0
END
