TITL C-38197-8510-486 1.43568932970265e-05 125000 -357.633023271172 0 0 60 (C1) n - 1
REM
REM in /home/bkarasulu/CARBON/AIRSS/Generating-Clusters/EDIP-Nigel-Params/Higher-Symm/Box-15A/Only-C60/SD-CG/FIRE-HFTN
REM
REM
REM
REM
REM
REM ./C.cell (414f73aa93bd7a1190c7fd0f31ff2f98)
REM
REM compiler GCC version 9.2.1 20190827 (Red Hat 9.2.1-1)
REM options -cpp -mtune=generic -march=x86-64 -g -O0 -fpre-include=/usr/include/finclude/math-vector-fortran.h
REM seed 1008491225 -953286446 1167447899 -1459970631 1507753029 861334384 1511653112 -1122041340 -563297770 1408169354 537147952 -1551550985 247592024 296303748 -161337934 -641571800 -26929924 -1473717195 612537617 1455100049 1069323494 1153868163 -1622954481 561359200 -871277527 -1165888071 841127377 1459314767 -364191346 -757083744 -1461645929 -1324868518 1909512672
REM
CELL 1.54180   50.00000   50.00000   50.00000   90.00000   90.00000   90.00000
LATT -1
SFAC C  
C      1  0.5050010000000  0.5165440000000  0.4278920000000 1.0
C      1  0.4728180000000  0.5162460000000  0.5682550000000 1.0
C      1  0.4757320000000  0.5176380000000  0.4366630000000 1.0
C      1  0.5021640000000  0.5645880000000  0.4913990000000 1.0
C      1  0.4610820000000  0.4577180000000  0.5346180000000 1.0
C      1  0.5582420000000  0.5023650000000  0.5358340000000 1.0
C      1  0.4760600000000  0.5533600000000  0.5364110000000 1.0
C      1  0.5135040000000  0.4578440000000  0.4587730000000 1.0
C      1  0.5104020000000  0.4551190000000  0.5444070000000 1.0
C      1  0.5557630000000  0.4670970000000  0.5187090000000 1.0
C      1  0.5731550000000  0.4784380000000  0.4965610000000 1.0
C      1  0.5707000000000  0.5220730000000  0.5174660000000 1.0
C      1  0.4573520000000  0.4476190000000  0.4568030000000 1.0
C      1  0.4846810000000  0.4882890000000  0.5718890000000 1.0
C      1  0.5216620000000  0.4637840000000  0.4309050000000 1.0
C      1  0.4231170000000  0.5219070000000  0.4664480000000 1.0
C      1  0.5136830000000  0.5153940000000  0.5245370000000 1.0
C      1  0.5647780000000  0.5004030000000  0.4543150000000 1.0
C      1  0.4913980000000  0.4356380000000  0.5002040000000 1.0
C      1  0.4972890000000  0.5068980000000  0.4735150000000 1.0
C      1  0.5134780000000  0.4386680000000  0.5199510000000 1.0
C      1  0.5435840000000  0.5134450000000  0.5592890000000 1.0
C      1  0.5347710000000  0.4884810000000  0.5717910000000 1.0
C      1  0.4487190000000  0.5170940000000  0.5501510000000 1.0
C      1  0.4452820000000  0.5356590000000  0.4760840000000 1.0
C      1  0.4842740000000  0.4671350000000  0.5502620000000 1.0
C      1  0.4331950000000  0.4941370000000  0.5487970000000 1.0
C      1  0.5646540000000  0.4765100000000  0.4692540000000 1.0
C      1  0.5582060000000  0.5480580000000  0.5171580000000 1.0
C      1  0.5379700000000  0.4466590000000  0.5063970000000 1.0
C      1  0.5251860000000  0.5213110000000  0.4809270000000 1.0
C      1  0.5214180000000  0.5314540000000  0.5472970000000 1.0
C      1  0.4120140000000  0.4980360000000  0.4733990000000 1.0
C      1  0.4365340000000  0.4689820000000  0.5406350000000 1.0
C      1  0.4466670000000  0.4513990000000  0.4848390000000 1.0
C      1  0.5130310000000  0.4889320000000  0.4192280000000 1.0
C      1  0.4896350000000  0.4906070000000  0.4967360000000 1.0
C      1  0.5333410000000  0.5023040000000  0.5061990000000 1.0
C      1  0.5744570000000  0.5079970000000  0.4916650000000 1.0
C      1  0.4912110000000  0.5575160000000  0.4639630000000 1.0
C      1  0.5097340000000  0.4904730000000  0.5840850000000 1.0
C      1  0.4334210000000  0.4796710000000  0.4741040000000 1.0
C      1  0.4966930000000  0.4826610000000  0.4537430000000 1.0
C      1  0.4627160000000  0.5286410000000  0.5257820000000 1.0
C      1  0.4598010000000  0.4944160000000  0.4341800000000 1.0
C      1  0.5128110000000  0.5499910000000  0.4450860000000 1.0
C      1  0.5341500000000  0.5338850000000  0.4557520000000 1.0
C      1  0.5434550000000  0.5126940000000  0.4402660000000 1.0
C      1  0.4661430000000  0.4489470000000  0.5069460000000 1.0
C      1  0.5254900000000  0.5477480000000  0.4970060000000 1.0
C      1  0.5349820000000  0.5535190000000  0.5331140000000 1.0
C      1  0.4926580000000  0.5399660000000  0.5590630000000 1.0
C      1  0.4720650000000  0.5339170000000  0.4622120000000 1.0
C      1  0.5011610000000  0.4368980000000  0.4734380000000 1.0
C      1  0.4461590000000  0.5355990000000  0.5036430000000 1.0
C      1  0.4869840000000  0.5680040000000  0.5148720000000 1.0
C      1  0.5356770000000  0.4676860000000  0.5516820000000 1.0
C      1  0.4862110000000  0.5103160000000  0.5177920000000 1.0
C      1  0.4460740000000  0.4735780000000  0.4471460000000 1.0
C      1  0.5174010000000  0.4780400000000  0.5004630000000 1.0
END
