TITL C-38184-643-511 3.4719558044088e-05 125000 -358.30169581648 0 0 60 (D6h) n - 1
REM
REM in /home/bkarasulu/CARBON/AIRSS/Generating-Clusters/EDIP-Nigel-Params/Higher-Symm/Box-15A/Only-C60/SD-CG/FIRE-HFTN
REM
REM
REM
REM
REM
REM ./C.cell (414f73aa93bd7a1190c7fd0f31ff2f98)
REM
REM compiler GCC version 9.2.1 20190827 (Red Hat 9.2.1-1)
REM options -cpp -mtune=generic -march=x86-64 -g -O0 -fpre-include=/usr/include/finclude/math-vector-fortran.h
REM seed -762621576 1422460937 -910216363 336973649 -29951450 -100958999 -1567140245 1328808303 -1286810548 1312410334 1001039979 -2109464411 -1306526300 252669476 333267936 684450629 382371098 303030073 1326995572 1534170077 473585878 716682125 -579316036 1045603272 892713246 452992602 229738083 2040932408 -941479507 1581651734 1413643454 -151865134 -171040747
REM
CELL 1.54180   50.00000   50.00000   50.00000   90.00000   90.00000   90.00000
LATT -1
SFAC C  
C      1  0.4365530000000  0.4849920000000  0.4896370000000 1.0
C      1  0.4772510000000  0.4849920000000  0.4398720000000 1.0
C      1  0.5406980000000  0.4849920000000  0.4502340000000 1.0
C      1  0.5634470000000  0.4849920000000  0.5103630000000 1.0
C      1  0.5227490000000  0.4849920000000  0.5601280000000 1.0
C      1  0.4593020000000  0.4849920000000  0.5497660000000 1.0
C      1  0.4365530000000  0.5150080000000  0.4896370000000 1.0
C      1  0.4772510000000  0.5150080000000  0.4398720000000 1.0
C      1  0.5406980000000  0.5150080000000  0.4502340000000 1.0
C      1  0.5634470000000  0.5150080000000  0.5103630000000 1.0
C      1  0.5227490000000  0.5150080000000  0.5601280000000 1.0
C      1  0.4593020000000  0.5150080000000  0.5497660000000 1.0
C      1  0.5512510000000  0.5589390000000  0.4806090000000 1.0
C      1  0.5424180000000  0.5589390000000  0.5346890000000 1.0
C      1  0.4911670000000  0.5589390000000  0.5540800000000 1.0
C      1  0.4487490000000  0.5589390000000  0.5193910000000 1.0
C      1  0.4575820000000  0.5589390000000  0.4653110000000 1.0
C      1  0.5088330000000  0.5589390000000  0.4459200000000 1.0
C      1  0.5512510000000  0.4410610000000  0.4806090000000 1.0
C      1  0.5424180000000  0.4410610000000  0.5346890000000 1.0
C      1  0.4911670000000  0.4410610000000  0.5540800000000 1.0
C      1  0.4487490000000  0.4410610000000  0.5193910000000 1.0
C      1  0.4575820000000  0.4410610000000  0.4653110000000 1.0
C      1  0.5088330000000  0.4410610000000  0.4459200000000 1.0
C      1  0.5485970000000  0.4327580000000  0.5079370000000 1.0
C      1  0.5174250000000  0.4327580000000  0.5460550000000 1.0
C      1  0.4688270000000  0.4327580000000  0.5381180000000 1.0
C      1  0.4514030000000  0.4327580000000  0.4920630000000 1.0
C      1  0.4825750000000  0.4327580000000  0.4539450000000 1.0
C      1  0.5311730000000  0.4327580000000  0.4618820000000 1.0
C      1  0.5485970000000  0.5672420000000  0.5079370000000 1.0
C      1  0.5174250000000  0.5672420000000  0.5460550000000 1.0
C      1  0.4688270000000  0.5672420000000  0.5381180000000 1.0
C      1  0.4514030000000  0.5672420000000  0.4920630000000 1.0
C      1  0.4825750000000  0.5672420000000  0.4539450000000 1.0
C      1  0.5311730000000  0.5672420000000  0.4618820000000 1.0
C      1  0.4956360000000  0.5245250000000  0.5267190000000 1.0
C      1  0.4746780000000  0.5245250000000  0.5095800000000 1.0
C      1  0.4790420000000  0.5245250000000  0.4828610000000 1.0
C      1  0.5043640000000  0.5245250000000  0.4732810000000 1.0
C      1  0.5253220000000  0.5245250000000  0.4904200000000 1.0
C      1  0.5209580000000  0.5245250000000  0.5171390000000 1.0
C      1  0.4956360000000  0.4754750000000  0.5267190000000 1.0
C      1  0.4746780000000  0.4754750000000  0.5095800000000 1.0
C      1  0.4790420000000  0.4754750000000  0.4828610000000 1.0
C      1  0.5043640000000  0.4754750000000  0.4732810000000 1.0
C      1  0.5253220000000  0.4754750000000  0.4904200000000 1.0
C      1  0.5209580000000  0.4754750000000  0.5171390000000 1.0
C      1  0.5434550000000  0.4721740000000  0.5355370000000 1.0
C      1  0.4909520000000  0.4721740000000  0.5554010000000 1.0
C      1  0.4474970000000  0.4721740000000  0.5198640000000 1.0
C      1  0.4565450000000  0.4721740000000  0.4644630000000 1.0
C      1  0.5090480000000  0.4721740000000  0.4445990000000 1.0
C      1  0.5525030000000  0.4721740000000  0.4801360000000 1.0
C      1  0.5434550000000  0.5278260000000  0.5355370000000 1.0
C      1  0.4909520000000  0.5278260000000  0.5554010000000 1.0
C      1  0.4474970000000  0.5278260000000  0.5198640000000 1.0
C      1  0.4565450000000  0.5278260000000  0.4644630000000 1.0
C      1  0.5090480000000  0.5278260000000  0.4445990000000 1.0
C      1  0.5525030000000  0.5278260000000  0.4801360000000 1.0
END
