TITL C-38197-8510-443 1.70935095653888e-06 125000 -345.136490557303 0 0 60 (S4) n - 1
REM
REM in /home/bkarasulu/CARBON/AIRSS/Generating-Clusters/EDIP-Nigel-Params/Higher-Symm/Box-15A/Only-C60/SD-CG/FIRE-HFTN
REM
REM
REM
REM
REM
REM ./C.cell (414f73aa93bd7a1190c7fd0f31ff2f98)
REM
REM compiler GCC version 9.2.1 20190827 (Red Hat 9.2.1-1)
REM options -cpp -mtune=generic -march=x86-64 -g -O0 -fpre-include=/usr/include/finclude/math-vector-fortran.h
REM seed 328444288 260382908 1377154810 -2055200229 1187242714 1053654050 -1098248373 -1879042162 -1172250163 169555436 1725416606 -2040819279 1828321804 -1681596427 -1485740873 1182656875 578370239 -197869475 -1404979757 -2093086925 -495490279 811975706 -1529636006 1676124014 1321520231 1383084818 -1052356868 -121149711 -748477974 -923071447 1498764793 1316581734 1820601557
REM
CELL 1.54180   50.00000   50.00000   50.00000   90.00000   90.00000   90.00000
LATT -1
SFAC C  
C      1  0.5475930000000  0.4558920000000  0.5035070000000 1.0
C      1  0.4558920000000  0.4524070000000  0.4964930000000 1.0
C      1  0.4524070000000  0.5441080000000  0.5035070000000 1.0
C      1  0.5441080000000  0.5475930000000  0.4964930000000 1.0
C      1  0.4475780000000  0.4883290000000  0.4268320000000 1.0
C      1  0.4883290000000  0.5524220000000  0.5731680000000 1.0
C      1  0.5524220000000  0.5116710000000  0.4268320000000 1.0
C      1  0.5116710000000  0.4475780000000  0.5731680000000 1.0
C      1  0.5411320000000  0.4901080000000  0.5621440000000 1.0
C      1  0.4901080000000  0.4588680000000  0.4378560000000 1.0
C      1  0.4588680000000  0.5098920000000  0.5621440000000 1.0
C      1  0.5098920000000  0.5411320000000  0.4378560000000 1.0
C      1  0.5015190000000  0.4357120000000  0.4908510000000 1.0
C      1  0.4357120000000  0.4984810000000  0.5091490000000 1.0
C      1  0.4984810000000  0.5642880000000  0.4908510000000 1.0
C      1  0.5642880000000  0.5015190000000  0.5091490000000 1.0
C      1  0.5657530000000  0.4522300000000  0.5251570000000 1.0
C      1  0.4522300000000  0.4342470000000  0.4748430000000 1.0
C      1  0.4342470000000  0.5477700000000  0.5251570000000 1.0
C      1  0.5477700000000  0.5657530000000  0.4748430000000 1.0
C      1  0.4979250000000  0.4173240000000  0.5360860000000 1.0
C      1  0.4173240000000  0.5020750000000  0.4639140000000 1.0
C      1  0.5020750000000  0.5826760000000  0.5360860000000 1.0
C      1  0.5826760000000  0.4979250000000  0.4639140000000 1.0
C      1  0.5020660000000  0.4644680000000  0.4874370000000 1.0
C      1  0.4644680000000  0.4979340000000  0.5125630000000 1.0
C      1  0.4979340000000  0.5355320000000  0.4874370000000 1.0
C      1  0.5355320000000  0.5020660000000  0.5125630000000 1.0
C      1  0.4696660000000  0.4723760000000  0.4258820000000 1.0
C      1  0.4723760000000  0.5303340000000  0.5741180000000 1.0
C      1  0.5303340000000  0.5276240000000  0.4258820000000 1.0
C      1  0.5276240000000  0.4696660000000  0.5741180000000 1.0
C      1  0.5837410000000  0.4998410000000  0.4906080000000 1.0
C      1  0.4998410000000  0.4162590000000  0.5093920000000 1.0
C      1  0.4162590000000  0.5001590000000  0.4906080000000 1.0
C      1  0.5001590000000  0.5837410000000  0.5093920000000 1.0
C      1  0.4411830000000  0.5033830000000  0.4499320000000 1.0
C      1  0.5033830000000  0.5588170000000  0.5500680000000 1.0
C      1  0.5588170000000  0.4966170000000  0.4499320000000 1.0
C      1  0.4966170000000  0.4411830000000  0.5500680000000 1.0
C      1  0.5255810000000  0.5253210000000  0.4954020000000 1.0
C      1  0.5253210000000  0.4744190000000  0.5045980000000 1.0
C      1  0.4744190000000  0.4746790000000  0.4954020000000 1.0
C      1  0.4746790000000  0.5255810000000  0.5045980000000 1.0
C      1  0.5261280000000  0.5505050000000  0.5646760000000 1.0
C      1  0.5505050000000  0.4738720000000  0.4353240000000 1.0
C      1  0.4738720000000  0.4494950000000  0.5646760000000 1.0
C      1  0.4494950000000  0.5261280000000  0.4353240000000 1.0
C      1  0.5066580000000  0.4700240000000  0.4582110000000 1.0
C      1  0.4700240000000  0.4933420000000  0.5417890000000 1.0
C      1  0.4933420000000  0.5299760000000  0.4582110000000 1.0
C      1  0.5299760000000  0.5066580000000  0.5417890000000 1.0
C      1  0.4715380000000  0.5413020000000  0.4437730000000 1.0
C      1  0.5413020000000  0.5284620000000  0.5562270000000 1.0
C      1  0.5284620000000  0.4586980000000  0.4437730000000 1.0
C      1  0.4586980000000  0.4715380000000  0.5562270000000 1.0
C      1  0.5686830000000  0.5503230000000  0.4823090000000 1.0
C      1  0.5503230000000  0.4313170000000  0.5176910000000 1.0
C      1  0.4313170000000  0.4496770000000  0.4823090000000 1.0
C      1  0.4496770000000  0.5686830000000  0.5176910000000 1.0
END
