TITL C-38185-7677-436 0.00271511448281577 125000 -357.163133271924 0 0 60 (C1) n - 1
REM
REM in /home/bkarasulu/CARBON/AIRSS/Generating-Clusters/EDIP-Nigel-Params/Higher-Symm/Box-15A/Only-C60/SD-CG/FIRE-HFTN
REM
REM
REM
REM
REM
REM ./C.cell (414f73aa93bd7a1190c7fd0f31ff2f98)
REM
REM compiler GCC version 9.2.1 20190827 (Red Hat 9.2.1-1)
REM options -cpp -mtune=generic -march=x86-64 -g -O0 -fpre-include=/usr/include/finclude/math-vector-fortran.h
REM seed -655988369 -2060366609 -137270587 1915531082 -965482636 889551874 1325500899 546275073 -1110833569 -1685841992 417976975 1822944882 -177490362 -1610389646 -744790239 -1219758480 -324563512 1827828377 1262616514 1865953624 821439066 12975191 -1754811458 1300499703 -406093734 -725376970 -165475231 664314581 1532550382 -1338496832 -1826935303 -420741130 432500879
REM
CELL 1.54180   50.00000   50.00000   50.00000   90.00000   90.00000   90.00000
LATT -1
SFAC C  
C      1  0.5717780000000  0.5332160000000  0.4820120000000 1.0
C      1  0.4649470000000  0.4561890000000  0.4828360000000 1.0
C      1  0.5551540000000  0.4747140000000  0.4556650000000 1.0
C      1  0.4308150000000  0.4835350000000  0.4834030000000 1.0
C      1  0.4297490000000  0.4590980000000  0.4991650000000 1.0
C      1  0.5047570000000  0.5281720000000  0.4303420000000 1.0
C      1  0.5675170000000  0.5147460000000  0.5028770000000 1.0
C      1  0.4462590000000  0.4876090000000  0.4584900000000 1.0
C      1  0.5918010000000  0.5104270000000  0.5195050000000 1.0
C      1  0.4526780000000  0.5122480000000  0.5369380000000 1.0
C      1  0.5403500000000  0.5535360000000  0.5394340000000 1.0
C      1  0.5101330000000  0.4328780000000  0.4997420000000 1.0
C      1  0.4546490000000  0.5346590000000  0.5554260000000 1.0
C      1  0.4788190000000  0.5533890000000  0.5544630000000 1.0
C      1  0.4955010000000  0.5372760000000  0.4569460000000 1.0
C      1  0.5794750000000  0.5258690000000  0.5392970000000 1.0
C      1  0.5198730000000  0.4404020000000  0.4739830000000 1.0
C      1  0.5376210000000  0.5081080000000  0.5576200000000 1.0
C      1  0.4712450000000  0.4432050000000  0.4561380000000 1.0
C      1  0.5041800000000  0.5697830000000  0.4915870000000 1.0
C      1  0.5016180000000  0.5002600000000  0.4794980000000 1.0
C      1  0.4567730000000  0.4730700000000  0.5653840000000 1.0
C      1  0.4951130000000  0.5289200000000  0.5795540000000 1.0
C      1  0.4666570000000  0.5277330000000  0.5812560000000 1.0
C      1  0.4778190000000  0.5128990000000  0.4314300000000 1.0
C      1  0.4994450000000  0.4388030000000  0.4541680000000 1.0
C      1  0.4936360000000  0.5504230000000  0.5297020000000 1.0
C      1  0.4907460000000  0.4663420000000  0.4941300000000 1.0
C      1  0.5737840000000  0.4855550000000  0.4952740000000 1.0
C      1  0.4488690000000  0.5364310000000  0.4686010000000 1.0
C      1  0.5132230000000  0.4455060000000  0.5251920000000 1.0
C      1  0.4650030000000  0.4350800000000  0.5262130000000 1.0
C      1  0.5111790000000  0.5604620000000  0.4657150000000 1.0
C      1  0.4830100000000  0.4653880000000  0.5596540000000 1.0
C      1  0.4510510000000  0.5148300000000  0.5069420000000 1.0
C      1  0.5185030000000  0.5644030000000  0.5267540000000 1.0
C      1  0.5386290000000  0.4628700000000  0.4766760000000 1.0
C      1  0.5095240000000  0.5084450000000  0.5655300000000 1.0
C      1  0.5512440000000  0.4669530000000  0.5025530000000 1.0
C      1  0.4873500000000  0.4463500000000  0.5388150000000 1.0
C      1  0.5273600000000  0.5115770000000  0.4286990000000 1.0
C      1  0.4723800000000  0.5314750000000  0.4882590000000 1.0
C      1  0.4818020000000  0.5553970000000  0.5037320000000 1.0
C      1  0.5612900000000  0.5510190000000  0.4653420000000 1.0
C      1  0.5055800000000  0.4799990000000  0.5693320000000 1.0
C      1  0.5428940000000  0.4907200000000  0.4362740000000 1.0
C      1  0.5399100000000  0.4791130000000  0.5520110000000 1.0
C      1  0.5040850000000  0.4826830000000  0.4571850000000 1.0
C      1  0.5378630000000  0.5617510000000  0.4587660000000 1.0
C      1  0.4163540000000  0.5063450000000  0.4925270000000 1.0
C      1  0.5340150000000  0.4663440000000  0.5264850000000 1.0
C      1  0.5514520000000  0.5282520000000  0.5417640000000 1.0
C      1  0.4860710000000  0.4840390000000  0.4345960000000 1.0
C      1  0.4425420000000  0.4894760000000  0.5494000000000 1.0
C      1  0.4511390000000  0.5148800000000  0.4479080000000 1.0
C      1  0.4502730000000  0.4383950000000  0.5026590000000 1.0
C      1  0.5789490000000  0.4845570000000  0.4668260000000 1.0
C      1  0.4618090000000  0.4679420000000  0.4412290000000 1.0
C      1  0.4892080000000  0.4939690000000  0.5035860000000 1.0
C      1  0.4245450000000  0.5322830000000  0.4845100000000 1.0
END
