TITL C-38197-8510-64 1.01465845165257e-05 125000 -360.307738015483 0 0 60 (Ci) n - 1
REM
REM in /home/bkarasulu/CARBON/AIRSS/Generating-Clusters/EDIP-Nigel-Params/Higher-Symm/Box-15A/Only-C60/SD-CG/FIRE-HFTN
REM
REM
REM
REM
REM
REM ./C.cell (414f73aa93bd7a1190c7fd0f31ff2f98)
REM
REM compiler GCC version 9.2.1 20190827 (Red Hat 9.2.1-1)
REM options -cpp -mtune=generic -march=x86-64 -g -O0 -fpre-include=/usr/include/finclude/math-vector-fortran.h
REM seed -1347545658 -1392517155 495674942 -1392527111 -764629763 1080539562 -2089914210 -1096718774 1612474839 -93000302 19052311 -428056355 -1960577273 1654386947 -158955735 1076991284 -1933708269 -943029784 170033515 -1546615668 -2107240921 1361484209 -1864178506 -567172377 992751806 -690477282 191672868 -1882780998 452604591 -432739768 1659688537 -309546067 -1014150646
REM
CELL 1.54180   50.00000   50.00000   50.00000   90.00000   90.00000   90.00000
LATT -1
SFAC C  
C      1  0.5130230000000  0.5261310000000  0.5550790000000 1.0
C      1  0.4869770000000  0.4738690000000  0.4449210000000 1.0
C      1  0.5584040000000  0.5257760000000  0.5472390000000 1.0
C      1  0.4415960000000  0.4742240000000  0.4527610000000 1.0
C      1  0.5319830000000  0.5643220000000  0.5045680000000 1.0
C      1  0.4680170000000  0.4356780000000  0.4954320000000 1.0
C      1  0.4628440000000  0.4874190000000  0.4369720000000 1.0
C      1  0.5371560000000  0.5125810000000  0.5630280000000 1.0
C      1  0.5539610000000  0.4988330000000  0.5057740000000 1.0
C      1  0.4460390000000  0.5011670000000  0.4942260000000 1.0
C      1  0.4307020000000  0.4909190000000  0.4727630000000 1.0
C      1  0.5692980000000  0.5090810000000  0.5272370000000 1.0
C      1  0.4827280000000  0.5429810000000  0.5137530000000 1.0
C      1  0.5172720000000  0.4570190000000  0.4862470000000 1.0
C      1  0.4559950000000  0.4771830000000  0.5605620000000 1.0
C      1  0.5440050000000  0.5228170000000  0.4394380000000 1.0
C      1  0.4697850000000  0.5303530000000  0.5382940000000 1.0
C      1  0.5302150000000  0.4696470000000  0.4617060000000 1.0
C      1  0.4965000000000  0.4709120000000  0.5314680000000 1.0
C      1  0.5035000000000  0.5290880000000  0.4685320000000 1.0
C      1  0.5378190000000  0.4597110000000  0.5518690000000 1.0
C      1  0.4621810000000  0.5402890000000  0.4481310000000 1.0
C      1  0.5070360000000  0.5580060000000  0.4637240000000 1.0
C      1  0.4929640000000  0.4419940000000  0.5362760000000 1.0
C      1  0.5450520000000  0.4460940000000  0.5289270000000 1.0
C      1  0.4549480000000  0.5539060000000  0.4710730000000 1.0
C      1  0.4524720000000  0.4487490000000  0.4626950000000 1.0
C      1  0.5475280000000  0.5512510000000  0.5373050000000 1.0
C      1  0.4973840000000  0.5213460000000  0.4973970000000 1.0
C      1  0.5026160000000  0.4786540000000  0.5026030000000 1.0
C      1  0.5019300000000  0.5664130000000  0.4371440000000 1.0
C      1  0.4980700000000  0.4335870000000  0.5628560000000 1.0
C      1  0.5246070000000  0.4998010000000  0.5138680000000 1.0
C      1  0.4753930000000  0.5001990000000  0.4861320000000 1.0
C      1  0.4406240000000  0.5252650000000  0.5361000000000 1.0
C      1  0.5593760000000  0.4747350000000  0.4639000000000 1.0
C      1  0.5623950000000  0.4721460000000  0.4935460000000 1.0
C      1  0.4376050000000  0.5278540000000  0.5064540000000 1.0
C      1  0.4274050000000  0.4776600000000  0.5269250000000 1.0
C      1  0.5725950000000  0.5223400000000  0.4730750000000 1.0
C      1  0.4804010000000  0.4473370000000  0.4548570000000 1.0
C      1  0.5195990000000  0.5526630000000  0.5451430000000 1.0
C      1  0.5226090000000  0.4436860000000  0.5691640000000 1.0
C      1  0.4773910000000  0.5563140000000  0.4308360000000 1.0
C      1  0.5234530000000  0.5059860000000  0.4308870000000 1.0
C      1  0.4765470000000  0.4940140000000  0.5691130000000 1.0
C      1  0.5707560000000  0.5002350000000  0.4538410000000 1.0
C      1  0.4292440000000  0.4997650000000  0.5461590000000 1.0
C      1  0.5340410000000  0.5602560000000  0.4756640000000 1.0
C      1  0.4659590000000  0.4397440000000  0.5243360000000 1.0
C      1  0.5217870000000  0.4842060000000  0.5442040000000 1.0
C      1  0.4782130000000  0.5157940000000  0.4557960000000 1.0
C      1  0.5145130000000  0.4814680000000  0.4409350000000 1.0
C      1  0.4854870000000  0.5185320000000  0.5590650000000 1.0
C      1  0.4565860000000  0.5499220000000  0.4984970000000 1.0
C      1  0.5434140000000  0.4500780000000  0.5015030000000 1.0
C      1  0.5472950000000  0.5348490000000  0.4664770000000 1.0
C      1  0.4527050000000  0.4651510000000  0.5335230000000 1.0
C      1  0.4938030000000  0.4373930000000  0.4794500000000 1.0
C      1  0.5061970000000  0.5626070000000  0.5205500000000 1.0
END
