TITL C-38196-2854-194 -0.001376100253547 125000 -351.25553265049 0 0 60 (C1) n - 1
REM
REM in /home/bkarasulu/CARBON/AIRSS/Generating-Clusters/EDIP-Nigel-Params/Higher-Symm/Box-15A/Only-C60/SD-CG/FIRE-HFTN
REM
REM
REM
REM
REM
REM ./C.cell (414f73aa93bd7a1190c7fd0f31ff2f98)
REM
REM compiler GCC version 9.2.1 20190827 (Red Hat 9.2.1-1)
REM options -cpp -mtune=generic -march=x86-64 -g -O0 -fpre-include=/usr/include/finclude/math-vector-fortran.h
REM seed -1078022319 733094466 -148305774 -676322192 65089685 688100790 1002941878 1557254336 1380338301 -497897136 -2050426079 853525855 -1464825372 1937045722 -1123309497 -2022312838 265786517 -1665533998 519224123 -1397246663 241767909 1467660287 -939744051 1237979635 1151135463 1153511471 557002241 937649128 -75683265 -1939386972 497267795 985186065 1304377783
REM
CELL 1.54180   50.00000   50.00000   50.00000   90.00000   90.00000   90.00000
LATT -1
SFAC C  
C      1  0.5377220000000  0.5311450000000  0.4356770000000 1.0
C      1  0.4390250000000  0.4978460000000  0.4456680000000 1.0
C      1  0.4611200000000  0.5143340000000  0.4455060000000 1.0
C      1  0.5100170000000  0.5181000000000  0.4339020000000 1.0
C      1  0.4774570000000  0.5522610000000  0.5498780000000 1.0
C      1  0.5929440000000  0.5385580000000  0.4833290000000 1.0
C      1  0.5273880000000  0.4540540000000  0.4788350000000 1.0
C      1  0.4849370000000  0.4790040000000  0.4211730000000 1.0
C      1  0.4847310000000  0.5040170000000  0.4329740000000 1.0
C      1  0.4941270000000  0.4983430000000  0.5046390000000 1.0
C      1  0.4037030000000  0.4777820000000  0.4855320000000 1.0
C      1  0.5755750000000  0.5585690000000  0.4803720000000 1.0
C      1  0.5186410000000  0.4524130000000  0.5247060000000 1.0
C      1  0.4157760000000  0.4576630000000  0.5348040000000 1.0
C      1  0.4292970000000  0.4661080000000  0.4816660000000 1.0
C      1  0.4669070000000  0.4978170000000  0.5086920000000 1.0
C      1  0.5216950000000  0.4618480000000  0.5713330000000 1.0
C      1  0.5675200000000  0.5043000000000  0.5262580000000 1.0
C      1  0.5439500000000  0.4752910000000  0.4928060000000 1.0
C      1  0.4747520000000  0.4729560000000  0.5627420000000 1.0
C      1  0.5236150000000  0.5544970000000  0.5350820000000 1.0
C      1  0.5045710000000  0.5046210000000  0.4799800000000 1.0
C      1  0.5043320000000  0.4595300000000  0.4205680000000 1.0
C      1  0.4849430000000  0.5686470000000  0.4917570000000 1.0
C      1  0.5846060000000  0.4952570000000  0.5042400000000 1.0
C      1  0.5114640000000  0.4407330000000  0.4991080000000 1.0
C      1  0.4807030000000  0.4474840000000  0.5546970000000 1.0
C      1  0.5928300000000  0.5113060000000  0.4822870000000 1.0
C      1  0.5296750000000  0.5012020000000  0.4908770000000 1.0
C      1  0.5309060000000  0.4662260000000  0.4287880000000 1.0
C      1  0.5336910000000  0.5039520000000  0.4226810000000 1.0
C      1  0.4257850000000  0.5055420000000  0.5339320000000 1.0
C      1  0.4664010000000  0.5485110000000  0.4873100000000 1.0
C      1  0.5256620000000  0.4485470000000  0.4507600000000 1.0
C      1  0.5544680000000  0.4840850000000  0.5405040000000 1.0
C      1  0.4557570000000  0.5537990000000  0.5343430000000 1.0
C      1  0.5150450000000  0.4872690000000  0.5805460000000 1.0
C      1  0.5429900000000  0.4673180000000  0.5214450000000 1.0
C      1  0.4887540000000  0.4957790000000  0.5715020000000 1.0
C      1  0.4363890000000  0.4408360000000  0.4935500000000 1.0
C      1  0.5488310000000  0.5631320000000  0.4753120000000 1.0
C      1  0.4265860000000  0.4385510000000  0.5193390000000 1.0
C      1  0.5313260000000  0.5578540000000  0.4970710000000 1.0
C      1  0.3985540000000  0.4935070000000  0.5084090000000 1.0
C      1  0.4613340000000  0.4302050000000  0.4887040000000 1.0
C      1  0.4063940000000  0.4840380000000  0.5345020000000 1.0
C      1  0.4271260000000  0.4749200000000  0.4547420000000 1.0
C      1  0.5500470000000  0.5544490000000  0.5477130000000 1.0
C      1  0.4495550000000  0.5414870000000  0.5099960000000 1.0
C      1  0.5402820000000  0.5545690000000  0.4505090000000 1.0
C      1  0.5087050000000  0.4469450000000  0.5513110000000 1.0
C      1  0.5042220000000  0.5125550000000  0.5535160000000 1.0
C      1  0.4874260000000  0.4284920000000  0.4936490000000 1.0
C      1  0.4436330000000  0.5128390000000  0.5124840000000 1.0
C      1  0.4625910000000  0.5362250000000  0.4625570000000 1.0
C      1  0.5723490000000  0.4781620000000  0.4848510000000 1.0
C      1  0.5756930000000  0.5270670000000  0.5416120000000 1.0
C      1  0.5740210000000  0.5536740000000  0.5336990000000 1.0
C      1  0.5025980000000  0.5409460000000  0.5508270000000 1.0
C      1  0.5088560000000  0.5728330000000  0.5047470000000 1.0
END
