TITL C-38192-7909-171 0.000114469892290592 125000 -357.195799168565 0 0 60 (C1) n - 1
REM
REM in /home/bkarasulu/CARBON/AIRSS/Generating-Clusters/EDIP-Nigel-Params/Higher-Symm/Box-15A/Only-C60/SD-CG/FIRE-HFTN
REM
REM
REM
REM
REM
REM ./C.cell (414f73aa93bd7a1190c7fd0f31ff2f98)
REM
REM compiler GCC version 9.2.1 20190827 (Red Hat 9.2.1-1)
REM options -cpp -mtune=generic -march=x86-64 -g -O0 -fpre-include=/usr/include/finclude/math-vector-fortran.h
REM seed -1631259436 -854349159 1059702170 -695810394 -1156401804 1570624287 -921476062 -1108932363 -383178885 1131903706 1388861006 -209154685 -1716519570 133567362 1851568914 -1950363703 1527479104 1369852415 1030503698 -1269596386 -295918133 -1374237129 673838588 1744578171 -1223599801 521403742 2074082299 -568765244 1775172189 569512936 -624123369 -376153427 1148443691
REM
CELL 1.54180   50.00000   50.00000   50.00000   90.00000   90.00000   90.00000
LATT -1
SFAC C  
C      1  0.5312650000000  0.4978930000000  0.4402890000000 1.0
C      1  0.4315170000000  0.5451420000000  0.5067130000000 1.0
C      1  0.4987150000000  0.4396540000000  0.5293800000000 1.0
C      1  0.4617200000000  0.4965560000000  0.4480190000000 1.0
C      1  0.4588580000000  0.5071870000000  0.5547250000000 1.0
C      1  0.5394630000000  0.4939760000000  0.5577590000000 1.0
C      1  0.5673300000000  0.4537120000000  0.5082410000000 1.0
C      1  0.5640280000000  0.5380600000000  0.4923470000000 1.0
C      1  0.4525500000000  0.4646530000000  0.5005390000000 1.0
C      1  0.4916300000000  0.5643870000000  0.5426710000000 1.0
C      1  0.5046890000000  0.4518370000000  0.4631400000000 1.0
C      1  0.5052400000000  0.5654910000000  0.4584200000000 1.0
C      1  0.5024080000000  0.5390910000000  0.4471600000000 1.0
C      1  0.5412550000000  0.4431730000000  0.5033030000000 1.0
C      1  0.4322980000000  0.5082610000000  0.5442950000000 1.0
C      1  0.5038100000000  0.4699070000000  0.4395870000000 1.0
C      1  0.5002920000000  0.4639080000000  0.5467850000000 1.0
C      1  0.4941890000000  0.5418360000000  0.5600940000000 1.0
C      1  0.4531670000000  0.5637750000000  0.5063780000000 1.0
C      1  0.5391700000000  0.5526920000000  0.4944480000000 1.0
C      1  0.4722750000000  0.4422850000000  0.5005170000000 1.0
C      1  0.5653160000000  0.4907680000000  0.5459610000000 1.0
C      1  0.4361630000000  0.4917550000000  0.4605550000000 1.0
C      1  0.5499990000000  0.4981600000000  0.4636470000000 1.0
C      1  0.4612250000000  0.5758610000000  0.4830050000000 1.0
C      1  0.4856450000000  0.4683170000000  0.5707050000000 1.0
C      1  0.5735220000000  0.4822360000000  0.4652870000000 1.0
C      1  0.5358370000000  0.4219330000000  0.4852570000000 1.0
C      1  0.5349410000000  0.5736210000000  0.5131630000000 1.0
C      1  0.4627930000000  0.4188150000000  0.5152700000000 1.0
C      1  0.5176490000000  0.5369050000000  0.5737380000000 1.0
C      1  0.5210120000000  0.4619060000000  0.4173690000000 1.0
C      1  0.4853720000000  0.5336370000000  0.4249940000000 1.0
C      1  0.4213550000000  0.5141640000000  0.4675940000000 1.0
C      1  0.4229260000000  0.4844810000000  0.5340110000000 1.0
C      1  0.5778180000000  0.5134260000000  0.5365000000000 1.0
C      1  0.5790800000000  0.4652790000000  0.4860820000000 1.0
C      1  0.4680840000000  0.4898830000000  0.5750680000000 1.0
C      1  0.4818200000000  0.5781490000000  0.4662330000000 1.0
C      1  0.4206980000000  0.5357860000000  0.4831900000000 1.0
C      1  0.5765810000000  0.5301920000000  0.5158100000000 1.0
C      1  0.4293620000000  0.4641680000000  0.5169240000000 1.0
C      1  0.5344520000000  0.5162560000000  0.5731930000000 1.0
C      1  0.4650380000000  0.5142700000000  0.4259120000000 1.0
C      1  0.5402960000000  0.4812980000000  0.4179790000000 1.0
C      1  0.5186550000000  0.4269750000000  0.4637080000000 1.0
C      1  0.4791670000000  0.4193690000000  0.5372410000000 1.0
C      1  0.5145370000000  0.5745950000000  0.5313220000000 1.0
C      1  0.5221880000000  0.5247090000000  0.4325100000000 1.0
C      1  0.5666400000000  0.5204150000000  0.4698980000000 1.0
C      1  0.4677780000000  0.5681450000000  0.5293390000000 1.0
C      1  0.5234200000000  0.4708320000000  0.5618600000000 1.0
C      1  0.4349570000000  0.4695400000000  0.4786460000000 1.0
C      1  0.4263230000000  0.5310200000000  0.5298330000000 1.0
C      1  0.5700290000000  0.4675250000000  0.5319470000000 1.0
C      1  0.5249790000000  0.4289160000000  0.5216780000000 1.0
C      1  0.5281960000000  0.5700660000000  0.4748520000000 1.0
C      1  0.4827120000000  0.4368580000000  0.4736400000000 1.0
C      1  0.4709390000000  0.5282680000000  0.5690150000000 1.0
C      1  0.4766340000000  0.4780260000000  0.4322520000000 1.0
END
