TITL C-38193-7935-517 -8.24840608878941e-07 125000 -353.704789091538 0 0 60 (D2) n - 1
REM
REM in /home/bkarasulu/CARBON/AIRSS/Generating-Clusters/EDIP-Nigel-Params/Higher-Symm/Box-15A/Only-C60/SD-CG/FIRE-HFTN
REM
REM
REM
REM
REM
REM ./C.cell (414f73aa93bd7a1190c7fd0f31ff2f98)
REM
REM compiler GCC version 9.2.1 20190827 (Red Hat 9.2.1-1)
REM options -cpp -mtune=generic -march=x86-64 -g -O0 -fpre-include=/usr/include/finclude/math-vector-fortran.h
REM seed 1831292248 -558723757 332879922 -199675985 1166360409 681215110 186977258 -1438637041 933378344 -1278737087 -1614287562 -235642751 1533116505 -1663478567 -412917068 1673218402 -2032523954 1148057020 240806159 -904754863 -27638896 1577560415 427104816 362106877 1478404240 1291189225 -41436172 814792650 1419337132 -1762626326 -824520521 1798354725 -1056943718
REM
CELL 1.54180   50.00000   50.00000   50.00000   90.00000   90.00000   90.00000
LATT -1
SFAC C  
C      1  0.5169570000000  0.5321280000000  0.5626760000000 1.0
C      1  0.4830430000000  0.4678720000000  0.5626760000000 1.0
C      1  0.4830430000000  0.5321280000000  0.4373240000000 1.0
C      1  0.5169570000000  0.4678720000000  0.4373240000000 1.0
C      1  0.4943110000000  0.5279480000000  0.5130070000000 1.0
C      1  0.5056890000000  0.4720520000000  0.5130070000000 1.0
C      1  0.5056890000000  0.5279480000000  0.4869930000000 1.0
C      1  0.4943110000000  0.4720520000000  0.4869930000000 1.0
C      1  0.4731750000000  0.5676340000000  0.4914030000000 1.0
C      1  0.5268250000000  0.4323660000000  0.4914030000000 1.0
C      1  0.5268250000000  0.5676340000000  0.5085970000000 1.0
C      1  0.4731750000000  0.4323660000000  0.5085970000000 1.0
C      1  0.5718570000000  0.4935230000000  0.4866890000000 1.0
C      1  0.4281430000000  0.5064770000000  0.4866890000000 1.0
C      1  0.4281430000000  0.4935230000000  0.5133110000000 1.0
C      1  0.5718570000000  0.5064770000000  0.5133110000000 1.0
C      1  0.5435460000000  0.5269230000000  0.5528420000000 1.0
C      1  0.4564540000000  0.4730770000000  0.5528420000000 1.0
C      1  0.4564540000000  0.5269230000000  0.4471580000000 1.0
C      1  0.5435460000000  0.4730770000000  0.4471580000000 1.0
C      1  0.5053780000000  0.5776240000000  0.5246480000000 1.0
C      1  0.4946220000000  0.4223760000000  0.5246480000000 1.0
C      1  0.4946220000000  0.5776240000000  0.4753520000000 1.0
C      1  0.5053780000000  0.4223760000000  0.4753520000000 1.0
C      1  0.4950890000000  0.4854200000000  0.4307230000000 1.0
C      1  0.5049110000000  0.5145800000000  0.4307230000000 1.0
C      1  0.5049110000000  0.4854200000000  0.5692770000000 1.0
C      1  0.4950890000000  0.5145800000000  0.5692770000000 1.0
C      1  0.4786470000000  0.5681250000000  0.5218750000000 1.0
C      1  0.5213530000000  0.4318750000000  0.5218750000000 1.0
C      1  0.5213530000000  0.5681250000000  0.4781250000000 1.0
C      1  0.4786470000000  0.4318750000000  0.4781250000000 1.0
C      1  0.5508280000000  0.5016350000000  0.4549300000000 1.0
C      1  0.4491720000000  0.4983650000000  0.4549300000000 1.0
C      1  0.4491720000000  0.5016350000000  0.5450700000000 1.0
C      1  0.5508280000000  0.4983650000000  0.5450700000000 1.0
C      1  0.4690300000000  0.5492190000000  0.5422140000000 1.0
C      1  0.5309700000000  0.4507810000000  0.5422140000000 1.0
C      1  0.5309700000000  0.5492190000000  0.4577860000000 1.0
C      1  0.4690300000000  0.4507810000000  0.4577860000000 1.0
C      1  0.5125000000000  0.4876730000000  0.4704890000000 1.0
C      1  0.4875000000000  0.5123270000000  0.4704890000000 1.0
C      1  0.4875000000000  0.4876730000000  0.5295110000000 1.0
C      1  0.5125000000000  0.5123270000000  0.5295110000000 1.0
C      1  0.5458350000000  0.5496830000000  0.5220850000000 1.0
C      1  0.4541650000000  0.4503170000000  0.5220850000000 1.0
C      1  0.4541650000000  0.5496830000000  0.4779150000000 1.0
C      1  0.5458350000000  0.4503170000000  0.4779150000000 1.0
C      1  0.5498580000000  0.4756790000000  0.4906220000000 1.0
C      1  0.4501420000000  0.5243210000000  0.4906220000000 1.0
C      1  0.4501420000000  0.4756790000000  0.5093780000000 1.0
C      1  0.5498580000000  0.5243210000000  0.5093780000000 1.0
C      1  0.4682720000000  0.5237200000000  0.5567700000000 1.0
C      1  0.5317280000000  0.4762800000000  0.5567700000000 1.0
C      1  0.5317280000000  0.5237200000000  0.4432300000000 1.0
C      1  0.4682720000000  0.4762800000000  0.4432300000000 1.0
C      1  0.5336240000000  0.4832500000000  0.5135980000000 1.0
C      1  0.4663760000000  0.5167500000000  0.5135980000000 1.0
C      1  0.4663760000000  0.4832500000000  0.4864020000000 1.0
C      1  0.5336240000000  0.5167500000000  0.4864020000000 1.0
END
