TITL C-38186-4112-351 9.38531324211384e-06 125000 -363.791119993801 0 0 60 (C1) n - 1
REM
REM in /home/bkarasulu/CARBON/AIRSS/Generating-Clusters/EDIP-Nigel-Params/Higher-Symm/Box-15A/Only-C60/SD-CG/FIRE-HFTN
REM
REM
REM
REM
REM
REM ./C.cell (414f73aa93bd7a1190c7fd0f31ff2f98)
REM
REM compiler GCC version 9.2.1 20190827 (Red Hat 9.2.1-1)
REM options -cpp -mtune=generic -march=x86-64 -g -O0 -fpre-include=/usr/include/finclude/math-vector-fortran.h
REM seed 754807072 -1353953338 1288312797 1137209822 -1168257048 1611888735 -242420796 1086174548 -1206702055 1591048131 -1814221789 1416578686 -1980653903 1714346353 2074763334 -1282097888 -1028611296 -1434992902 871858403 -2109157021 -1488709615 -2005597214 834030378 535486473 915497986 1767637717 -2093843662 -1368445049 398552362 1992792628 -176338967 -1122000427 -1362237163
REM
CELL 1.54180   50.00000   50.00000   50.00000   90.00000   90.00000   90.00000
LATT -1
SFAC C  
C      1  0.4453400000000  0.4779050000000  0.4576510000000 1.0
C      1  0.5457020000000  0.4645020000000  0.4582490000000 1.0
C      1  0.5088770000000  0.5583110000000  0.4579740000000 1.0
C      1  0.4183560000000  0.4889380000000  0.5219960000000 1.0
C      1  0.5500070000000  0.4357570000000  0.5217710000000 1.0
C      1  0.5312720000000  0.5768560000000  0.5216160000000 1.0
C      1  0.4834760000000  0.5582940000000  0.5166090000000 1.0
C      1  0.4559190000000  0.4539320000000  0.5173910000000 1.0
C      1  0.5597470000000  0.4862470000000  0.5167520000000 1.0
C      1  0.5245820000000  0.4388300000000  0.5341300000000 1.0
C      1  0.5416470000000  0.5535160000000  0.5342260000000 1.0
C      1  0.4350170000000  0.5085710000000  0.5341930000000 1.0
C      1  0.5588380000000  0.5466780000000  0.4886380000000 1.0
C      1  0.4325300000000  0.5269990000000  0.4893980000000 1.0
C      1  0.5098490000000  0.4267230000000  0.4892770000000 1.0
C      1  0.5207850000000  0.5030970000000  0.5376890000000 1.0
C      1  0.4894730000000  0.5163630000000  0.5398880000000 1.0
C      1  0.4893610000000  0.4797110000000  0.5399280000000 1.0
C      1  0.5169020000000  0.4517180000000  0.4608260000000 1.0
C      1  0.5347470000000  0.5405890000000  0.4592770000000 1.0
C      1  0.4495750000000  0.5090610000000  0.4599060000000 1.0
C      1  0.4470340000000  0.4370450000000  0.4837940000000 1.0
C      1  0.5805840000000  0.4858890000000  0.4842220000000 1.0
C      1  0.4725460000000  0.5765290000000  0.4844130000000 1.0
C      1  0.4831840000000  0.5636650000000  0.5452850000000 1.0
C      1  0.4511910000000  0.4520760000000  0.5461150000000 1.0
C      1  0.5630910000000  0.4835790000000  0.5456690000000 1.0
C      1  0.5242300000000  0.4584780000000  0.5543600000000 1.0
C      1  0.5245670000000  0.5433490000000  0.5542340000000 1.0
C      1  0.4517770000000  0.4987920000000  0.5544350000000 1.0
C      1  0.4925540000000  0.4219700000000  0.4672010000000 1.0
C      1  0.5721580000000  0.5332290000000  0.4673600000000 1.0
C      1  0.4366080000000  0.5449420000000  0.4677170000000 1.0
C      1  0.4600410000000  0.5617360000000  0.4627600000000 1.0
C      1  0.4661570000000  0.4336160000000  0.4620880000000 1.0
C      1  0.5745210000000  0.5043660000000  0.4625930000000 1.0
C      1  0.5103560000000  0.5658270000000  0.5056340000000 1.0
C      1  0.4371660000000  0.4744580000000  0.5061800000000 1.0
C      1  0.5516930000000  0.4593710000000  0.5059160000000 1.0
C      1  0.5033970000000  0.4399430000000  0.5139190000000 1.0
C      1  0.5507600000000  0.5346750000000  0.5134960000000 1.0
C      1  0.4474870000000  0.5253100000000  0.5138500000000 1.0
C      1  0.4967170000000  0.5410800000000  0.5553400000000 1.0
C      1  0.4652010000000  0.4745100000000  0.5558660000000 1.0
C      1  0.5362570000000  0.4837720000000  0.5544260000000 1.0
C      1  0.4774290000000  0.5279580000000  0.5138230000000 1.0
C      1  0.4849450000000  0.4636570000000  0.5143140000000 1.0
C      1  0.5376980000000  0.5076850000000  0.5126520000000 1.0
C      1  0.5198120000000  0.5037840000000  0.4869500000000 1.0
C      1  0.4896790000000  0.5132650000000  0.4880950000000 1.0
C      1  0.4878470000000  0.4817720000000  0.4885620000000 1.0
C      1  0.5017280000000  0.5767180000000  0.4805790000000 1.0
C      1  0.4328050000000  0.4625060000000  0.4804060000000 1.0
C      1  0.5652630000000  0.4610500000000  0.4806810000000 1.0
C      1  0.5496590000000  0.4937310000000  0.4496210000000 1.0
C      1  0.4820780000000  0.5456340000000  0.4504210000000 1.0
C      1  0.4692010000000  0.4606400000000  0.4493300000000 1.0
C      1  0.5280530000000  0.5116880000000  0.4591680000000 1.0
C      1  0.4780540000000  0.5178810000000  0.4603340000000 1.0
C      1  0.4944680000000  0.4712280000000  0.4608070000000 1.0
END
