TITL C-38194-9318-579 -1.14742725533648e-06 125000 -361.00633218911 0 0 60 (C1) n - 1
REM
REM in /home/bkarasulu/CARBON/AIRSS/Generating-Clusters/EDIP-Nigel-Params/Higher-Symm/Box-15A/Only-C60/SD-CG/FIRE-HFTN
REM
REM
REM
REM
REM
REM ./C.cell (414f73aa93bd7a1190c7fd0f31ff2f98)
REM
REM compiler GCC version 9.2.1 20190827 (Red Hat 9.2.1-1)
REM options -cpp -mtune=generic -march=x86-64 -g -O0 -fpre-include=/usr/include/finclude/math-vector-fortran.h
REM seed -1565783501 1087486045 -1039310451 -1317092620 -243684282 699073268 187232924 1664448900 1396059160 -239015132 -666813122 -124696460 800379503 -1983677472 2103336209 -1656331074 1667460677 -1831839912 476518697 -1484170422 1999299259 -606768182 -384379071 -831465254 -1906793943 -642138094 1841791414 1398231570 -861420848 -1624316726 1343627706 616685735 -2131201079
REM
CELL 1.54180   50.00000   50.00000   50.00000   90.00000   90.00000   90.00000
LATT -1
SFAC C  
C      1  0.5150250000000  0.4980550000000  0.4409940000000 1.0
C      1  0.5139380000000  0.4989070000000  0.5583670000000 1.0
C      1  0.5226000000000  0.4637300000000  0.5695110000000 1.0
C      1  0.5231160000000  0.4628140000000  0.4300970000000 1.0
C      1  0.4668760000000  0.4880090000000  0.4692620000000 1.0
C      1  0.4668700000000  0.4888660000000  0.5300900000000 1.0
C      1  0.4937700000000  0.4602820000000  0.4343300000000 1.0
C      1  0.4931420000000  0.4607840000000  0.5650290000000 1.0
C      1  0.4074630000000  0.5252250000000  0.5118010000000 1.0
C      1  0.4082830000000  0.5224330000000  0.4850860000000 1.0
C      1  0.5834500000000  0.4882140000000  0.4866090000000 1.0
C      1  0.5825280000000  0.4901280000000  0.5133060000000 1.0
C      1  0.5407440000000  0.4586940000000  0.4855920000000 1.0
C      1  0.5406800000000  0.4589610000000  0.5145090000000 1.0
C      1  0.4413370000000  0.4906530000000  0.5143680000000 1.0
C      1  0.4409100000000  0.4873210000000  0.4850080000000 1.0
C      1  0.5590460000000  0.4947810000000  0.4452730000000 1.0
C      1  0.5579330000000  0.4966100000000  0.5544000000000 1.0
C      1  0.4751620000000  0.5544930000000  0.4413710000000 1.0
C      1  0.4786420000000  0.5533670000000  0.5655830000000 1.0
C      1  0.4659340000000  0.5409330000000  0.4642560000000 1.0
C      1  0.4756850000000  0.5387740000000  0.5418920000000 1.0
C      1  0.5324370000000  0.5407790000000  0.5265650000000 1.0
C      1  0.5345690000000  0.5396920000000  0.4722570000000 1.0
C      1  0.4695460000000  0.5378840000000  0.5860500000000 1.0
C      1  0.4727750000000  0.5406950000000  0.4180200000000 1.0
C      1  0.4939000000000  0.4396310000000  0.4854670000000 1.0
C      1  0.4936880000000  0.4400150000000  0.5141630000000 1.0
C      1  0.5164950000000  0.4926930000000  0.5273250000000 1.0
C      1  0.5168150000000  0.4922610000000  0.4718700000000 1.0
C      1  0.5392880000000  0.5142610000000  0.4328160000000 1.0
C      1  0.5376640000000  0.5159700000000  0.5663040000000 1.0
C      1  0.5114480000000  0.5550820000000  0.4824700000000 1.0
C      1  0.5129580000000  0.5600640000000  0.5137230000000 1.0
C      1  0.5373550000000  0.5416130000000  0.5542840000000 1.0
C      1  0.5396630000000  0.5398860000000  0.4445920000000 1.0
C      1  0.4826910000000  0.5503420000000  0.5158070000000 1.0
C      1  0.4850600000000  0.5396110000000  0.4864450000000 1.0
C      1  0.4257860000000  0.5115420000000  0.5270780000000 1.0
C      1  0.4243520000000  0.5063600000000  0.4691870000000 1.0
C      1  0.5657760000000  0.5044460000000  0.4722430000000 1.0
C      1  0.5648890000000  0.5062910000000  0.5275480000000 1.0
C      1  0.4667090000000  0.5140240000000  0.4252790000000 1.0
C      1  0.4657940000000  0.5117350000000  0.5758790000000 1.0
C      1  0.4906790000000  0.4953800000000  0.5138370000000 1.0
C      1  0.4907330000000  0.4958720000000  0.4851360000000 1.0
C      1  0.4555150000000  0.5145930000000  0.4534810000000 1.0
C      1  0.4588500000000  0.5147770000000  0.5468660000000 1.0
C      1  0.5386460000000  0.5122650000000  0.4838370000000 1.0
C      1  0.5379700000000  0.5131130000000  0.5152750000000 1.0
C      1  0.5453370000000  0.4693360000000  0.5508260000000 1.0
C      1  0.5458820000000  0.4679150000000  0.4490040000000 1.0
C      1  0.4709200000000  0.4619510000000  0.5451110000000 1.0
C      1  0.4716410000000  0.4613950000000  0.4540380000000 1.0
C      1  0.4898130000000  0.4966510000000  0.4233610000000 1.0
C      1  0.4901110000000  0.4959510000000  0.5782760000000 1.0
C      1  0.5155260000000  0.4536930000000  0.5274030000000 1.0
C      1  0.5157610000000  0.4532790000000  0.4723180000000 1.0
C      1  0.4696500000000  0.4387550000000  0.5286020000000 1.0
C      1  0.4701770000000  0.4381610000000  0.4705230000000 1.0
END
