TITL C-38199-1586-3 3.89493447806774e-07 125000 -360.680281395138 0 0 60 (C1) n - 1
REM
REM in /home/bkarasulu/CARBON/AIRSS/Generating-Clusters/EDIP-Nigel-Params/Higher-Symm/Box-15A/Only-C60/SD-CG/FIRE-HFTN
REM
REM
REM
REM
REM
REM ./C.cell (414f73aa93bd7a1190c7fd0f31ff2f98)
REM
REM compiler GCC version 9.2.1 20190827 (Red Hat 9.2.1-1)
REM options -cpp -mtune=generic -march=x86-64 -g -O0 -fpre-include=/usr/include/finclude/math-vector-fortran.h
REM seed 1942876547 -946659407 1882389094 -829791201 1399502047 -1091251529 -1486328853 782549718 -1202818065 -840754943 16634613 1594321210 27100258 -556473715 1405707224 -1212518373 -980122429 -1501896363 -458929988 85142610 1181476670 -714402682 1750696916 -668880391 1373980937 1332207538 -1187665607 -1475572 -1229345227 -535992116 730030524 824136233 -1316204211
REM
CELL 1.54180   50.00000   50.00000   50.00000   90.00000   90.00000   90.00000
LATT -1
SFAC C  
C      1  0.5905800000000  0.4923480000000  0.5321330000000 1.0
C      1  0.5456660000000  0.5523610000000  0.4737770000000 1.0
C      1  0.5169540000000  0.5216280000000  0.4467990000000 1.0
C      1  0.4716530000000  0.5269490000000  0.4576090000000 1.0
C      1  0.5324970000000  0.4568710000000  0.5490840000000 1.0
C      1  0.5278860000000  0.5483820000000  0.5405540000000 1.0
C      1  0.4561990000000  0.4728780000000  0.5532730000000 1.0
C      1  0.5061610000000  0.5004200000000  0.5678080000000 1.0
C      1  0.4603360000000  0.5237150000000  0.5589920000000 1.0
C      1  0.5367530000000  0.4720340000000  0.4395790000000 1.0
C      1  0.4731970000000  0.5564500000000  0.4613010000000 1.0
C      1  0.4639540000000  0.5108040000000  0.5054770000000 1.0
C      1  0.4308520000000  0.4464990000000  0.4979110000000 1.0
C      1  0.5927870000000  0.5098460000000  0.5122790000000 1.0
C      1  0.4789910000000  0.4745470000000  0.5324550000000 1.0
C      1  0.5806570000000  0.5242070000000  0.4934840000000 1.0
C      1  0.5378490000000  0.5660750000000  0.5212840000000 1.0
C      1  0.4903500000000  0.5195100000000  0.4361660000000 1.0
C      1  0.5422870000000  0.5223710000000  0.5420370000000 1.0
C      1  0.5142240000000  0.4258020000000  0.4876260000000 1.0
C      1  0.4847990000000  0.5166720000000  0.4838760000000 1.0
C      1  0.4629710000000  0.4341750000000  0.4819110000000 1.0
C      1  0.5278260000000  0.4305660000000  0.4615890000000 1.0
C      1  0.5582930000000  0.5257820000000  0.4771420000000 1.0
C      1  0.5487690000000  0.4520360000000  0.4582100000000 1.0
C      1  0.4930830000000  0.4515230000000  0.5197810000000 1.0
C      1  0.5243810000000  0.5497680000000  0.4525330000000 1.0
C      1  0.4547330000000  0.4883440000000  0.4250780000000 1.0
C      1  0.5132720000000  0.5282670000000  0.4997820000000 1.0
C      1  0.4359450000000  0.5214030000000  0.5023890000000 1.0
C      1  0.4624310000000  0.4820320000000  0.5103000000000 1.0
C      1  0.4811230000000  0.4949210000000  0.4260000000000 1.0
C      1  0.5344540000000  0.4998620000000  0.4425020000000 1.0
C      1  0.4894600000000  0.5269130000000  0.5629700000000 1.0
C      1  0.4412360000000  0.4848700000000  0.4714360000000 1.0
C      1  0.4239310000000  0.4962260000000  0.4938220000000 1.0
C      1  0.4313150000000  0.4654230000000  0.5422640000000 1.0
C      1  0.4781800000000  0.5654630000000  0.4980700000000 1.0
C      1  0.5240000000000  0.5080220000000  0.5224040000000 1.0
C      1  0.5349420000000  0.5084770000000  0.4850310000000 1.0
C      1  0.5195210000000  0.4440030000000  0.5279400000000 1.0
C      1  0.5010780000000  0.4925810000000  0.4762690000000 1.0
C      1  0.4340310000000  0.4714620000000  0.5137090000000 1.0
C      1  0.4992540000000  0.5422870000000  0.5394780000000 1.0
C      1  0.5360230000000  0.5035270000000  0.5655930000000 1.0
C      1  0.5316770000000  0.4260550000000  0.5102020000000 1.0
C      1  0.4954400000000  0.4658700000000  0.4689380000000 1.0
C      1  0.5489830000000  0.4769550000000  0.5599580000000 1.0
C      1  0.5120040000000  0.4540710000000  0.4469690000000 1.0
C      1  0.5745220000000  0.4797340000000  0.5492470000000 1.0
C      1  0.4479630000000  0.5032100000000  0.4486350000000 1.0
C      1  0.4414440000000  0.4539570000000  0.4710580000000 1.0
C      1  0.5035490000000  0.5746570000000  0.4880430000000 1.0
C      1  0.4542540000000  0.5369580000000  0.5325920000000 1.0
C      1  0.4528160000000  0.4977550000000  0.5651480000000 1.0
C      1  0.5005420000000  0.5683130000000  0.4595690000000 1.0
C      1  0.4900180000000  0.4447880000000  0.4898910000000 1.0
C      1  0.4992670000000  0.4979970000000  0.5382740000000 1.0
C      1  0.4769270000000  0.5546750000000  0.5249880000000 1.0
C      1  0.5257110000000  0.5567050000000  0.4967840000000 1.0
END
