TITL C-38184-643-262 0.000663629516571912 125000 -361.051645039507 0 0 60 (C1) n - 1
REM
REM in /home/bkarasulu/CARBON/AIRSS/Generating-Clusters/EDIP-Nigel-Params/Higher-Symm/Box-15A/Only-C60/SD-CG/FIRE-HFTN
REM
REM
REM
REM
REM
REM ./C.cell (414f73aa93bd7a1190c7fd0f31ff2f98)
REM
REM compiler GCC version 9.2.1 20190827 (Red Hat 9.2.1-1)
REM options -cpp -mtune=generic -march=x86-64 -g -O0 -fpre-include=/usr/include/finclude/math-vector-fortran.h
REM seed 1365080651 -1147443408 505905928 -1230298165 935032018 133662196 -1684832949 -477063464 925418061 -1289011884 2128044722 627703745 727602712 -1723832409 -1661914541 482885127 -1176530385 -1142638217 1579037502 1581782874 -1574709206 1488685013 -1792920421 1762498915 1269719669 -1360444114 -529928063 1133920487 181343393 34557858 -858937476 -962520582 1555114859
REM
CELL 1.54180   50.00000   50.00000   50.00000   90.00000   90.00000   90.00000
LATT -1
SFAC C  
C      1  0.5455520000000  0.5430610000000  0.4624290000000 1.0
C      1  0.5446500000000  0.4980620000000  0.4433280000000 1.0
C      1  0.5441120000000  0.4544560000000  0.4647210000000 1.0
C      1  0.5434090000000  0.4465400000000  0.5128490000000 1.0
C      1  0.5460040000000  0.4750260000000  0.5531110000000 1.0
C      1  0.5419130000000  0.5241930000000  0.5477080000000 1.0
C      1  0.5427240000000  0.5548260000000  0.5096550000000 1.0
C      1  0.4939200000000  0.4495140000000  0.4441750000000 1.0
C      1  0.4853100000000  0.4364790000000  0.5063480000000 1.0
C      1  0.5005210000000  0.4538450000000  0.5760410000000 1.0
C      1  0.4900780000000  0.5125560000000  0.5650280000000 1.0
C      1  0.4920680000000  0.5756470000000  0.5309890000000 1.0
C      1  0.4986220000000  0.5723580000000  0.4599440000000 1.0
C      1  0.4918730000000  0.5171320000000  0.4158320000000 1.0
C      1  0.5556900000000  0.4529940000000  0.5375400000000 1.0
C      1  0.5563740000000  0.5013610000000  0.5571350000000 1.0
C      1  0.5534900000000  0.5464730000000  0.5345480000000 1.0
C      1  0.5560680000000  0.5571450000000  0.4848900000000 1.0
C      1  0.5575190000000  0.5234690000000  0.4456560000000 1.0
C      1  0.5558380000000  0.4722570000000  0.4458330000000 1.0
C      1  0.5559340000000  0.4424390000000  0.4875750000000 1.0
C      1  0.4262650000000  0.5053250000000  0.4756850000000 1.0
C      1  0.4474190000000  0.4843310000000  0.4709570000000 1.0
C      1  0.4462430000000  0.4672560000000  0.4957310000000 1.0
C      1  0.4245630000000  0.4803390000000  0.5121480000000 1.0
C      1  0.4351950000000  0.5014010000000  0.5281540000000 1.0
C      1  0.4457260000000  0.5249090000000  0.5166700000000 1.0
C      1  0.4368210000000  0.5275670000000  0.4900520000000 1.0
C      1  0.4828360000000  0.5509530000000  0.5396560000000 1.0
C      1  0.4907670000000  0.5652820000000  0.4855880000000 1.0
C      1  0.4950640000000  0.5306130000000  0.4400110000000 1.0
C      1  0.4878670000000  0.4766660000000  0.4416550000000 1.0
C      1  0.4933120000000  0.4234260000000  0.4830240000000 1.0
C      1  0.4949360000000  0.4547880000000  0.5485740000000 1.0
C      1  0.5026580000000  0.4981880000000  0.5854100000000 1.0
C      1  0.4785210000000  0.4748880000000  0.5348070000000 1.0
C      1  0.4846720000000  0.5034660000000  0.5377720000000 1.0
C      1  0.4752680000000  0.5281370000000  0.5200200000000 1.0
C      1  0.4863680000000  0.5365010000000  0.4909780000000 1.0
C      1  0.4819310000000  0.5220500000000  0.4651110000000 1.0
C      1  0.4767670000000  0.4922110000000  0.4657330000000 1.0
C      1  0.4748220000000  0.4648920000000  0.5068820000000 1.0
C      1  0.5308440000000  0.4885560000000  0.4204600000000 1.0
C      1  0.5333900000000  0.4289830000000  0.4587210000000 1.0
C      1  0.5288280000000  0.4266170000000  0.5270120000000 1.0
C      1  0.5423430000000  0.4742670000000  0.5813030000000 1.0
C      1  0.5267170000000  0.5434280000000  0.5627290000000 1.0
C      1  0.5320580000000  0.5805500000000  0.5051050000000 1.0
C      1  0.5362960000000  0.5553750000000  0.4385100000000 1.0
C      1  0.5148010000000  0.4735820000000  0.5898280000000 1.0
C      1  0.4973730000000  0.5407760000000  0.5635130000000 1.0
C      1  0.5029650000000  0.5824760000000  0.5062820000000 1.0
C      1  0.5073140000000  0.5573420000000  0.4381940000000 1.0
C      1  0.5017600000000  0.4912550000000  0.4201320000000 1.0
C      1  0.5047070000000  0.4278680000000  0.4580300000000 1.0
C      1  0.5003410000000  0.4316340000000  0.5312720000000 1.0
C      1  0.5400900000000  0.4997610000000  0.4997770000000 1.0
C      1  0.4916490000000  0.4816490000000  0.4890630000000 1.0
C      1  0.5153450000000  0.4932910000000  0.4973830000000 1.0
C      1  0.4069560000000  0.4914870000000  0.4921340000000 1.0
END
