TITL C-38188-488-50 -1.42455435256604e-06 125000 -348.649628445167 0 0 60 (C1) n - 1
REM
REM in /home/bkarasulu/CARBON/AIRSS/Generating-Clusters/EDIP-Nigel-Params/Higher-Symm/Box-15A/Only-C60/SD-CG/FIRE-HFTN
REM
REM
REM
REM
REM
REM ./C.cell (414f73aa93bd7a1190c7fd0f31ff2f98)
REM
REM compiler GCC version 9.2.1 20190827 (Red Hat 9.2.1-1)
REM options -cpp -mtune=generic -march=x86-64 -g -O0 -fpre-include=/usr/include/finclude/math-vector-fortran.h
REM seed 1293979130 321571248 38943134 2136151417 592861278 -1466837326 1698519700 -61897512 733959891 784055923 -2121207650 -1956728732 24304895 -572141872 1522221181 -410280564 -1645297722 1908193354 -215528677 -889290244 -195046182 1719124280 -1587040984 -598529343 1841867770 191569692 -1636013897 -2077299309 -671081431 1518495435 1886147622 -1699235174 -259935226
REM
CELL 1.54180   50.00000   50.00000   50.00000   90.00000   90.00000   90.00000
LATT -1
SFAC C  
C      1  0.4378190000000  0.5139790000000  0.4548220000000 1.0
C      1  0.4429390000000  0.4455890000000  0.5090510000000 1.0
C      1  0.4454370000000  0.5422500000000  0.5389160000000 1.0
C      1  0.5514650000000  0.5217970000000  0.5568440000000 1.0
C      1  0.5354420000000  0.4467130000000  0.4902530000000 1.0
C      1  0.5339340000000  0.5366660000000  0.4574170000000 1.0
C      1  0.4351940000000  0.4756510000000  0.4591060000000 1.0
C      1  0.4367250000000  0.4882080000000  0.5357100000000 1.0
C      1  0.4396740000000  0.5514990000000  0.5018480000000 1.0
C      1  0.5572240000000  0.4839620000000  0.5497170000000 1.0
C      1  0.5550850000000  0.4746060000000  0.4485790000000 1.0
C      1  0.5442890000000  0.5396280000000  0.5067050000000 1.0
C      1  0.5389900000000  0.5594040000000  0.5284270000000 1.0
C      1  0.5447780000000  0.4944310000000  0.4320210000000 1.0
C      1  0.5469890000000  0.4578490000000  0.5415100000000 1.0
C      1  0.4611650000000  0.5489220000000  0.4826810000000 1.0
C      1  0.4579640000000  0.4979180000000  0.5536160000000 1.0
C      1  0.4572520000000  0.4579000000000  0.4634750000000 1.0
C      1  0.5189630000000  0.4906670000000  0.4672110000000 1.0
C      1  0.5102230000000  0.4689620000000  0.5196720000000 1.0
C      1  0.5241140000000  0.5174940000000  0.5085910000000 1.0
C      1  0.4905210000000  0.4901730000000  0.5261380000000 1.0
C      1  0.4945480000000  0.4763940000000  0.4770620000000 1.0
C      1  0.4998190000000  0.5246250000000  0.4916320000000 1.0
C      1  0.4793970000000  0.4610650000000  0.4450620000000 1.0
C      1  0.4771670000000  0.4769740000000  0.5600630000000 1.0
C      1  0.4867020000000  0.5514880000000  0.4955610000000 1.0
C      1  0.5178470000000  0.4556620000000  0.5450700000000 1.0
C      1  0.5168050000000  0.4885200000000  0.4286140000000 1.0
C      1  0.5192610000000  0.5776030000000  0.5204520000000 1.0
C      1  0.5456470000000  0.5485110000000  0.4799730000000 1.0
C      1  0.5476090000000  0.4568100000000  0.4673720000000 1.0
C      1  0.5502790000000  0.4987290000000  0.5721890000000 1.0
C      1  0.4433630000000  0.5663030000000  0.5251800000000 1.0
C      1  0.4362280000000  0.4608670000000  0.5300710000000 1.0
C      1  0.4349310000000  0.4927380000000  0.4372650000000 1.0
C      1  0.5495060000000  0.5208910000000  0.4403090000000 1.0
C      1  0.5504380000000  0.4494560000000  0.5144010000000 1.0
C      1  0.5319060000000  0.5437880000000  0.5536030000000 1.0
C      1  0.4661720000000  0.5259450000000  0.5504690000000 1.0
C      1  0.4613090000000  0.4432910000000  0.4884970000000 1.0
C      1  0.4620450000000  0.5279680000000  0.4617390000000 1.0
C      1  0.5013580000000  0.4644650000000  0.4265220000000 1.0
C      1  0.5037000000000  0.4680270000000  0.5676120000000 1.0
C      1  0.4958920000000  0.5768920000000  0.5059570000000 1.0
C      1  0.5094680000000  0.5204790000000  0.4635960000000 1.0
C      1  0.5100540000000  0.5109800000000  0.5337010000000 1.0
C      1  0.5059840000000  0.4535720000000  0.4940370000000 1.0
C      1  0.4802850000000  0.5982040000000  0.5051730000000 1.0
C      1  0.5017870000000  0.4507540000000  0.4038900000000 1.0
C      1  0.5071610000000  0.4575300000000  0.5916710000000 1.0
C      1  0.4863700000000  0.4322520000000  0.4947610000000 1.0
C      1  0.4859670000000  0.5243090000000  0.4470430000000 1.0
C      1  0.5034360000000  0.5328860000000  0.5511210000000 1.0
C      1  0.5869920000000  0.4951090000000  0.4985390000000 1.0
C      1  0.4310870000000  0.5046240000000  0.5136060000000 1.0
C      1  0.5620290000000  0.4894580000000  0.4948970000000 1.0
C      1  0.4524890000000  0.5022070000000  0.4965420000000 1.0
C      1  0.5334690000000  0.4909200000000  0.4960210000000 1.0
C      1  0.4814920000000  0.4985120000000  0.4974080000000 1.0
END
