TITL C-38193-7935-415 3.06643717233775e-05 125000 -360.067495563467 0 0 60 (C2) n - 1
REM
REM in /home/bkarasulu/CARBON/AIRSS/Generating-Clusters/EDIP-Nigel-Params/Higher-Symm/Box-15A/Only-C60/SD-CG/FIRE-HFTN
REM
REM
REM
REM
REM
REM ./C.cell (414f73aa93bd7a1190c7fd0f31ff2f98)
REM
REM compiler GCC version 9.2.1 20190827 (Red Hat 9.2.1-1)
REM options -cpp -mtune=generic -march=x86-64 -g -O0 -fpre-include=/usr/include/finclude/math-vector-fortran.h
REM seed -396000880 1443327391 -1757205392 -649532377 -1451076830 1240197607 -1802457555 122959736 620263179 60186550 2037741760 1551358649 1498276589 -969067939 485356664 1001295540 721939061 -668477048 1065481536 -123183473 -1036800131 1229219134 -465133886 -1524026135 1062256188 -1845198257 -1949665584 1947774341 -1153859250 -444224675 417797492 -2145382344 -101644956
REM
CELL 1.54180   50.00000   50.00000   50.00000   90.00000   90.00000   90.00000
LATT -1
SFAC C  
C      1  0.4696870000000  0.5208300000000  0.5280010000000 1.0
C      1  0.5303130000000  0.4791700000000  0.5280010000000 1.0
C      1  0.5610130000000  0.4818410000000  0.5761790000000 1.0
C      1  0.4389870000000  0.5181590000000  0.5761790000000 1.0
C      1  0.5689430000000  0.4670880000000  0.5546760000000 1.0
C      1  0.4310570000000  0.5329120000000  0.5546760000000 1.0
C      1  0.4415840000000  0.4825630000000  0.5282270000000 1.0
C      1  0.5584160000000  0.5174370000000  0.5282270000000 1.0
C      1  0.4789520000000  0.5691040000000  0.5021590000000 1.0
C      1  0.5210480000000  0.4308960000000  0.5021590000000 1.0
C      1  0.5070490000000  0.4446650000000  0.5590300000000 1.0
C      1  0.4929510000000  0.5553350000000  0.5590300000000 1.0
C      1  0.4372570000000  0.5067370000000  0.4859950000000 1.0
C      1  0.5627430000000  0.4932630000000  0.4859950000000 1.0
C      1  0.4912940000000  0.4877860000000  0.4211670000000 1.0
C      1  0.5087060000000  0.5122140000000  0.4211670000000 1.0
C      1  0.4972140000000  0.4385310000000  0.4933820000000 1.0
C      1  0.5027860000000  0.5614690000000  0.4933820000000 1.0
C      1  0.4291390000000  0.5068910000000  0.5147580000000 1.0
C      1  0.5708610000000  0.4931090000000  0.5147580000000 1.0
C      1  0.4640860000000  0.4900490000000  0.4334030000000 1.0
C      1  0.5359140000000  0.5099510000000  0.4334030000000 1.0
C      1  0.4404460000000  0.5311980000000  0.5281740000000 1.0
C      1  0.5595540000000  0.4688020000000  0.5281740000000 1.0
C      1  0.5319980000000  0.5542150000000  0.4549910000000 1.0
C      1  0.4680020000000  0.4457850000000  0.4549910000000 1.0
C      1  0.4599810000000  0.5358290000000  0.4525510000000 1.0
C      1  0.5400190000000  0.4641710000000  0.4525510000000 1.0
C      1  0.5480870000000  0.5182660000000  0.4820230000000 1.0
C      1  0.4519130000000  0.4817340000000  0.4820230000000 1.0
C      1  0.4905900000000  0.4786170000000  0.5352360000000 1.0
C      1  0.5094100000000  0.5213830000000  0.5352360000000 1.0
C      1  0.4850120000000  0.4506760000000  0.5429830000000 1.0
C      1  0.5149880000000  0.5493240000000  0.5429830000000 1.0
C      1  0.5215220000000  0.4878240000000  0.5001330000000 1.0
C      1  0.4784780000000  0.5121760000000  0.5001330000000 1.0
C      1  0.4904520000000  0.4808730000000  0.5032290000000 1.0
C      1  0.5095480000000  0.5191270000000  0.5032290000000 1.0
C      1  0.4938560000000  0.4430340000000  0.4650120000000 1.0
C      1  0.5061440000000  0.5569660000000  0.4650120000000 1.0
C      1  0.4523170000000  0.5308800000000  0.4794280000000 1.0
C      1  0.5476830000000  0.4691200000000  0.4794280000000 1.0
C      1  0.4962530000000  0.5375940000000  0.4220730000000 1.0
C      1  0.5037470000000  0.4624060000000  0.4220730000000 1.0
C      1  0.5438230000000  0.5288810000000  0.4550650000000 1.0
C      1  0.4561770000000  0.4711190000000  0.4550650000000 1.0
C      1  0.4824060000000  0.5319220000000  0.5682770000000 1.0
C      1  0.5175940000000  0.4680780000000  0.5682770000000 1.0
C      1  0.5339620000000  0.5048800000000  0.5431420000000 1.0
C      1  0.4660380000000  0.4951200000000  0.5431420000000 1.0
C      1  0.4501310000000  0.4639970000000  0.5057750000000 1.0
C      1  0.5498690000000  0.5360030000000  0.5057750000000 1.0
C      1  0.4749280000000  0.4454060000000  0.5134880000000 1.0
C      1  0.5250720000000  0.5545940000000  0.5134880000000 1.0
C      1  0.5474500000000  0.4843170000000  0.4347140000000 1.0
C      1  0.4525500000000  0.5156830000000  0.4347140000000 1.0
C      1  0.4860110000000  0.5471880000000  0.4463210000000 1.0
C      1  0.5139890000000  0.4528120000000  0.4463210000000 1.0
C      1  0.4651650000000  0.5095110000000  0.5704070000000 1.0
C      1  0.5348340000000  0.4904890000000  0.5704070000000 1.0
END
