TITL C-38197-8510-236 0.558530935027608 125000 -358.118526614185 0 0 60 (Cs) n - 1
REM
REM in /home/bkarasulu/CARBON/AIRSS/Generating-Clusters/EDIP-Nigel-Params/Higher-Symm/Box-15A/Only-C60/SD-CG/FIRE-HFTN
REM
REM
REM
REM
REM
REM ./C.cell (414f73aa93bd7a1190c7fd0f31ff2f98)
REM
REM compiler GCC version 9.2.1 20190827 (Red Hat 9.2.1-1)
REM options -cpp -mtune=generic -march=x86-64 -g -O0 -fpre-include=/usr/include/finclude/math-vector-fortran.h
REM seed -2031797471 1580003190 1500165612 1078516997 -1789478720 -642802387 781258256 -167748118 325522748 1935306993 -978530652 1081068633 652702438 -45739045 -2070634357 -1817896152 1884710040 -1892912880 -143219136 -662887168 -252100174 -800388279 -2100286921 -15607178 1135060696 -869186460 -1687688561 515174285 37870301 1855291593 8306802 591006437 -1059286597
REM
CELL 1.54180   50.00000   50.00000   50.00000   90.00000   90.00000   90.00000
LATT -1
SFAC C  
C      1  0.4572150000000  0.5233630000000  0.5264480000000 1.0
C      1  0.5522690000000  0.5203730000000  0.4530450000000 1.0
C      1  0.4458550000000  0.5203800000000  0.4530930000000 1.0
C      1  0.5410400000000  0.5233430000000  0.5264360000000 1.0
C      1  0.5211770000000  0.4860940000000  0.5857420000000 1.0
C      1  0.4770730000000  0.4700520000000  0.4112920000000 1.0
C      1  0.5210780000000  0.4700010000000  0.4112700000000 1.0
C      1  0.4771670000000  0.4861440000000  0.5858020000000 1.0
C      1  0.4849690000000  0.4606560000000  0.5955170000000 1.0
C      1  0.5129020000000  0.4439810000000  0.4186830000000 1.0
C      1  0.4854300000000  0.4441070000000  0.4187340000000 1.0
C      1  0.5125740000000  0.4608220000000  0.5953400000000 1.0
C      1  0.5447190000000  0.4748940000000  0.4562030000000 1.0
C      1  0.4466380000000  0.4788110000000  0.5439190000000 1.0
C      1  0.5516640000000  0.4787840000000  0.5438690000000 1.0
C      1  0.4534870000000  0.4749060000000  0.4562420000000 1.0
C      1  0.5530180000000  0.4977240000000  0.4713850000000 1.0
C      1  0.4377080000000  0.5009570000000  0.5244900000000 1.0
C      1  0.5605560000000  0.5009490000000  0.5244410000000 1.0
C      1  0.4451770000000  0.4977260000000  0.4714310000000 1.0
C      1  0.5463750000000  0.5506480000000  0.5257210000000 1.0
C      1  0.4520430000000  0.5457210000000  0.4622030000000 1.0
C      1  0.5460780000000  0.5457110000000  0.4621610000000 1.0
C      1  0.4518640000000  0.5506650000000  0.5257420000000 1.0
C      1  0.4640070000000  0.4858840000000  0.4317300000000 1.0
C      1  0.5271640000000  0.4882920000000  0.5571430000000 1.0
C      1  0.4710970000000  0.4883790000000  0.5572170000000 1.0
C      1  0.5341850000000  0.4858400000000  0.4316820000000 1.0
C      1  0.5232510000000  0.5641740000000  0.5268100000000 1.0
C      1  0.4729720000000  0.5615860000000  0.4667280000000 1.0
C      1  0.5251540000000  0.5615760000000  0.4667080000000 1.0
C      1  0.4749850000000  0.5642010000000  0.5268210000000 1.0
C      1  0.5184350000000  0.5134660000000  0.5433860000000 1.0
C      1  0.4560950000000  0.5126430000000  0.4278470000000 1.0
C      1  0.5420070000000  0.5126260000000  0.4278130000000 1.0
C      1  0.4798420000000  0.5135040000000  0.5433860000000 1.0
C      1  0.5472950000000  0.4535920000000  0.5282570000000 1.0
C      1  0.4568600000000  0.4520900000000  0.4742510000000 1.0
C      1  0.5414210000000  0.4520570000000  0.4742040000000 1.0
C      1  0.4510480000000  0.4536300000000  0.5283050000000 1.0
C      1  0.5241200000000  0.4300310000000  0.4701370000000 1.0
C      1  0.4728630000000  0.4368940000000  0.5358430000000 1.0
C      1  0.5254760000000  0.4368630000000  0.5357990000000 1.0
C      1  0.4741430000000  0.4300580000000  0.4701470000000 1.0
C      1  0.5535190000000  0.4599970000000  0.4999770000000 1.0
C      1  0.4447610000000  0.4600010000000  0.5000320000000 1.0
C      1  0.4353570000000  0.4876630000000  0.4976350000000 1.0
C      1  0.5628780000000  0.4876710000000  0.4975770000000 1.0
C      1  0.4991260000000  0.5771170000000  0.5303320000000 1.0
C      1  0.4990640000000  0.5663960000000  0.4678840000000 1.0
C      1  0.4991620000000  0.4269970000000  0.5341520000000 1.0
C      1  0.4991380000000  0.4397330000000  0.4790380000000 1.0
C      1  0.4992080000000  0.5035950000000  0.5920170000000 1.0
C      1  0.4990770000000  0.4824590000000  0.3975520000000 1.0
C      1  0.4991580000000  0.6291920000000  0.5438040000000 1.0
C      1  0.4991300000000  0.4796380000000  0.5101650000000 1.0
C      1  0.4991510000000  0.4521610000000  0.5052170000000 1.0
C      1  0.4991420000000  0.6036420000000  0.5370680000000 1.0
C      1  0.4991350000000  0.5053120000000  0.5210760000000 1.0
C      1  0.4991730000000  0.6539650000000  0.5501430000000 1.0
END
