TITL C-38187-2739-480 1.35839038336156e-05 125000 -372.669669727064 0 0 60 (C1) n - 1
REM
REM in /home/bkarasulu/CARBON/AIRSS/Generating-Clusters/EDIP-Nigel-Params/Higher-Symm/Box-15A/Only-C60/SD-CG/FIRE-HFTN
REM
REM
REM
REM
REM
REM ./C.cell (414f73aa93bd7a1190c7fd0f31ff2f98)
REM
REM compiler GCC version 9.2.1 20190827 (Red Hat 9.2.1-1)
REM options -cpp -mtune=generic -march=x86-64 -g -O0 -fpre-include=/usr/include/finclude/math-vector-fortran.h
REM seed 1732027037 -785950398 2064237894 945636805 1501103058 1219204349 1416678423 -21834513 202670127 1138736577 1009571799 -1247822153 -973276730 -155041480 -718982405 540437993 1662607697 1386097846 54496811 -11801928 1984033944 445873573 330009258 -1654438118 -339449007 -1521079146 156482102 -139253389 -308301892 -1229817062 1406070827 -1543993695 -2002731538
REM
CELL 1.54180   50.00000   50.00000   50.00000   90.00000   90.00000   90.00000
LATT -1
SFAC C  
C      1  0.5253700000000  0.4188680000000  0.4764550000000 1.0
C      1  0.4529610000000  0.4326420000000  0.4804090000000 1.0
C      1  0.4196220000000  0.4946530000000  0.4674250000000 1.0
C      1  0.4443250000000  0.5605340000000  0.4646220000000 1.0
C      1  0.5115480000000  0.5855060000000  0.4698430000000 1.0
C      1  0.5717240000000  0.5460730000000  0.4750410000000 1.0
C      1  0.5720310000000  0.4745680000000  0.4699370000000 1.0
C      1  0.4996810000000  0.4215250000000  0.4878850000000 1.0
C      1  0.4372380000000  0.4548850000000  0.4870960000000 1.0
C      1  0.4302390000000  0.5171330000000  0.4800380000000 1.0
C      1  0.4673450000000  0.5687530000000  0.4782070000000 1.0
C      1  0.5331670000000  0.5734590000000  0.4832820000000 1.0
C      1  0.5744220000000  0.5199550000000  0.4852090000000 1.0
C      1  0.5568490000000  0.4552980000000  0.4835810000000 1.0
C      1  0.4708240000000  0.5270970000000  0.5419010000000 1.0
C      1  0.4982140000000  0.5391420000000  0.5400760000000 1.0
C      1  0.5241910000000  0.5243230000000  0.5400980000000 1.0
C      1  0.5329990000000  0.4956520000000  0.5456870000000 1.0
C      1  0.5113730000000  0.4744380000000  0.5402310000000 1.0
C      1  0.4875470000000  0.4836030000000  0.5233040000000 1.0
C      1  0.4670460000000  0.4969280000000  0.5425170000000 1.0
C      1  0.5288310000000  0.5150760000000  0.5916570000000 1.0
C      1  0.5390000000000  0.4924200000000  0.5757360000000 1.0
C      1  0.5200190000000  0.4718540000000  0.5873930000000 1.0
C      1  0.4995910000000  0.4662110000000  0.5663800000000 1.0
C      1  0.4747180000000  0.4834000000000  0.5701570000000 1.0
C      1  0.4807020000000  0.5012120000000  0.5936720000000 1.0
C      1  0.5010980000000  0.5224540000000  0.5892680000000 1.0
C      1  0.5280260000000  0.5346320000000  0.4558590000000 1.0
C      1  0.5377460000000  0.5072890000000  0.4579520000000 1.0
C      1  0.5158750000000  0.4621740000000  0.4569150000000 1.0
C      1  0.4871210000000  0.4576910000000  0.4574130000000 1.0
C      1  0.4672320000000  0.4805670000000  0.4534880000000 1.0
C      1  0.4763710000000  0.5188990000000  0.4551830000000 1.0
C      1  0.4987900000000  0.5404270000000  0.4552960000000 1.0
C      1  0.4559130000000  0.5373660000000  0.5185560000000 1.0
C      1  0.4987070000000  0.5594680000000  0.5185290000000 1.0
C      1  0.5417990000000  0.5371240000000  0.5208060000000 1.0
C      1  0.5536920000000  0.4895600000000  0.5233930000000 1.0
C      1  0.5233090000000  0.4519030000000  0.5238370000000 1.0
C      1  0.4761620000000  0.4575390000000  0.5153480000000 1.0
C      1  0.4407210000000  0.4914540000000  0.5257930000000 1.0
C      1  0.4744460000000  0.5538930000000  0.5030050000000 1.0
C      1  0.5247120000000  0.5557600000000  0.5056270000000 1.0
C      1  0.5560300000000  0.5149160000000  0.5081740000000 1.0
C      1  0.5438330000000  0.4661010000000  0.5081160000000 1.0
C      1  0.4988220000000  0.4396860000000  0.5117070000000 1.0
C      1  0.4387720000000  0.4638260000000  0.5152830000000 1.0
C      1  0.4431510000000  0.5140010000000  0.5063600000000 1.0
C      1  0.4473000000000  0.5327010000000  0.4615610000000 1.0
C      1  0.4908170000000  0.5689100000000  0.4600710000000 1.0
C      1  0.5475220000000  0.5559650000000  0.4642900000000 1.0
C      1  0.5661750000000  0.5013290000000  0.4638110000000 1.0
C      1  0.5365960000000  0.4423570000000  0.4656130000000 1.0
C      1  0.4785920000000  0.4317840000000  0.4690370000000 1.0
C      1  0.4403500000000  0.4759480000000  0.4668840000000 1.0
C      1  0.4961590000000  0.4988870000000  0.4703180000000 1.0
C      1  0.5232110000000  0.4869430000000  0.4453400000000 1.0
C      1  0.5055880000000  0.4884870000000  0.6076350000000 1.0
C      1  0.4946630000000  0.4979690000000  0.4990770000000 1.0
END
