TITL C-38191-7580-468 -2.85695116522555e-06 125000 -357.475925500471 0 0 60 (C4) n - 1
REM
REM in /home/bkarasulu/CARBON/AIRSS/Generating-Clusters/EDIP-Nigel-Params/Higher-Symm/Box-15A/Only-C60/SD-CG/FIRE-HFTN
REM
REM
REM
REM
REM
REM ./C.cell (414f73aa93bd7a1190c7fd0f31ff2f98)
REM
REM compiler GCC version 9.2.1 20190827 (Red Hat 9.2.1-1)
REM options -cpp -mtune=generic -march=x86-64 -g -O0 -fpre-include=/usr/include/finclude/math-vector-fortran.h
REM seed 927532596 -1979065360 -938641480 -1390507578 -858275052 -507824314 1005106447 -639678338 805706756 451503020 -2097231730 -1781002023 1455394477 -529248138 -1163779894 1923138921 649119918 -2055171638 186702177 1802293631 -270745419 890036180 -500702739 679861869 -950038266 620942643 -1935574988 -898126504 -740892098 -1214799701 1993012451 1963230944 983275646
REM
CELL 1.54180   50.00000   50.00000   50.00000   90.00000   90.00000   90.00000
LATT -1
SFAC C  
C      1  0.5138190000000  0.5733010000000  0.4878420000000 1.0
C      1  0.5138190000000  0.4878420000000  0.4266990000000 1.0
C      1  0.5138190000000  0.4266990000000  0.5121580000000 1.0
C      1  0.5138190000000  0.5121580000000  0.5733010000000 1.0
C      1  0.4984560000000  0.4640010000000  0.4307690000000 1.0
C      1  0.4984560000000  0.4307690000000  0.5359990000000 1.0
C      1  0.4984560000000  0.5359990000000  0.5692310000000 1.0
C      1  0.4984560000000  0.5692310000000  0.4640010000000 1.0
C      1  0.5407720000000  0.5621980000000  0.5129690000000 1.0
C      1  0.5407720000000  0.5129690000000  0.4378020000000 1.0
C      1  0.5407720000000  0.4378020000000  0.4870310000000 1.0
C      1  0.5407720000000  0.4870310000000  0.5621980000000 1.0
C      1  0.4739280000000  0.5308140000000  0.5554550000000 1.0
C      1  0.4739280000000  0.5554550000000  0.4691860000000 1.0
C      1  0.4739280000000  0.4691860000000  0.4445450000000 1.0
C      1  0.4739280000000  0.4445450000000  0.5308140000000 1.0
C      1  0.5104690000000  0.4408020000000  0.4414690000000 1.0
C      1  0.5104690000000  0.4414690000000  0.5591980000000 1.0
C      1  0.5104690000000  0.5591980000000  0.5585310000000 1.0
C      1  0.5104690000000  0.5585310000000  0.4408020000000 1.0
C      1  0.4689950000000  0.4648060000000  0.5505910000000 1.0
C      1  0.4689950000000  0.5505910000000  0.5351940000000 1.0
C      1  0.4689950000000  0.5351940000000  0.4494090000000 1.0
C      1  0.4689950000000  0.4494090000000  0.4648060000000 1.0
C      1  0.4611530000000  0.4607730000000  0.4914890000000 1.0
C      1  0.4611530000000  0.4914890000000  0.5392270000000 1.0
C      1  0.4611530000000  0.5392270000000  0.5085110000000 1.0
C      1  0.4611530000000  0.5085110000000  0.4607730000000 1.0
C      1  0.4875390000000  0.4770620000000  0.4967420000000 1.0
C      1  0.4875390000000  0.4967420000000  0.5229380000000 1.0
C      1  0.4875390000000  0.5229380000000  0.5032580000000 1.0
C      1  0.4875390000000  0.5032580000000  0.4770620000000 1.0
C      1  0.5277070000000  0.5125800000000  0.5182380000000 1.0
C      1  0.5277070000000  0.5182380000000  0.4874200000000 1.0
C      1  0.5277070000000  0.4874200000000  0.4817620000000 1.0
C      1  0.5277070000000  0.4817620000000  0.5125800000000 1.0
C      1  0.5117910000000  0.5527450000000  0.5099530000000 1.0
C      1  0.5117910000000  0.5099530000000  0.4472550000000 1.0
C      1  0.5117910000000  0.4472550000000  0.4900470000000 1.0
C      1  0.5117910000000  0.4900470000000  0.5527450000000 1.0
C      1  0.4369060000000  0.5067790000000  0.4790700000000 1.0
C      1  0.4369060000000  0.4790700000000  0.4932210000000 1.0
C      1  0.4369060000000  0.4932210000000  0.5209300000000 1.0
C      1  0.4369060000000  0.5209300000000  0.5067790000000 1.0
C      1  0.4962430000000  0.4370870000000  0.4659550000000 1.0
C      1  0.4962430000000  0.4659550000000  0.5629130000000 1.0
C      1  0.4962430000000  0.5629130000000  0.5340450000000 1.0
C      1  0.4962430000000  0.5340450000000  0.4370870000000 1.0
C      1  0.5536500000000  0.4793150000000  0.4703440000000 1.0
C      1  0.5536500000000  0.4703440000000  0.5206850000000 1.0
C      1  0.5536500000000  0.5206850000000  0.5296560000000 1.0
C      1  0.5536500000000  0.5296560000000  0.4793150000000 1.0
C      1  0.5618560000000  0.4571520000000  0.4867240000000 1.0
C      1  0.5618560000000  0.4867240000000  0.5428480000000 1.0
C      1  0.5618560000000  0.5428480000000  0.5132760000000 1.0
C      1  0.5618560000000  0.5132760000000  0.4571520000000 1.0
C      1  0.4567170000000  0.5098200000000  0.5613490000000 1.0
C      1  0.4567170000000  0.5613490000000  0.4901800000000 1.0
C      1  0.4567170000000  0.4901800000000  0.4386510000000 1.0
C      1  0.4567170000000  0.4386510000000  0.5098200000000 1.0
END
