TITL C-38192-7909-131 1.4540397468322e-06 125000 -366.125424038944 0 0 60 (C1) n - 1
REM
REM in /home/bkarasulu/CARBON/AIRSS/Generating-Clusters/EDIP-Nigel-Params/Higher-Symm/Box-15A/Only-C60/SD-CG/FIRE-HFTN
REM
REM
REM
REM
REM
REM ./C.cell (414f73aa93bd7a1190c7fd0f31ff2f98)
REM
REM compiler GCC version 9.2.1 20190827 (Red Hat 9.2.1-1)
REM options -cpp -mtune=generic -march=x86-64 -g -O0 -fpre-include=/usr/include/finclude/math-vector-fortran.h
REM seed -816338755 329731154 -1430817455 349096125 9839423 -229841110 -637676532 1196403930 686815452 -388010497 -1753731461 -538967372 701546674 1499459340 -1991550782 -404165882 368466058 1535048266 1222632815 924950293 -554617496 1713826119 -1382350165 -369684657 -1992490980 220199019 1501397842 749415802 -1280463814 421590073 420293871 520829894 -653584643
REM
CELL 1.54180   50.00000   50.00000   50.00000   90.00000   90.00000   90.00000
LATT -1
SFAC C  
C      1  0.4630770000000  0.5145140000000  0.5363130000000 1.0
C      1  0.4787530000000  0.5144420000000  0.4491520000000 1.0
C      1  0.5637930000000  0.5152920000000  0.5101460000000 1.0
C      1  0.4624800000000  0.4842930000000  0.5372900000000 1.0
C      1  0.4771170000000  0.4836510000000  0.4479690000000 1.0
C      1  0.5596280000000  0.4852170000000  0.5102090000000 1.0
C      1  0.5022180000000  0.5692330000000  0.5116110000000 1.0
C      1  0.4909740000000  0.5560090000000  0.4879070000000 1.0
C      1  0.5315850000000  0.5692820000000  0.5070440000000 1.0
C      1  0.5005510000000  0.4276730000000  0.5100080000000 1.0
C      1  0.4891260000000  0.4420430000000  0.4870170000000 1.0
C      1  0.5312890000000  0.4307520000000  0.5056750000000 1.0
C      1  0.4977610000000  0.5161660000000  0.5724230000000 1.0
C      1  0.4308440000000  0.5144210000000  0.4666890000000 1.0
C      1  0.5677120000000  0.5149070000000  0.4582030000000 1.0
C      1  0.5008510000000  0.4854360000000  0.5695710000000 1.0
C      1  0.4303480000000  0.4844220000000  0.4670360000000 1.0
C      1  0.5687660000000  0.4844690000000  0.4593220000000 1.0
C      1  0.5030970000000  0.4684840000000  0.4440720000000 1.0
C      1  0.5443890000000  0.4726200000000  0.5320790000000 1.0
C      1  0.4415190000000  0.4691290000000  0.5221610000000 1.0
C      1  0.5062020000000  0.5275320000000  0.4496670000000 1.0
C      1  0.5552020000000  0.5308950000000  0.5348880000000 1.0
C      1  0.4422950000000  0.5296590000000  0.5216660000000 1.0
C      1  0.5360860000000  0.5138670000000  0.5505440000000 1.0
C      1  0.4200780000000  0.5145770000000  0.5095870000000 1.0
C      1  0.5269270000000  0.5148710000000  0.4321690000000 1.0
C      1  0.5439670000000  0.4861680000000  0.5574660000000 1.0
C      1  0.4195780000000  0.4847400000000  0.5099450000000 1.0
C      1  0.5273990000000  0.4868400000000  0.4436260000000 1.0
C      1  0.5249150000000  0.5261370000000  0.5756460000000 1.0
C      1  0.4110890000000  0.5251990000000  0.4845750000000 1.0
C      1  0.5534670000000  0.5241320000000  0.4352790000000 1.0
C      1  0.5265990000000  0.4758260000000  0.5771610000000 1.0
C      1  0.4103640000000  0.4742180000000  0.4850100000000 1.0
C      1  0.5537650000000  0.4744750000000  0.4366200000000 1.0
C      1  0.4482710000000  0.5539400000000  0.5079630000000 1.0
C      1  0.5101190000000  0.5539700000000  0.4657070000000 1.0
C      1  0.5394430000000  0.5558460000000  0.5315970000000 1.0
C      1  0.4469860000000  0.4446350000000  0.5082990000000 1.0
C      1  0.5088490000000  0.4474820000000  0.4659250000000 1.0
C      1  0.5344590000000  0.4446690000000  0.5327790000000 1.0
C      1  0.4602160000000  0.4441440000000  0.4829940000000 1.0
C      1  0.5362430000000  0.4471480000000  0.4801810000000 1.0
C      1  0.5030620000000  0.4422440000000  0.5379380000000 1.0
C      1  0.4621920000000  0.5538870000000  0.4831120000000 1.0
C      1  0.5374610000000  0.5561900000000  0.4803120000000 1.0
C      1  0.5014620000000  0.5557030000000  0.5381120000000 1.0
C      1  0.5250400000000  0.5184560000000  0.4821900000000 1.0
C      1  0.5123100000000  0.5132290000000  0.5305740000000 1.0
C      1  0.4715190000000  0.5121520000000  0.4930250000000 1.0
C      1  0.5272320000000  0.4902320000000  0.4740360000000 1.0
C      1  0.5043170000000  0.4880350000000  0.5214330000000 1.0
C      1  0.4713690000000  0.4854260000000  0.4936790000000 1.0
C      1  0.4910110000000  0.4732750000000  0.5424190000000 1.0
C      1  0.4586360000000  0.4729220000000  0.4705770000000 1.0
C      1  0.5512910000000  0.4752090000000  0.4829160000000 1.0
C      1  0.4903010000000  0.5273100000000  0.5446050000000 1.0
C      1  0.4594770000000  0.5253220000000  0.4704720000000 1.0
C      1  0.5549220000000  0.5269820000000  0.4834090000000 1.0
END
