TITL C-38195-9455-468 4.19194096826827e-06 125000 -347.921623733875 0 0 60 (C4h) n - 1
REM
REM in /home/bkarasulu/CARBON/AIRSS/Generating-Clusters/EDIP-Nigel-Params/Higher-Symm/Box-15A/Only-C60/SD-CG/FIRE-HFTN
REM
REM
REM
REM
REM
REM ./C.cell (414f73aa93bd7a1190c7fd0f31ff2f98)
REM
REM compiler GCC version 9.2.1 20190827 (Red Hat 9.2.1-1)
REM options -cpp -mtune=generic -march=x86-64 -g -O0 -fpre-include=/usr/include/finclude/math-vector-fortran.h
REM seed 1059877655 -2081145173 -199626702 774573971 -185142745 -299077814 809177269 -1041757568 1307991896 -55293690 2079494059 -1241868728 -238685919 2039367870 -2100953 1654494402 -1903242383 -1077381916 -1682134388 -545077041 -267172376 1479588734 -440446239 -1538280085 2120959168 744274185 926935564 1990850091 1252642406 44740966 974323835 662139762 -1334204797
REM
CELL 1.54180   50.00000   50.00000   50.00000   90.00000   90.00000   90.00000
LATT -1
SFAC C  
C      1  0.4708830000000  0.5213290000000  0.5513730000000 1.0
C      1  0.4786710000000  0.4708830000000  0.5513730000000 1.0
C      1  0.5291170000000  0.4786710000000  0.5513730000000 1.0
C      1  0.5213290000000  0.5291170000000  0.5513730000000 1.0
C      1  0.4708830000000  0.5213290000000  0.4480400000000 1.0
C      1  0.4786710000000  0.4708830000000  0.4480400000000 1.0
C      1  0.5291170000000  0.4786710000000  0.4480400000000 1.0
C      1  0.5213290000000  0.5291170000000  0.4480400000000 1.0
C      1  0.5660610000000  0.4622720000000  0.4846040000000 1.0
C      1  0.5377280000000  0.5660610000000  0.4846040000000 1.0
C      1  0.4339390000000  0.5377280000000  0.4846040000000 1.0
C      1  0.4622720000000  0.4339390000000  0.4846040000000 1.0
C      1  0.5660610000000  0.4622720000000  0.5148090000000 1.0
C      1  0.5377280000000  0.5660610000000  0.5148090000000 1.0
C      1  0.4339390000000  0.5377280000000  0.5148090000000 1.0
C      1  0.4622720000000  0.4339390000000  0.5148090000000 1.0
C      1  0.5132840000000  0.4404930000000  0.4718300000000 1.0
C      1  0.5595070000000  0.5132840000000  0.4718300000000 1.0
C      1  0.4867160000000  0.5595070000000  0.4718300000000 1.0
C      1  0.4404930000000  0.4867160000000  0.4718300000000 1.0
C      1  0.5132840000000  0.4404930000000  0.5275830000000 1.0
C      1  0.5595070000000  0.5132840000000  0.5275830000000 1.0
C      1  0.4867160000000  0.5595070000000  0.5275830000000 1.0
C      1  0.4404930000000  0.4867160000000  0.5275830000000 1.0
C      1  0.5748230000000  0.4919560000000  0.4839720000000 1.0
C      1  0.5080440000000  0.5748230000000  0.4839720000000 1.0
C      1  0.4251770000000  0.5080440000000  0.4839720000000 1.0
C      1  0.4919560000000  0.4251770000000  0.4839720000000 1.0
C      1  0.5748230000000  0.4919560000000  0.5154410000000 1.0
C      1  0.5080440000000  0.5748230000000  0.5154410000000 1.0
C      1  0.4251770000000  0.5080440000000  0.5154410000000 1.0
C      1  0.4919560000000  0.4251770000000  0.5154410000000 1.0
C      1  0.4811810000000  0.5124500000000  0.4745830000000 1.0
C      1  0.4875500000000  0.4811810000000  0.4745830000000 1.0
C      1  0.5188190000000  0.4875500000000  0.4745830000000 1.0
C      1  0.5124500000000  0.5188190000000  0.4745830000000 1.0
C      1  0.4811810000000  0.5124500000000  0.5248300000000 1.0
C      1  0.4875500000000  0.4811810000000  0.5248300000000 1.0
C      1  0.5188190000000  0.4875500000000  0.5248300000000 1.0
C      1  0.5124500000000  0.5188190000000  0.5248300000000 1.0
C      1  0.5499000000000  0.5215330000000  0.4453150000000 1.0
C      1  0.4784670000000  0.5499000000000  0.4453150000000 1.0
C      1  0.4501000000000  0.4784670000000  0.4453150000000 1.0
C      1  0.5215330000000  0.4501000000000  0.4453150000000 1.0
C      1  0.5499000000000  0.5215330000000  0.5540980000000 1.0
C      1  0.4784670000000  0.5499000000000  0.5540980000000 1.0
C      1  0.4501000000000  0.4784670000000  0.5540980000000 1.0
C      1  0.5215330000000  0.4501000000000  0.5540980000000 1.0
C      1  0.4472600000000  0.5071810000000  0.5600710000000 1.0
C      1  0.4928190000000  0.4472600000000  0.5600710000000 1.0
C      1  0.5527400000000  0.4928190000000  0.5600710000000 1.0
C      1  0.5071810000000  0.5527400000000  0.5600710000000 1.0
C      1  0.4472600000000  0.5071810000000  0.4393420000000 1.0
C      1  0.4928190000000  0.4472600000000  0.4393420000000 1.0
C      1  0.5527400000000  0.4928190000000  0.4393420000000 1.0
C      1  0.5071810000000  0.5527400000000  0.4393420000000 1.0
C      1  0.5354360000000  0.4790730000000  0.4997060000000 1.0
C      1  0.5209270000000  0.5354360000000  0.4997060000000 1.0
C      1  0.4645640000000  0.5209270000000  0.4997060000000 1.0
C      1  0.4790730000000  0.4645640000000  0.4997060000000 1.0
END
