TITL C-38198-1686-239 -6.05001996697222e-05 125000 -365.993117037373 0 0 60 (C5) n - 1
REM
REM in /home/bkarasulu/CARBON/AIRSS/Generating-Clusters/EDIP-Nigel-Params/Higher-Symm/Box-15A/Only-C60/SD-CG/FIRE-HFTN
REM
REM
REM
REM
REM
REM ./C.cell (414f73aa93bd7a1190c7fd0f31ff2f98)
REM
REM compiler GCC version 9.2.1 20190827 (Red Hat 9.2.1-1)
REM options -cpp -mtune=generic -march=x86-64 -g -O0 -fpre-include=/usr/include/finclude/math-vector-fortran.h
REM seed -594728978 1773719 2138703318 2098816010 -493542582 -60829011 566472408 282384153 1378263685 -1375944255 1883576707 -1498159298 1229250318 629063829 -828618650 57043844 1894698482 974213978 -44190414 1584742803 1618774279 631167094 -1423057073 1986704305 916331979 1148358536 839362962 764697775 210049067 -453223163 1887544944 -1493021443 384369623
REM
CELL 1.54180   50.00000   50.00000   50.00000   90.00000   90.00000   90.00000
LATT -1
SFAC C  
C      1  0.5622100000000  0.5432570000000  0.5142910000000 1.0
C      1  0.5056320000000  0.5432570000000  0.5635820000000 1.0
C      1  0.4412710000000  0.5432570000000  0.5250040000000 1.0
C      1  0.4580710000000  0.5432570000000  0.4518720000000 1.0
C      1  0.5328160000000  0.5432570000000  0.4452510000000 1.0
C      1  0.4700200000000  0.5085590000000  0.4920880000000 1.0
C      1  0.4982610000000  0.5085590000000  0.4690430000000 1.0
C      1  0.5289050000000  0.5085590000000  0.4887790000000 1.0
C      1  0.5196040000000  0.5085590000000  0.5240230000000 1.0
C      1  0.4832110000000  0.5085590000000  0.5260670000000 1.0
C      1  0.4641550000000  0.4975170000000  0.5496880000000 1.0
C      1  0.4416670000000  0.4975170000000  0.4812630000000 1.0
C      1  0.4997940000000  0.4975170000000  0.4387320000000 1.0
C      1  0.5582050000000  0.4975170000000  0.4808710000000 1.0
C      1  0.5361790000000  0.4975170000000  0.5494450000000 1.0
C      1  0.5471230000000  0.5486120000000  0.4913730000000 1.0
C      1  0.5227670000000  0.5486120000000  0.5421510000000 1.0
C      1  0.4669480000000  0.5486120000000  0.5346780000000 1.0
C      1  0.4568060000000  0.5486120000000  0.4792810000000 1.0
C      1  0.5063570000000  0.5486120000000  0.4525170000000 1.0
C      1  0.5029680000000  0.5663750000000  0.4751520000000 1.0
C      1  0.5245500000000  0.5663750000000  0.4951450000000 1.0
C      1  0.5122040000000  0.5663750000000  0.5218480000000 1.0
C      1  0.4829930000000  0.5663750000000  0.5183580000000 1.0
C      1  0.4772850000000  0.5663750000000  0.4894980000000 1.0
C      1  0.4387080000000  0.4662630000000  0.4847280000000 1.0
C      1  0.4955840000000  0.4662630000000  0.4369890000000 1.0
C      1  0.5585630000000  0.4662630000000  0.4763280000000 1.0
C      1  0.5406100000000  0.4662630000000  0.5483810000000 1.0
C      1  0.4665360000000  0.4662630000000  0.5535730000000 1.0
C      1  0.4586080000000  0.4483600000000  0.4682730000000 1.0
C      1  0.5173830000000  0.4483600000000  0.4508300000000 1.0
C      1  0.5521350000000  0.4483600000000  0.5013380000000 1.0
C      1  0.5148380000000  0.4483600000000  0.5499970000000 1.0
C      1  0.4570350000000  0.4483600000000  0.5295620000000 1.0
C      1  0.4744390000000  0.4754300000000  0.4990790000000 1.0
C      1  0.4929770000000  0.4754300000000  0.4754060000000 1.0
C      1  0.5212210000000  0.4754300000000  0.4857210000000 1.0
C      1  0.5201380000000  0.4754300000000  0.5157700000000 1.0
C      1  0.4912250000000  0.4754300000000  0.5240250000000 1.0
C      1  0.4662970000000  0.5156640000000  0.5710900000000 1.0
C      1  0.4219750000000  0.5156640000000  0.4899140000000 1.0
C      1  0.4854810000000  0.5156640000000  0.4226770000000 1.0
C      1  0.5690520000000  0.5156640000000  0.4622980000000 1.0
C      1  0.5571950000000  0.5156640000000  0.5540220000000 1.0
C      1  0.5495620000000  0.5381240000000  0.5387410000000 1.0
C      1  0.4784710000000  0.5381240000000  0.5591080000000 1.0
C      1  0.4371320000000  0.5381240000000  0.4977900000000 1.0
C      1  0.4826750000000  0.5381240000000  0.4395260000000 1.0
C      1  0.5521600000000  0.5381240000000  0.4648360000000 1.0
C      1  0.5256560000000  0.4341550000000  0.5004900000000 1.0
C      1  0.5074620000000  0.4341550000000  0.5245520000000 1.0
C      1  0.4789560000000  0.4341550000000  0.5146840000000 1.0
C      1  0.4795320000000  0.4341550000000  0.4845240000000 1.0
C      1  0.5083940000000  0.4341550000000  0.4757510000000 1.0
C      1  0.5582350000000  0.4576830000000  0.5271490000000 1.0
C      1  0.4921750000000  0.4576830000000  0.5637740000000 1.0
C      1  0.4369290000000  0.4576830000000  0.5122650000000 1.0
C      1  0.4688450000000  0.4576830000000  0.4438060000000 1.0
C      1  0.5438160000000  0.4576830000000  0.4530050000000 1.0
END
