TITL C-38186-4112-246 0.179349654965683 125000 -357.688305539801 0 0 60 (C1) n - 1
REM
REM in /home/bkarasulu/CARBON/AIRSS/Generating-Clusters/EDIP-Nigel-Params/Higher-Symm/Box-15A/Only-C60/SD-CG/FIRE-HFTN
REM
REM
REM
REM
REM
REM ./C.cell (414f73aa93bd7a1190c7fd0f31ff2f98)
REM
REM compiler GCC version 9.2.1 20190827 (Red Hat 9.2.1-1)
REM options -cpp -mtune=generic -march=x86-64 -g -O0 -fpre-include=/usr/include/finclude/math-vector-fortran.h
REM seed 1648955830 -1700728066 254037561 1393633991 -1507137322 -830562358 -2067514141 -84784892 957526187 -2020957985 944331239 1404661454 -82401344 271938678 237645123 1865644368 -1118500152 55315776 331627642 1561554825 1839250693 -462493914 689609548 -133661956 -590849647 -2060062302 -1730348328 -734867165 -331859020 -1466993826 343640270 1577219255 1904181842
REM
CELL 1.54180   50.00000   50.00000   50.00000   90.00000   90.00000   90.00000
LATT -1
SFAC C  
C      1  0.5506630000000  0.4838450000000  0.4331910000000 1.0
C      1  0.5418560000000  0.5324680000000  0.5498470000000 1.0
C      1  0.4343960000000  0.5386780000000  0.5221640000000 1.0
C      1  0.4539100000000  0.5520450000000  0.5077030000000 1.0
C      1  0.5713380000000  0.4541000000000  0.5445640000000 1.0
C      1  0.5449810000000  0.4631540000000  0.5420450000000 1.0
C      1  0.5116810000000  0.5124580000000  0.4309450000000 1.0
C      1  0.3946760000000  0.4951630000000  0.5398830000000 1.0
C      1  0.5844490000000  0.4702000000000  0.4971440000000 1.0
C      1  0.5378890000000  0.5380150000000  0.4848480000000 1.0
C      1  0.4367290000000  0.5178420000000  0.4481450000000 1.0
C      1  0.5131990000000  0.4438200000000  0.4574680000000 1.0
C      1  0.4775680000000  0.4992260000000  0.4608070000000 1.0
C      1  0.5799270000000  0.5103910000000  0.4713350000000 1.0
C      1  0.5277200000000  0.4704670000000  0.5644940000000 1.0
C      1  0.5100920000000  0.5008410000000  0.5044060000000 1.0
C      1  0.4785600000000  0.5373470000000  0.5645170000000 1.0
C      1  0.5559600000000  0.4714990000000  0.4574070000000 1.0
C      1  0.4928960000000  0.4398740000000  0.5475000000000 1.0
C      1  0.4360600000000  0.5395190000000  0.4639880000000 1.0
C      1  0.4541680000000  0.5541670000000  0.4789980000000 1.0
C      1  0.4786830000000  0.5617780000000  0.4656720000000 1.0
C      1  0.4654320000000  0.4933270000000  0.4163740000000 1.0
C      1  0.4357970000000  0.5214110000000  0.5438880000000 1.0
C      1  0.5327930000000  0.4948180000000  0.5769610000000 1.0
C      1  0.4911740000000  0.4241800000000  0.5258540000000 1.0
C      1  0.4996900000000  0.4629990000000  0.5613640000000 1.0
C      1  0.4945490000000  0.5765550000000  0.5077290000000 1.0
C      1  0.4737070000000  0.5662580000000  0.5224090000000 1.0
C      1  0.5683970000000  0.5345440000000  0.4787750000000 1.0
C      1  0.4673110000000  0.4664430000000  0.4091390000000 1.0
C      1  0.4605920000000  0.5162980000000  0.5572090000000 1.0
C      1  0.4789570000000  0.4444150000000  0.4188630000000 1.0
C      1  0.4955060000000  0.4194320000000  0.4999110000000 1.0
C      1  0.4937100000000  0.4271220000000  0.4731700000000 1.0
C      1  0.5371380000000  0.5047510000000  0.4232840000000 1.0
C      1  0.3709200000000  0.4921130000000  0.5308440000000 1.0
C      1  0.4576600000000  0.4915030000000  0.5714520000000 1.0
C      1  0.5029100000000  0.5309800000000  0.5757400000000 1.0
C      1  0.4800710000000  0.4758630000000  0.5761300000000 1.0
C      1  0.4797140000000  0.5626810000000  0.4391850000000 1.0
C      1  0.5845550000000  0.4599650000000  0.5218950000000 1.0
C      1  0.5195050000000  0.5139410000000  0.4819640000000 1.0
C      1  0.5299700000000  0.4566270000000  0.5182310000000 1.0
C      1  0.5430910000000  0.4459220000000  0.4959270000000 1.0
C      1  0.5263610000000  0.5628600000000  0.4758410000000 1.0
C      1  0.5704320000000  0.5414840000000  0.5066430000000 1.0
C      1  0.5038400000000  0.5080070000000  0.4583040000000 1.0
C      1  0.4902570000000  0.5064920000000  0.4141800000000 1.0
C      1  0.4772260000000  0.5601550000000  0.5490630000000 1.0
C      1  0.5506290000000  0.5393300000000  0.5255100000000 1.0
C      1  0.5007370000000  0.5723610000000  0.4810950000000 1.0
C      1  0.5387920000000  0.4515160000000  0.4690080000000 1.0
C      1  0.5099360000000  0.4751540000000  0.5122310000000 1.0
C      1  0.4552350000000  0.4973640000000  0.4439660000000 1.0
C      1  0.4211800000000  0.4969590000000  0.5466210000000 1.0
C      1  0.4331120000000  0.4792780000000  0.5649350000000 1.0
C      1  0.5284600000000  0.5216090000000  0.5713410000000 1.0
C      1  0.5763710000000  0.4830940000000  0.4739740000000 1.0
C      1  0.4868780000000  0.4352900000000  0.4439220000000 1.0
END
