TITL C-38194-9318-420 -2.43512466116362e-06 125000 -369.787368803261 0 0 60 (C1) n - 1
REM
REM in /home/bkarasulu/CARBON/AIRSS/Generating-Clusters/EDIP-Nigel-Params/Higher-Symm/Box-15A/Only-C60/SD-CG/FIRE-HFTN
REM
REM
REM
REM
REM
REM ./C.cell (414f73aa93bd7a1190c7fd0f31ff2f98)
REM
REM compiler GCC version 9.2.1 20190827 (Red Hat 9.2.1-1)
REM options -cpp -mtune=generic -march=x86-64 -g -O0 -fpre-include=/usr/include/finclude/math-vector-fortran.h
REM seed 1111664696 441975635 936749057 705071718 1141166556 1560021438 -1196058618 155495889 1961558992 -1897181233 1607691220 -2021747196 1556342400 -1484414585 1411906496 225651930 1253545893 131392063 236985930 -23255624 1097937561 -166112779 556218183 1369746883 -691970560 -2091665463 1320391302 -1768761903 21911189 -2145547264 1242617925 705712340 1550281110
REM
CELL 1.54180   50.00000   50.00000   50.00000   90.00000   90.00000   90.00000
LATT -1
SFAC C  
C      1  0.5685580000000  0.5314710000000  0.4972800000000 1.0
C      1  0.5401920000000  0.4966440000000  0.5785740000000 1.0
C      1  0.4830390000000  0.5799830000000  0.5394950000000 1.0
C      1  0.4220480000000  0.4703130000000  0.4843890000000 1.0
C      1  0.5767740000000  0.4570130000000  0.5032920000000 1.0
C      1  0.4197860000000  0.5286810000000  0.5145660000000 1.0
C      1  0.4675490000000  0.5152100000000  0.5662130000000 1.0
C      1  0.5329150000000  0.5167740000000  0.4123030000000 1.0
C      1  0.4691460000000  0.4880610000000  0.4335690000000 1.0
C      1  0.5175950000000  0.4262240000000  0.5209120000000 1.0
C      1  0.4880400000000  0.4226410000000  0.4608230000000 1.0
C      1  0.5141020000000  0.5727430000000  0.4797250000000 1.0
C      1  0.5725520000000  0.5197680000000  0.5218610000000 1.0
C      1  0.5372590000000  0.4911770000000  0.4214780000000 1.0
C      1  0.4889640000000  0.5647960000000  0.4717910000000 1.0
C      1  0.4263960000000  0.4641160000000  0.5108920000000 1.0
C      1  0.5769130000000  0.4690530000000  0.4785470000000 1.0
C      1  0.4240880000000  0.5353400000000  0.4881640000000 1.0
C      1  0.4743780000000  0.5139220000000  0.4257890000000 1.0
C      1  0.5296540000000  0.5208580000000  0.5861830000000 1.0
C      1  0.4771470000000  0.4902850000000  0.5730590000000 1.0
C      1  0.5125040000000  0.4100650000000  0.4622610000000 1.0
C      1  0.4932630000000  0.4370690000000  0.5278860000000 1.0
C      1  0.5091150000000  0.5887610000000  0.5380000000000 1.0
C      1  0.4745050000000  0.4249630000000  0.4847060000000 1.0
C      1  0.4255940000000  0.4882650000000  0.4637850000000 1.0
C      1  0.4898720000000  0.4684470000000  0.4330700000000 1.0
C      1  0.5352930000000  0.5743690000000  0.4972530000000 1.0
C      1  0.4703730000000  0.5762540000000  0.5153130000000 1.0
C      1  0.5386930000000  0.4193770000000  0.5045650000000 1.0
C      1  0.5706870000000  0.5155540000000  0.4749530000000 1.0
C      1  0.4241430000000  0.5109120000000  0.5351760000000 1.0
C      1  0.5800010000000  0.4734800000000  0.5250900000000 1.0
C      1  0.5140520000000  0.5355430000000  0.4142780000000 1.0
C      1  0.4831010000000  0.5384760000000  0.5717820000000 1.0
C      1  0.5219160000000  0.4762130000000  0.5756950000000 1.0
C      1  0.4710910000000  0.4352400000000  0.5100090000000 1.0
C      1  0.4213470000000  0.4841990000000  0.5290520000000 1.0
C      1  0.4956260000000  0.4700010000000  0.5702230000000 1.0
C      1  0.5300270000000  0.5859290000000  0.5216700000000 1.0
C      1  0.4668960000000  0.5664100000000  0.4898320000000 1.0
C      1  0.5322990000000  0.4085210000000  0.4800880000000 1.0
C      1  0.5750620000000  0.4974100000000  0.5377240000000 1.0
C      1  0.4215760000000  0.5148610000000  0.4698760000000 1.0
C      1  0.5716350000000  0.4909280000000  0.4627240000000 1.0
C      1  0.5076070000000  0.5355650000000  0.5838570000000 1.0
C      1  0.4889860000000  0.5372530000000  0.4255510000000 1.0
C      1  0.5149970000000  0.4751040000000  0.4239450000000 1.0
C      1  0.4427620000000  0.5549680000000  0.4831700000000 1.0
C      1  0.5618500000000  0.4341190000000  0.5064450000000 1.0
C      1  0.4851550000000  0.4430500000000  0.4425530000000 1.0
C      1  0.4469730000000  0.4467340000000  0.5164680000000 1.0
C      1  0.4447350000000  0.4823990000000  0.4448940000000 1.0
C      1  0.4853600000000  0.5547820000000  0.4464420000000 1.0
C      1  0.4905540000000  0.4499600000000  0.5520420000000 1.0
C      1  0.5552410000000  0.5554810000000  0.4956270000000 1.0
C      1  0.5580500000000  0.4873370000000  0.4390850000000 1.0
C      1  0.4430100000000  0.5175180000000  0.5540460000000 1.0
C      1  0.5621540000000  0.4968540000000  0.5620020000000 1.0
C      1  0.4768040000000  0.5625570000000  0.5599550000000 1.0
END
