TITL C-38185-7677-225 -3.9251046388527e-06 125000 -372.326618845994 0 0 60 (Ci) n - 1
REM
REM in /home/bkarasulu/CARBON/AIRSS/Generating-Clusters/EDIP-Nigel-Params/Higher-Symm/Box-15A/Only-C60/SD-CG/FIRE-HFTN
REM
REM
REM
REM
REM
REM ./C.cell (414f73aa93bd7a1190c7fd0f31ff2f98)
REM
REM compiler GCC version 9.2.1 20190827 (Red Hat 9.2.1-1)
REM options -cpp -mtune=generic -march=x86-64 -g -O0 -fpre-include=/usr/include/finclude/math-vector-fortran.h
REM seed -1210001012 -647581869 2069030918 1207455993 1092248941 -136047610 -85400123 2075934763 -897554309 -268031377 -152199799 -554618302 -1111840416 -1406208020 619952929 -753860909 -187393586 -25581786 -2122272994 -1461368574 1320980158 -1050935156 -925720646 -1555391905 -2125461399 -1469771459 112003823 -1241219062 -441455769 1282022505 504075228 1549746254 -404286547
REM
CELL 1.54180   50.00000   50.00000   50.00000   90.00000   90.00000   90.00000
LATT -1
SFAC C  
C      1  0.5512850000000  0.4436690000000  0.5136740000000 1.0
C      1  0.5262480000000  0.5713840000000  0.5112040000000 1.0
C      1  0.4299240000000  0.4868460000000  0.5251010000000 1.0
C      1  0.4483870000000  0.4430300000000  0.4859120000000 1.0
C      1  0.4729400000000  0.5696650000000  0.4767550000000 1.0
C      1  0.5701400000000  0.4850750000000  0.4808450000000 1.0
C      1  0.4487150000000  0.5563310000000  0.4863260000000 1.0
C      1  0.4737520000000  0.4286160000000  0.4887960000000 1.0
C      1  0.5700760000000  0.5131540000000  0.4748990000000 1.0
C      1  0.5516130000000  0.5569700000000  0.5140880000000 1.0
C      1  0.5270600000000  0.4303350000000  0.5232450000000 1.0
C      1  0.4298600000000  0.5149250000000  0.5191550000000 1.0
C      1  0.4556080000000  0.5292130000000  0.5272160000000 1.0
C      1  0.5028740000000  0.4468100000000  0.5280360000000 1.0
C      1  0.5541320000000  0.5307160000000  0.5255760000000 1.0
C      1  0.5458780000000  0.5266390000000  0.4823310000000 1.0
C      1  0.4969580000000  0.4391090000000  0.4739070000000 1.0
C      1  0.4453820000000  0.5284020000000  0.4747960000000 1.0
C      1  0.5443920000000  0.4707870000000  0.4727840000000 1.0
C      1  0.4971260000000  0.5531900000000  0.4719640000000 1.0
C      1  0.4458680000000  0.4692840000000  0.4744240000000 1.0
C      1  0.4541220000000  0.4733610000000  0.5176690000000 1.0
C      1  0.5030420000000  0.5608910000000  0.5260930000000 1.0
C      1  0.5546180000000  0.4715980000000  0.5252040000000 1.0
C      1  0.4928780000000  0.5261730000000  0.5611580000000 1.0
C      1  0.4769830000000  0.4867930000000  0.5529540000000 1.0
C      1  0.5189250000000  0.4802130000000  0.5612350000000 1.0
C      1  0.5017550000000  0.5408380000000  0.4434570000000 1.0
C      1  0.5358000000000  0.4801900000000  0.4435860000000 1.0
C      1  0.4943800000000  0.4969330000000  0.4262380000000 1.0
C      1  0.5071220000000  0.4738270000000  0.4388420000000 1.0
C      1  0.5230170000000  0.5132070000000  0.4470460000000 1.0
C      1  0.4810750000000  0.5197870000000  0.4387650000000 1.0
C      1  0.4982450000000  0.4591620000000  0.5565430000000 1.0
C      1  0.4642000000000  0.5198100000000  0.5564140000000 1.0
C      1  0.5056200000000  0.5030670000000  0.5737620000000 1.0
C      1  0.4806090000000  0.4885980000000  0.5221440000000 1.0
C      1  0.5289670000000  0.4868410000000  0.5333740000000 1.0
C      1  0.5035610000000  0.5312500000000  0.5333590000000 1.0
C      1  0.5175250000000  0.4814480000000  0.4850880000000 1.0
C      1  0.4706850000000  0.4834990000000  0.4708920000000 1.0
C      1  0.4924610000000  0.5248860000000  0.4851040000000 1.0
C      1  0.5193910000000  0.5114020000000  0.4778560000000 1.0
C      1  0.4710330000000  0.5131590000000  0.4666260000000 1.0
C      1  0.4964390000000  0.4687500000000  0.4666410000000 1.0
C      1  0.4824750000000  0.5185520000000  0.5149120000000 1.0
C      1  0.5293150000000  0.5165010000000  0.5291080000000 1.0
C      1  0.5075390000000  0.4751140000000  0.5148960000000 1.0
C      1  0.5753890000000  0.4865840000000  0.5100490000000 1.0
C      1  0.4789450000000  0.5720280000000  0.5145920000000 1.0
C      1  0.4535940000000  0.4454520000000  0.5244780000000 1.0
C      1  0.4245320000000  0.4843400000000  0.4865610000000 1.0
C      1  0.5219310000000  0.5684930000000  0.4815820000000 1.0
C      1  0.5461450000000  0.4425380000000  0.4837390000000 1.0
C      1  0.4246110000000  0.5134160000000  0.4899510000000 1.0
C      1  0.5210550000000  0.4279720000000  0.4854080000000 1.0
C      1  0.5464060000000  0.5545480000000  0.4755220000000 1.0
C      1  0.5754680000000  0.5156600000000  0.5134390000000 1.0
C      1  0.4780690000000  0.4315070000000  0.5184180000000 1.0
C      1  0.4538550000000  0.5574620000000  0.5162610000000 1.0
END
