TITL C-38191-7580-518 -7.25668839124461e-06 125000 -357.58925195269 0 0 60 (C1) n - 1
REM
REM in /home/bkarasulu/CARBON/AIRSS/Generating-Clusters/EDIP-Nigel-Params/Higher-Symm/Box-15A/Only-C60/SD-CG/FIRE-HFTN
REM
REM
REM
REM
REM
REM ./C.cell (414f73aa93bd7a1190c7fd0f31ff2f98)
REM
REM compiler GCC version 9.2.1 20190827 (Red Hat 9.2.1-1)
REM options -cpp -mtune=generic -march=x86-64 -g -O0 -fpre-include=/usr/include/finclude/math-vector-fortran.h
REM seed -661766906 -904707468 1438617511 -1941775342 290365338 2060349451 -169341113 1201106189 -1196522699 -2049142151 -575906793 -949963323 56185894 847024602 1108281328 940775040 414094678 -42117762 1236723830 -285492292 856366399 1215165184 -871150748 346726236 464897625 -1550665324 -1639602868 -740118981 -269142488 -1832166498 -661527385 890867218 -1220504508
REM
CELL 1.54180   50.00000   50.00000   50.00000   90.00000   90.00000   90.00000
LATT -1
SFAC C  
C      1  0.5076590000000  0.5634930000000  0.5363290000000 1.0
C      1  0.5498690000000  0.5222750000000  0.5173410000000 1.0
C      1  0.5264470000000  0.5240220000000  0.5445210000000 1.0
C      1  0.5203940000000  0.4479490000000  0.4834190000000 1.0
C      1  0.4707700000000  0.5453030000000  0.4792910000000 1.0
C      1  0.4762690000000  0.4641520000000  0.5245200000000 1.0
C      1  0.5610060000000  0.4718530000000  0.4727840000000 1.0
C      1  0.4355300000000  0.5288240000000  0.4750390000000 1.0
C      1  0.4547230000000  0.4871140000000  0.5233600000000 1.0
C      1  0.5386040000000  0.4695500000000  0.4407510000000 1.0
C      1  0.4814270000000  0.5230360000000  0.4490240000000 1.0
C      1  0.4870650000000  0.4645250000000  0.5612750000000 1.0
C      1  0.4611230000000  0.5513560000000  0.5273600000000 1.0
C      1  0.4315510000000  0.5260570000000  0.5321830000000 1.0
C      1  0.4781580000000  0.5279860000000  0.5535320000000 1.0
C      1  0.4736430000000  0.4673920000000  0.4748470000000 1.0
C      1  0.5144280000000  0.5463080000000  0.4848490000000 1.0
C      1  0.5101310000000  0.4311930000000  0.5342790000000 1.0
C      1  0.4490490000000  0.4836350000000  0.4666180000000 1.0
C      1  0.5574830000000  0.5230020000000  0.4725140000000 1.0
C      1  0.5535620000000  0.4706830000000  0.5182020000000 1.0
C      1  0.4934880000000  0.4690750000000  0.4521070000000 1.0
C      1  0.5307200000000  0.5243670000000  0.4440990000000 1.0
C      1  0.5331610000000  0.4717980000000  0.5510160000000 1.0
C      1  0.5863180000000  0.4836060000000  0.4849850000000 1.0
C      1  0.4961870000000  0.4831780000000  0.5815620000000 1.0
C      1  0.4729300000000  0.5744300000000  0.4842210000000 1.0
C      1  0.5790350000000  0.5139900000000  0.5158410000000 1.0
C      1  0.4272170000000  0.4806510000000  0.5134490000000 1.0
C      1  0.4130240000000  0.5118260000000  0.4857760000000 1.0
C      1  0.4898140000000  0.5100930000000  0.4223590000000 1.0
C      1  0.5235690000000  0.4820220000000  0.4173430000000 1.0
C      1  0.5239190000000  0.5163440000000  0.5732300000000 1.0
C      1  0.4666170000000  0.4371540000000  0.5141400000000 1.0
C      1  0.4986260000000  0.5829770000000  0.5188930000000 1.0
C      1  0.5000290000000  0.4260600000000  0.4879170000000 1.0
C      1  0.4237040000000  0.4823200000000  0.4827090000000 1.0
C      1  0.5272250000000  0.4866970000000  0.5765050000000 1.0
C      1  0.5032640000000  0.5736810000000  0.4895760000000 1.0
C      1  0.4130460000000  0.5083100000000  0.5168300000000 1.0
C      1  0.5811040000000  0.4830890000000  0.5155970000000 1.0
C      1  0.5841530000000  0.5145820000000  0.4851380000000 1.0
C      1  0.5209170000000  0.5127760000000  0.4184720000000 1.0
C      1  0.4926030000000  0.4797020000000  0.4246410000000 1.0
C      1  0.4930350000000  0.5146050000000  0.5782460000000 1.0
C      1  0.4920270000000  0.4198960000000  0.5166890000000 1.0
C      1  0.4680010000000  0.5787180000000  0.5153680000000 1.0
C      1  0.4699700000000  0.4380270000000  0.4830600000000 1.0
C      1  0.4546380000000  0.5104820000000  0.5424740000000 1.0
C      1  0.5425130000000  0.4965060000000  0.4683840000000 1.0
C      1  0.5081100000000  0.5368390000000  0.4578260000000 1.0
C      1  0.5478130000000  0.4537840000000  0.4931210000000 1.0
C      1  0.5106670000000  0.4536150000000  0.5500260000000 1.0
C      1  0.5016450000000  0.5366390000000  0.5364620000000 1.0
C      1  0.5177550000000  0.4547400000000  0.4554050000000 1.0
C      1  0.5424090000000  0.5393050000000  0.4928380000000 1.0
C      1  0.4849180000000  0.4795790000000  0.4997940000000 1.0
C      1  0.4605400000000  0.5322190000000  0.5043330000000 1.0
C      1  0.4528060000000  0.5117120000000  0.4576640000000 1.0
C      1  0.5335910000000  0.4948980000000  0.5198670000000 1.0
END
