TITL C-38189-4514-473 1.00543903366158e-05 125000 -359.403752505178 0 0 60 (C1) n - 1
REM
REM in /home/bkarasulu/CARBON/AIRSS/Generating-Clusters/EDIP-Nigel-Params/Higher-Symm/Box-15A/Only-C60/SD-CG/FIRE-HFTN
REM
REM
REM
REM
REM
REM ./C.cell (414f73aa93bd7a1190c7fd0f31ff2f98)
REM
REM compiler GCC version 9.2.1 20190827 (Red Hat 9.2.1-1)
REM options -cpp -mtune=generic -march=x86-64 -g -O0 -fpre-include=/usr/include/finclude/math-vector-fortran.h
REM seed 193944385 1127608681 -80106180 -1428363848 1374502499 -242541541 1933799669 -2110957941 1776292945 -2140255046 -608698032 -2068800053 -1032771284 803552117 724384259 -1484607175 -1390113541 1157475707 -430924302 556176680 -1934181649 875411106 -1255914394 1228203444 955358057 119810928 -1282553092 -1333845856 -673144492 1030837008 1392166291 919058117 -1705531211
REM
CELL 1.54180   50.00000   50.00000   50.00000   90.00000   90.00000   90.00000
LATT -1
SFAC C  
C      1  0.5495880000000  0.4316070000000  0.5217880000000 1.0
C      1  0.5828820000000  0.5260880000000  0.5070120000000 1.0
C      1  0.5031350000000  0.5797800000000  0.5083120000000 1.0
C      1  0.4221110000000  0.5280810000000  0.5138490000000 1.0
C      1  0.4571240000000  0.4335360000000  0.5173810000000 1.0
C      1  0.5495490000000  0.5673050000000  0.5219420000000 1.0
C      1  0.5836480000000  0.4745800000000  0.5079020000000 1.0
C      1  0.5027840000000  0.4180800000000  0.5095350000000 1.0
C      1  0.4205080000000  0.4695510000000  0.5080340000000 1.0
C      1  0.4566960000000  0.5662300000000  0.5171570000000 1.0
C      1  0.4482800000000  0.5576930000000  0.5426740000000 1.0
C      1  0.4310400000000  0.4712550000000  0.5337630000000 1.0
C      1  0.5039610000000  0.4289110000000  0.5357430000000 1.0
C      1  0.5727760000000  0.4849710000000  0.5315650000000 1.0
C      1  0.5328360000000  0.5643890000000  0.5444260000000 1.0
C      1  0.4489470000000  0.4468450000000  0.5409100000000 1.0
C      1  0.4286840000000  0.5342170000000  0.5405530000000 1.0
C      1  0.5040920000000  0.5709880000000  0.5352560000000 1.0
C      1  0.5723440000000  0.5163610000000  0.5311400000000 1.0
C      1  0.5333010000000  0.4350850000000  0.5445350000000 1.0
C      1  0.4757520000000  0.5308970000000  0.4869610000000 1.0
C      1  0.4528100000000  0.4819790000000  0.4732570000000 1.0
C      1  0.5018800000000  0.4551570000000  0.4705910000000 1.0
C      1  0.5490800000000  0.4801120000000  0.4726440000000 1.0
C      1  0.5299170000000  0.5387860000000  0.4824530000000 1.0
C      1  0.4754220000000  0.4660930000000  0.4850880000000 1.0
C      1  0.4529090000000  0.5151950000000  0.4754150000000 1.0
C      1  0.5021610000000  0.5433040000000  0.4715390000000 1.0
C      1  0.5495410000000  0.5192820000000  0.4717300000000 1.0
C      1  0.5291640000000  0.4603820000000  0.4826150000000 1.0
C      1  0.5229290000000  0.5261140000000  0.4314110000000 1.0
C      1  0.4759730000000  0.5283540000000  0.4331770000000 1.0
C      1  0.4546910000000  0.4850370000000  0.4426770000000 1.0
C      1  0.5008700000000  0.4616720000000  0.4410330000000 1.0
C      1  0.5462960000000  0.4854230000000  0.4430980000000 1.0
C      1  0.5242020000000  0.4730170000000  0.4314620000000 1.0
C      1  0.4775510000000  0.4734600000000  0.4319320000000 1.0
C      1  0.4537900000000  0.5154940000000  0.4440190000000 1.0
C      1  0.5003160000000  0.5381350000000  0.4419260000000 1.0
C      1  0.5460420000000  0.5146820000000  0.4421090000000 1.0
C      1  0.5413360000000  0.5155650000000  0.5354700000000 1.0
C      1  0.4950470000000  0.5421500000000  0.5413960000000 1.0
C      1  0.4490360000000  0.5151940000000  0.5545320000000 1.0
C      1  0.4713290000000  0.4665440000000  0.5507270000000 1.0
C      1  0.5248130000000  0.4652810000000  0.5490760000000 1.0
C      1  0.5419720000000  0.4847810000000  0.5353550000000 1.0
C      1  0.4966210000000  0.4586150000000  0.5388930000000 1.0
C      1  0.4544040000000  0.4903180000000  0.5402090000000 1.0
C      1  0.4696570000000  0.5398310000000  0.5561620000000 1.0
C      1  0.5240910000000  0.5346980000000  0.5499490000000 1.0
C      1  0.4664430000000  0.4385540000000  0.4913800000000 1.0
C      1  0.5411310000000  0.4402610000000  0.4976070000000 1.0
C      1  0.5758470000000  0.5262250000000  0.4808780000000 1.0
C      1  0.4918040000000  0.5718620000000  0.4836490000000 1.0
C      1  0.4284670000000  0.5235670000000  0.4880560000000 1.0
C      1  0.4659750000000  0.5590240000000  0.4917040000000 1.0
C      1  0.5419680000000  0.5588680000000  0.4974040000000 1.0
C      1  0.5752030000000  0.4732730000000  0.4822680000000 1.0
C      1  0.4918940000000  0.4250750000000  0.4844210000000 1.0
C      1  0.4273820000000  0.4721890000000  0.4822490000000 1.0
END
