TITL C-38186-4112-300 -1.0835387075197e-06 125000 -365.924001970485 0 0 60 (Td) n - 1
REM
REM in /home/bkarasulu/CARBON/AIRSS/Generating-Clusters/EDIP-Nigel-Params/Higher-Symm/Box-15A/Only-C60/SD-CG/FIRE-HFTN
REM
REM
REM
REM
REM
REM ./C.cell (414f73aa93bd7a1190c7fd0f31ff2f98)
REM
REM compiler GCC version 9.2.1 20190827 (Red Hat 9.2.1-1)
REM options -cpp -mtune=generic -march=x86-64 -g -O0 -fpre-include=/usr/include/finclude/math-vector-fortran.h
REM seed 853817187 -866851688 -1436263845 -624792156 -1831646607 -395791235 -1918607296 -449095599 1694228165 -1924644823 -1356248059 -1557525470 119074129 -611581113 -1699225189 -311050531 290802955 2020810523 -1259618881 325176041 1724157950 -541895547 1029276607 1795722458 -2108926420 713081973 879082406 837790995 -523061399 -1333359173 -127559210 229920661 1889877193
REM
CELL 1.54180   50.00000   50.00000   50.00000   90.00000   90.00000   90.00000
LATT -1
SFAC C  
C      1  0.5033740000000  0.4348750000000  0.5377790000000 1.0
C      1  0.5377790000000  0.5033740000000  0.4348750000000 1.0
C      1  0.4348750000000  0.5377790000000  0.5033740000000 1.0
C      1  0.4966260000000  0.5651250000000  0.5377790000000 1.0
C      1  0.4966260000000  0.4348750000000  0.4622210000000 1.0
C      1  0.5033740000000  0.5651250000000  0.4622210000000 1.0
C      1  0.4622210000000  0.4966260000000  0.4348750000000 1.0
C      1  0.4622210000000  0.5033740000000  0.5651250000000 1.0
C      1  0.5377790000000  0.4966260000000  0.5651250000000 1.0
C      1  0.5651250000000  0.4622210000000  0.5033740000000 1.0
C      1  0.5651250000000  0.5377790000000  0.4966260000000 1.0
C      1  0.4348750000000  0.4622210000000  0.4966260000000 1.0
C      1  0.4348750000000  0.5033740000000  0.5377790000000 1.0
C      1  0.5033740000000  0.5377790000000  0.4348750000000 1.0
C      1  0.5377790000000  0.4348750000000  0.5033740000000 1.0
C      1  0.5651250000000  0.4966260000000  0.5377790000000 1.0
C      1  0.4348750000000  0.4966260000000  0.4622210000000 1.0
C      1  0.5651250000000  0.5033740000000  0.4622210000000 1.0
C      1  0.4966260000000  0.4622210000000  0.4348750000000 1.0
C      1  0.5033740000000  0.4622210000000  0.5651250000000 1.0
C      1  0.4966260000000  0.5377790000000  0.5651250000000 1.0
C      1  0.4622210000000  0.5651250000000  0.5033740000000 1.0
C      1  0.5377790000000  0.5651250000000  0.4966260000000 1.0
C      1  0.4622210000000  0.4348750000000  0.4966260000000 1.0
C      1  0.4754560000000  0.5458500000000  0.4334160000000 1.0
C      1  0.4334160000000  0.4754560000000  0.5458500000000 1.0
C      1  0.5458500000000  0.4334160000000  0.4754560000000 1.0
C      1  0.5245440000000  0.4541500000000  0.4334160000000 1.0
C      1  0.5245440000000  0.5458500000000  0.5665840000000 1.0
C      1  0.4754560000000  0.4541500000000  0.5665840000000 1.0
C      1  0.5665840000000  0.5245440000000  0.5458500000000 1.0
C      1  0.5665840000000  0.4754560000000  0.4541500000000 1.0
C      1  0.4334160000000  0.5245440000000  0.4541500000000 1.0
C      1  0.4541500000000  0.5665840000000  0.4754560000000 1.0
C      1  0.4541500000000  0.4334160000000  0.5245440000000 1.0
C      1  0.5458500000000  0.5665840000000  0.5245440000000 1.0
C      1  0.5458500000000  0.4754560000000  0.4334160000000 1.0
C      1  0.4754560000000  0.4334160000000  0.5458500000000 1.0
C      1  0.4334160000000  0.5458500000000  0.4754560000000 1.0
C      1  0.4541500000000  0.5245440000000  0.4334160000000 1.0
C      1  0.5458500000000  0.5245440000000  0.5665840000000 1.0
C      1  0.4541500000000  0.4754560000000  0.5665840000000 1.0
C      1  0.5245440000000  0.5665840000000  0.5458500000000 1.0
C      1  0.4754560000000  0.5665840000000  0.4541500000000 1.0
C      1  0.5245440000000  0.4334160000000  0.4541500000000 1.0
C      1  0.5665840000000  0.4541500000000  0.4754560000000 1.0
C      1  0.4334160000000  0.4541500000000  0.5245440000000 1.0
C      1  0.5665840000000  0.5458500000000  0.5245440000000 1.0
C      1  0.5102150000000  0.4331120000000  0.5102150000000 1.0
C      1  0.4897850000000  0.5668880000000  0.5102150000000 1.0
C      1  0.4331120000000  0.5102150000000  0.5102150000000 1.0
C      1  0.5102150000000  0.5102150000000  0.4331120000000 1.0
C      1  0.5668880000000  0.4897850000000  0.5102150000000 1.0
C      1  0.5668880000000  0.5102150000000  0.4897850000000 1.0
C      1  0.4331120000000  0.4897850000000  0.4897850000000 1.0
C      1  0.4897850000000  0.4331120000000  0.4897850000000 1.0
C      1  0.5102150000000  0.5668880000000  0.4897850000000 1.0
C      1  0.4897850000000  0.4897850000000  0.4331120000000 1.0
C      1  0.4897850000000  0.5102150000000  0.5668880000000 1.0
C      1  0.5102150000000  0.4897850000000  0.5668880000000 1.0
END
