TITL C-38197-8510-271 0.000227739319077225 125000 -355.038513779096 0 0 60 (C1) n - 1
REM
REM in /home/bkarasulu/CARBON/AIRSS/Generating-Clusters/EDIP-Nigel-Params/Higher-Symm/Box-15A/Only-C60/SD-CG/FIRE-HFTN
REM
REM
REM
REM
REM
REM ./C.cell (414f73aa93bd7a1190c7fd0f31ff2f98)
REM
REM compiler GCC version 9.2.1 20190827 (Red Hat 9.2.1-1)
REM options -cpp -mtune=generic -march=x86-64 -g -O0 -fpre-include=/usr/include/finclude/math-vector-fortran.h
REM seed 1953733143 -470139006 1205824490 1843279792 -20575969 -1013501590 477577160 1858192578 -1721352666 1983247830 1357894931 704002662 480977487 1494390287 285348345 -1543275834 1460944978 -1336691053 480038082 1795187496 -184674096 1750106400 189914648 1687277664 -463088855 -1743760009 -79540303 585672126 -1033434836 2790741 -1462537798 -1238261089 689428100
REM
CELL 1.54180   50.00000   50.00000   50.00000   90.00000   90.00000   90.00000
LATT -1
SFAC C  
C      1  0.4509020000000  0.5300050000000  0.5230500000000 1.0
C      1  0.5431160000000  0.5258530000000  0.4791770000000 1.0
C      1  0.4569050000000  0.4713850000000  0.5196520000000 1.0
C      1  0.5497110000000  0.4672120000000  0.4774320000000 1.0
C      1  0.5344550000000  0.4699370000000  0.4269740000000 1.0
C      1  0.4849930000000  0.4784660000000  0.5672440000000 1.0
C      1  0.5139800000000  0.5175070000000  0.4318830000000 1.0
C      1  0.4649050000000  0.5257820000000  0.5737230000000 1.0
C      1  0.4527830000000  0.4361720000000  0.4870670000000 1.0
C      1  0.5453760000000  0.4350140000000  0.5137220000000 1.0
C      1  0.4545210000000  0.5642780000000  0.4887400000000 1.0
C      1  0.5477320000000  0.5618560000000  0.5108330000000 1.0
C      1  0.5446930000000  0.4477580000000  0.5594960000000 1.0
C      1  0.4511660000000  0.4525370000000  0.4421870000000 1.0
C      1  0.5529620000000  0.5495710000000  0.5575920000000 1.0
C      1  0.4505910000000  0.5568970000000  0.4406690000000 1.0
C      1  0.4940680000000  0.5537010000000  0.5124500000000 1.0
C      1  0.5073330000000  0.5600160000000  0.4870750000000 1.0
C      1  0.4923100000000  0.4363280000000  0.5125040000000 1.0
C      1  0.5065750000000  0.4428690000000  0.4877900000000 1.0
C      1  0.5092430000000  0.5541710000000  0.5359290000000 1.0
C      1  0.4932670000000  0.5606850000000  0.4629790000000 1.0
C      1  0.5057090000000  0.4343960000000  0.5369390000000 1.0
C      1  0.4922290000000  0.4419750000000  0.4638040000000 1.0
C      1  0.5367220000000  0.5584070000000  0.5360690000000 1.0
C      1  0.4658100000000  0.5638150000000  0.4634570000000 1.0
C      1  0.5333170000000  0.4339250000000  0.5386660000000 1.0
C      1  0.4645880000000  0.4388990000000  0.4620520000000 1.0
C      1  0.5430450000000  0.4702420000000  0.5735490000000 1.0
C      1  0.4506800000000  0.4749620000000  0.4276940000000 1.0
C      1  0.5435150000000  0.5435880000000  0.5829190000000 1.0
C      1  0.4624560000000  0.5476330000000  0.4174220000000 1.0
C      1  0.5711400000000  0.5201200000000  0.4824610000000 1.0
C      1  0.4241440000000  0.5048800000000  0.5102760000000 1.0
C      1  0.5766000000000  0.4930370000000  0.4885170000000 1.0
C      1  0.4290590000000  0.4775490000000  0.5156600000000 1.0
C      1  0.4648780000000  0.5550350000000  0.5130630000000 1.0
C      1  0.5362330000000  0.5548620000000  0.4861280000000 1.0
C      1  0.4634950000000  0.4422930000000  0.5123980000000 1.0
C      1  0.5357540000000  0.4426380000000  0.4885580000000 1.0
C      1  0.4657100000000  0.4978880000000  0.4247930000000 1.0
C      1  0.5326880000000  0.4955050000000  0.5763260000000 1.0
C      1  0.4519380000000  0.5226160000000  0.4228640000000 1.0
C      1  0.5508480000000  0.5172120000000  0.5785470000000 1.0
C      1  0.5394230000000  0.4901900000000  0.4078900000000 1.0
C      1  0.4714800000000  0.4803350000000  0.5925500000000 1.0
C      1  0.5273870000000  0.5148200000000  0.4065950000000 1.0
C      1  0.4592320000000  0.5048930000000  0.5919150000000 1.0
C      1  0.5368850000000  0.5087370000000  0.5014020000000 1.0
C      1  0.4486420000000  0.5128200000000  0.4974800000000 1.0
C      1  0.5526500000000  0.4851400000000  0.5022710000000 1.0
C      1  0.4639490000000  0.4888760000000  0.4979620000000 1.0
C      1  0.4651840000000  0.4851600000000  0.5456970000000 1.0
C      1  0.5323500000000  0.4817000000000  0.4558230000000 1.0
C      1  0.4678810000000  0.5149740000000  0.5445500000000 1.0
C      1  0.5341740000000  0.5115380000000  0.4536080000000 1.0
C      1  0.5055770000000  0.4685190000000  0.4308200000000 1.0
C      1  0.5057690000000  0.5008410000000  0.5668940000000 1.0
C      1  0.4934160000000  0.4949030000000  0.4332140000000 1.0
C      1  0.4938560000000  0.5270750000000  0.5710000000000 1.0
END
