TITL C-38189-4514-159 -1.77662683118177e-06 125000 -365.283982290084 0 0 60 (C3h) n - 1
REM
REM in /home/bkarasulu/CARBON/AIRSS/Generating-Clusters/EDIP-Nigel-Params/Higher-Symm/Box-15A/Only-C60/SD-CG/FIRE-HFTN
REM
REM
REM
REM
REM
REM ./C.cell (414f73aa93bd7a1190c7fd0f31ff2f98)
REM
REM compiler GCC version 9.2.1 20190827 (Red Hat 9.2.1-1)
REM options -cpp -mtune=generic -march=x86-64 -g -O0 -fpre-include=/usr/include/finclude/math-vector-fortran.h
REM seed 1516395099 469012172 2035994754 -355523302 769083072 1189879248 2119443297 1131135721 836599023 1777248787 821618965 -329700845 -745540784 -884059898 2040327595 1110827191 1282521168 -1781256705 -509373163 1167637178 1543913105 578083187 -1623455504 -1520457604 1744638927 740015226 318005203 546539083 -91620261 1941517959 -1796450687 -277301673 -1327568716
REM
CELL 1.54180   50.00000   50.00000   50.00000   90.00000   90.00000   90.00000
LATT -1
SFAC C  
C      1  0.5357980000000  0.5303550000000  0.4507610000000 1.0
C      1  0.4394590000000  0.5303550000000  0.4936180000000 1.0
C      1  0.5247440000000  0.5303550000000  0.5556210000000 1.0
C      1  0.5357980000000  0.4696450000000  0.4507610000000 1.0
C      1  0.4394590000000  0.4696450000000  0.4936180000000 1.0
C      1  0.5247440000000  0.4696450000000  0.5556210000000 1.0
C      1  0.4277720000000  0.4852480000000  0.5164490000000 1.0
C      1  0.5503590000000  0.4852480000000  0.5543270000000 1.0
C      1  0.5218690000000  0.4852480000000  0.4292250000000 1.0
C      1  0.4277720000000  0.5147520000000  0.5164490000000 1.0
C      1  0.5503590000000  0.5147520000000  0.5543270000000 1.0
C      1  0.5218690000000  0.5147520000000  0.4292250000000 1.0
C      1  0.5599690000000  0.4435560000000  0.4969480000000 1.0
C      1  0.4673720000000  0.4435560000000  0.4495910000000 1.0
C      1  0.4726580000000  0.4435560000000  0.5534610000000 1.0
C      1  0.5599690000000  0.5564440000000  0.4969480000000 1.0
C      1  0.4673720000000  0.5564440000000  0.4495910000000 1.0
C      1  0.4726580000000  0.5564440000000  0.5534610000000 1.0
C      1  0.5432920000000  0.4413610000000  0.5183340000000 1.0
C      1  0.4942320000000  0.4413610000000  0.4533410000000 1.0
C      1  0.4624760000000  0.4413610000000  0.5283250000000 1.0
C      1  0.5432920000000  0.5586390000000  0.5183340000000 1.0
C      1  0.4942320000000  0.5586390000000  0.4533410000000 1.0
C      1  0.4624760000000  0.5586390000000  0.5283250000000 1.0
C      1  0.4809110000000  0.5194640000000  0.5037180000000 1.0
C      1  0.5127640000000  0.5194640000000  0.5146730000000 1.0
C      1  0.5063250000000  0.5194640000000  0.4816090000000 1.0
C      1  0.4809110000000  0.4805360000000  0.5037180000000 1.0
C      1  0.5127640000000  0.4805360000000  0.5146730000000 1.0
C      1  0.5063250000000  0.4805360000000  0.4816090000000 1.0
C      1  0.4615970000000  0.4710090000000  0.4480750000000 1.0
C      1  0.4742330000000  0.4710090000000  0.5592210000000 1.0
C      1  0.5641700000000  0.4710090000000  0.4927050000000 1.0
C      1  0.4615970000000  0.5289910000000  0.4480750000000 1.0
C      1  0.4742330000000  0.5289910000000  0.5592210000000 1.0
C      1  0.5641700000000  0.5289910000000  0.4927050000000 1.0
C      1  0.5535180000000  0.5147490000000  0.4692990000000 1.0
C      1  0.4466530000000  0.5147490000000  0.4690020000000 1.0
C      1  0.4998290000000  0.5147490000000  0.5616990000000 1.0
C      1  0.5535180000000  0.4852510000000  0.4692990000000 1.0
C      1  0.4466530000000  0.4852510000000  0.4690020000000 1.0
C      1  0.4998290000000  0.4852510000000  0.5616990000000 1.0
C      1  0.4275250000000  0.5268890000000  0.5424760000000 1.0
C      1  0.5730230000000  0.5268890000000  0.5415280000000 1.0
C      1  0.4994530000000  0.5268890000000  0.4159970000000 1.0
C      1  0.4275250000000  0.4731110000000  0.5424760000000 1.0
C      1  0.5730230000000  0.4731110000000  0.5415280000000 1.0
C      1  0.4994530000000  0.4731110000000  0.4159970000000 1.0
C      1  0.5727250000000  0.5143460000000  0.5160290000000 1.0
C      1  0.4775190000000  0.5143460000000  0.4290040000000 1.0
C      1  0.4497560000000  0.5143460000000  0.5549670000000 1.0
C      1  0.5727250000000  0.4856540000000  0.5160290000000 1.0
C      1  0.4775190000000  0.4856540000000  0.4290040000000 1.0
C      1  0.4497560000000  0.4856540000000  0.5549670000000 1.0
C      1  0.5210540000000  0.5454850000000  0.5293840000000 1.0
C      1  0.5149200000000  0.5454850000000  0.4670750000000 1.0
C      1  0.4640260000000  0.5454850000000  0.5035410000000 1.0
C      1  0.5210540000000  0.4545150000000  0.5293840000000 1.0
C      1  0.5149200000000  0.4545150000000  0.4670750000000 1.0
C      1  0.4640260000000  0.4545150000000  0.5035410000000 1.0
END
