TITL C-38186-4112-124 -3.3628824283263e-05 125000 -352.779042684444 0 0 60 (Ci) n - 1
REM
REM in /home/bkarasulu/CARBON/AIRSS/Generating-Clusters/EDIP-Nigel-Params/Higher-Symm/Box-15A/Only-C60/SD-CG/FIRE-HFTN
REM
REM
REM
REM
REM
REM ./C.cell (414f73aa93bd7a1190c7fd0f31ff2f98)
REM
REM compiler GCC version 9.2.1 20190827 (Red Hat 9.2.1-1)
REM options -cpp -mtune=generic -march=x86-64 -g -O0 -fpre-include=/usr/include/finclude/math-vector-fortran.h
REM seed 1011019209 -1896113271 1063119279 -2042079347 -1744791658 1160097537 649425204 -1483424506 -418688249 -22979880 1941877460 773190039 1480437117 557294953 -579862343 1411473014 -1534801306 1741817560 1572537846 -832975621 -298004450 197884282 -1622864176 -360333468 1815230717 1333180654 1381959427 1876855185 634275620 761005474 -759031709 -1353622836 -1975069828
REM
CELL 1.54180   50.00000   50.00000   50.00000   90.00000   90.00000   90.00000
LATT -1
SFAC C  
C      1  0.5296470000000  0.4410450000000  0.4917740000000 1.0
C      1  0.4703530000000  0.5589550000000  0.5082260000000 1.0
C      1  0.5333020000000  0.5698520000000  0.4466290000000 1.0
C      1  0.4666980000000  0.4301480000000  0.5533710000000 1.0
C      1  0.5541860000000  0.4878530000000  0.4787280000000 1.0
C      1  0.4458140000000  0.5121470000000  0.5212720000000 1.0
C      1  0.4880370000000  0.5785920000000  0.4630360000000 1.0
C      1  0.5119630000000  0.4214080000000  0.5369640000000 1.0
C      1  0.4926880000000  0.4952730000000  0.5454570000000 1.0
C      1  0.5073120000000  0.5047270000000  0.4545430000000 1.0
C      1  0.5521700000000  0.4587430000000  0.4802460000000 1.0
C      1  0.4478300000000  0.5412570000000  0.5197540000000 1.0
C      1  0.5000690000000  0.5759010000000  0.5509080000000 1.0
C      1  0.4999310000000  0.4240990000000  0.4490920000000 1.0
C      1  0.5291230000000  0.4277590000000  0.5160700000000 1.0
C      1  0.4708770000000  0.5722410000000  0.4839300000000 1.0
C      1  0.4818690000000  0.4165450000000  0.5291780000000 1.0
C      1  0.5181310000000  0.5834550000000  0.4708220000000 1.0
C      1  0.4696580000000  0.5234240000000  0.5595660000000 1.0
C      1  0.5303420000000  0.4765760000000  0.4404340000000 1.0
C      1  0.4338790000000  0.5098430000000  0.4601100000000 1.0
C      1  0.5661210000000  0.4901570000000  0.5398900000000 1.0
C      1  0.4578290000000  0.5087630000000  0.4485030000000 1.0
C      1  0.5421710000000  0.4912370000000  0.5514970000000 1.0
C      1  0.4201400000000  0.5033490000000  0.4820040000000 1.0
C      1  0.5798600000000  0.4966510000000  0.5179960000000 1.0
C      1  0.4806360000000  0.4602630000000  0.5103580000000 1.0
C      1  0.5193640000000  0.5397370000000  0.4896420000000 1.0
C      1  0.4753400000000  0.4329810000000  0.5048200000000 1.0
C      1  0.5246600000000  0.5670190000000  0.4951800000000 1.0
C      1  0.4503020000000  0.4269140000000  0.4943380000000 1.0
C      1  0.5496980000000  0.5730860000000  0.5056620000000 1.0
C      1  0.5817090000000  0.5264910000000  0.4805150000000 1.0
C      1  0.4182910000000  0.4735090000000  0.5194850000000 1.0
C      1  0.5190910000000  0.5062590000000  0.5526290000000 1.0
C      1  0.4809090000000  0.4937410000000  0.4473710000000 1.0
C      1  0.5456910000000  0.5468750000000  0.5649030000000 1.0
C      1  0.4543090000000  0.4531250000000  0.4350970000000 1.0
C      1  0.5229080000000  0.4303940000000  0.4634440000000 1.0
C      1  0.4770920000000  0.5696060000000  0.5365560000000 1.0
C      1  0.5570520000000  0.5566230000000  0.4533030000000 1.0
C      1  0.4429480000000  0.4433770000000  0.5466970000000 1.0
C      1  0.4762750000000  0.4349030000000  0.4393550000000 1.0
C      1  0.5237250000000  0.5650970000000  0.5606450000000 1.0
C      1  0.4956760000000  0.4442750000000  0.5524220000000 1.0
C      1  0.5043240000000  0.5557250000000  0.4475780000000 1.0
C      1  0.4550300000000  0.5031990000000  0.5466890000000 1.0
C      1  0.5449700000000  0.4968010000000  0.4533110000000 1.0
C      1  0.5060020000000  0.5322300000000  0.4659860000000 1.0
C      1  0.4939980000000  0.4677700000000  0.5340140000000 1.0
C      1  0.4241830000000  0.4982880000000  0.5088180000000 1.0
C      1  0.5758170000000  0.5017120000000  0.4911820000000 1.0
C      1  0.5741640000000  0.5700460000000  0.4948430000000 1.0
C      1  0.4258360000000  0.4299540000000  0.5051570000000 1.0
C      1  0.4586610000000  0.5482030000000  0.5491420000000 1.0
C      1  0.5413390000000  0.4517970000000  0.4508580000000 1.0
C      1  0.5761100000000  0.5525400000000  0.4732510000000 1.0
C      1  0.4238900000000  0.4474600000000  0.5267490000000 1.0
C      1  0.5218670000000  0.5345430000000  0.5568430000000 1.0
C      1  0.4781330000000  0.4654570000000  0.4431570000000 1.0
END
