TITL C-38188-488-51 -4.26070066941891e-06 125000 -349.065583909155 0 0 60 (T23) n - 1
REM
REM in /home/bkarasulu/CARBON/AIRSS/Generating-Clusters/EDIP-Nigel-Params/Higher-Symm/Box-15A/Only-C60/SD-CG/FIRE-HFTN
REM
REM
REM
REM
REM
REM ./C.cell (414f73aa93bd7a1190c7fd0f31ff2f98)
REM
REM compiler GCC version 9.2.1 20190827 (Red Hat 9.2.1-1)
REM options -cpp -mtune=generic -march=x86-64 -g -O0 -fpre-include=/usr/include/finclude/math-vector-fortran.h
REM seed -1998321061 -991004096 -1579475123 424958684 1604343348 176578050 -1344373012 75216326 -602034483 1753064049 -1123143004 -1364895173 1482625194 -1927506218 2055423074 255265714 368348477 -263129540 -1328040316 -1742019084 -726442614 -246286324 -1935436998 -1487270416 -1441690428 1632429981 -1918720356 -168946809 1604408659 -1881359916 1343276698 -1677972873 -1699450712
REM
CELL 1.54180   50.00000   50.00000   50.00000   90.00000   90.00000   90.00000
LATT -1
SFAC C  
C      1  0.5144640000000  0.5212330000000  0.4197580000000 1.0
C      1  0.4197580000000  0.5144640000000  0.5212330000000 1.0
C      1  0.5212330000000  0.4197580000000  0.5144640000000 1.0
C      1  0.5144640000000  0.4787670000000  0.5802420000000 1.0
C      1  0.4855360000000  0.4787670000000  0.4197580000000 1.0
C      1  0.4855360000000  0.5212330000000  0.5802420000000 1.0
C      1  0.4197580000000  0.4855360000000  0.4787670000000 1.0
C      1  0.5802420000000  0.4855360000000  0.5212330000000 1.0
C      1  0.5802420000000  0.5144640000000  0.4787670000000 1.0
C      1  0.5212330000000  0.5802420000000  0.4855360000000 1.0
C      1  0.4787670000000  0.5802420000000  0.5144640000000 1.0
C      1  0.4787670000000  0.4197580000000  0.4855360000000 1.0
C      1  0.5555790000000  0.5237980000000  0.4631520000000 1.0
C      1  0.4631520000000  0.5555790000000  0.5237980000000 1.0
C      1  0.5237980000000  0.4631520000000  0.5555790000000 1.0
C      1  0.5555790000000  0.4762020000000  0.5368480000000 1.0
C      1  0.4444210000000  0.4762020000000  0.4631520000000 1.0
C      1  0.4444210000000  0.5237980000000  0.5368480000000 1.0
C      1  0.4631520000000  0.4444210000000  0.4762020000000 1.0
C      1  0.5368480000000  0.4444210000000  0.5237980000000 1.0
C      1  0.5368480000000  0.5555790000000  0.4762020000000 1.0
C      1  0.5237980000000  0.5368480000000  0.4444210000000 1.0
C      1  0.4762020000000  0.5368480000000  0.5555790000000 1.0
C      1  0.4762020000000  0.4631520000000  0.4444210000000 1.0
C      1  0.4517420000000  0.5198680000000  0.4853850000000 1.0
C      1  0.4853850000000  0.4517420000000  0.5198680000000 1.0
C      1  0.5198680000000  0.4853850000000  0.4517420000000 1.0
C      1  0.4517420000000  0.4801320000000  0.5146150000000 1.0
C      1  0.5482580000000  0.4801320000000  0.4853850000000 1.0
C      1  0.5482580000000  0.5198680000000  0.5146150000000 1.0
C      1  0.4853850000000  0.5482580000000  0.4801320000000 1.0
C      1  0.5146150000000  0.5482580000000  0.5198680000000 1.0
C      1  0.5146150000000  0.4517420000000  0.4801320000000 1.0
C      1  0.5198680000000  0.5146150000000  0.5482580000000 1.0
C      1  0.4801320000000  0.5146150000000  0.4517420000000 1.0
C      1  0.4801320000000  0.4853850000000  0.5482580000000 1.0
C      1  0.4971800000000  0.4711450000000  0.4653480000000 1.0
C      1  0.4653480000000  0.4971800000000  0.4711450000000 1.0
C      1  0.4711450000000  0.4653480000000  0.4971800000000 1.0
C      1  0.4971800000000  0.5288550000000  0.5346520000000 1.0
C      1  0.5028200000000  0.5288550000000  0.4653480000000 1.0
C      1  0.5028200000000  0.4711450000000  0.5346520000000 1.0
C      1  0.4653480000000  0.5028200000000  0.5288550000000 1.0
C      1  0.5346520000000  0.5028200000000  0.4711450000000 1.0
C      1  0.5346520000000  0.4971800000000  0.5288550000000 1.0
C      1  0.4711450000000  0.5346520000000  0.5028200000000 1.0
C      1  0.5288550000000  0.5346520000000  0.4971800000000 1.0
C      1  0.5288550000000  0.4653480000000  0.5028200000000 1.0
C      1  0.4897640000000  0.5771550000000  0.4836800000000 1.0
C      1  0.4836800000000  0.4897640000000  0.5771550000000 1.0
C      1  0.5771550000000  0.4836800000000  0.4897640000000 1.0
C      1  0.4897640000000  0.4228450000000  0.5163200000000 1.0
C      1  0.5102360000000  0.4228450000000  0.4836800000000 1.0
C      1  0.5102360000000  0.5771550000000  0.5163200000000 1.0
C      1  0.4836800000000  0.5102360000000  0.4228450000000 1.0
C      1  0.5163200000000  0.5102360000000  0.5771550000000 1.0
C      1  0.5163200000000  0.4897640000000  0.4228450000000 1.0
C      1  0.5771550000000  0.5163200000000  0.5102360000000 1.0
C      1  0.4228450000000  0.5163200000000  0.4897640000000 1.0
C      1  0.4228450000000  0.4836800000000  0.5102360000000 1.0
END
