TITL C-38185-7677-46 -2.40345211174789e-05 125000 -359.587401295264 0 0 60 (D2) n - 1
REM
REM in /home/bkarasulu/CARBON/AIRSS/Generating-Clusters/EDIP-Nigel-Params/Higher-Symm/Box-15A/Only-C60/SD-CG/FIRE-HFTN
REM
REM
REM
REM
REM
REM ./C.cell (414f73aa93bd7a1190c7fd0f31ff2f98)
REM
REM compiler GCC version 9.2.1 20190827 (Red Hat 9.2.1-1)
REM options -cpp -mtune=generic -march=x86-64 -g -O0 -fpre-include=/usr/include/finclude/math-vector-fortran.h
REM seed 1615468292 -1315949607 -2037559515 -479748672 486541437 76020567 1612978248 -1384976317 -728856728 1063761924 802674289 640208552 -1327007042 -454441 -1760858036 -667622489 2107770125 -873924868 -379399397 1129464833 1721241756 -1435873039 682871143 -1486680608 -179321959 -1358518078 -1405421496 -676470959 -925787232 -427568898 410574985 1689972250 1237634099
REM
CELL 1.54180   50.00000   50.00000   50.00000   90.00000   90.00000   90.00000
LATT -1
SFAC C  
C      1  0.5540390000000  0.4895790000000  0.4524790000000 1.0
C      1  0.4459610000000  0.5104210000000  0.4524790000000 1.0
C      1  0.4459610000000  0.4895790000000  0.5475210000000 1.0
C      1  0.5540390000000  0.5104210000000  0.5475210000000 1.0
C      1  0.4901090000000  0.5542280000000  0.4549440000000 1.0
C      1  0.5098910000000  0.4457720000000  0.4549440000000 1.0
C      1  0.4901090000000  0.4457720000000  0.5450560000000 1.0
C      1  0.5098910000000  0.5542280000000  0.5450560000000 1.0
C      1  0.5272900000000  0.5067880000000  0.5598140000000 1.0
C      1  0.4727100000000  0.4932120000000  0.5598140000000 1.0
C      1  0.4727100000000  0.5067880000000  0.4401860000000 1.0
C      1  0.5272900000000  0.4932120000000  0.4401860000000 1.0
C      1  0.5062110000000  0.5275610000000  0.5580510000000 1.0
C      1  0.4937890000000  0.4724390000000  0.5580510000000 1.0
C      1  0.5062110000000  0.4724390000000  0.4419490000000 1.0
C      1  0.4937890000000  0.5275610000000  0.4419490000000 1.0
C      1  0.4857460000000  0.4645620000000  0.5009690000000 1.0
C      1  0.5142540000000  0.5354380000000  0.5009690000000 1.0
C      1  0.5142540000000  0.4645620000000  0.4990310000000 1.0
C      1  0.4857460000000  0.5354380000000  0.4990310000000 1.0
C      1  0.4723380000000  0.4887310000000  0.5089210000000 1.0
C      1  0.5276620000000  0.5112690000000  0.5089210000000 1.0
C      1  0.4723380000000  0.5112690000000  0.4910790000000 1.0
C      1  0.5276620000000  0.4887310000000  0.4910790000000 1.0
C      1  0.5793370000000  0.4759840000000  0.5224240000000 1.0
C      1  0.4206630000000  0.5240160000000  0.5224240000000 1.0
C      1  0.4206630000000  0.4759840000000  0.4775760000000 1.0
C      1  0.5793370000000  0.5240160000000  0.4775760000000 1.0
C      1  0.4738750000000  0.5809240000000  0.5199790000000 1.0
C      1  0.5261250000000  0.4190760000000  0.5199790000000 1.0
C      1  0.4738750000000  0.4190760000000  0.4800210000000 1.0
C      1  0.5261250000000  0.5809240000000  0.4800210000000 1.0
C      1  0.4256050000000  0.5263340000000  0.4961800000000 1.0
C      1  0.5743950000000  0.4736660000000  0.4961800000000 1.0
C      1  0.5743950000000  0.5263340000000  0.5038200000000 1.0
C      1  0.4256050000000  0.4736660000000  0.5038200000000 1.0
C      1  0.5326160000000  0.4216380000000  0.4939460000000 1.0
C      1  0.4673840000000  0.5783620000000  0.4939460000000 1.0
C      1  0.5326160000000  0.5783620000000  0.5060540000000 1.0
C      1  0.4673840000000  0.4216380000000  0.5060540000000 1.0
C      1  0.4876100000000  0.4295350000000  0.4594280000000 1.0
C      1  0.5123900000000  0.5704650000000  0.4594280000000 1.0
C      1  0.5123900000000  0.4295350000000  0.5405720000000 1.0
C      1  0.4876100000000  0.5704650000000  0.5405720000000 1.0
C      1  0.4296450000000  0.4880620000000  0.4554240000000 1.0
C      1  0.5703550000000  0.5119380000000  0.4554240000000 1.0
C      1  0.4296450000000  0.5119380000000  0.5445760000000 1.0
C      1  0.5703550000000  0.4880620000000  0.5445760000000 1.0
C      1  0.5520000000000  0.5256870000000  0.5218540000000 1.0
C      1  0.4480000000000  0.4743130000000  0.5218540000000 1.0
C      1  0.4480000000000  0.5256870000000  0.4781460000000 1.0
C      1  0.5520000000000  0.4743130000000  0.4781460000000 1.0
C      1  0.5281330000000  0.5539530000000  0.5208210000000 1.0
C      1  0.4718670000000  0.4460470000000  0.5208210000000 1.0
C      1  0.5281330000000  0.4460470000000  0.4791790000000 1.0
C      1  0.4718670000000  0.5539530000000  0.4791790000000 1.0
C      1  0.5189660000000  0.4808550000000  0.5677740000000 1.0
C      1  0.5189660000000  0.5191450000000  0.4322260000000 1.0
C      1  0.4810340000000  0.5191450000000  0.5677740000000 1.0
C      1  0.4810340000000  0.4808550000000  0.4322260000000 1.0
END
