TITL C-38194-9318-522 7.13119414571299e-06 125000 -368.648162049588 0 0 60 (C1) n - 1
REM
REM in /home/bkarasulu/CARBON/AIRSS/Generating-Clusters/EDIP-Nigel-Params/Higher-Symm/Box-15A/Only-C60/SD-CG/FIRE-HFTN
REM
REM
REM
REM
REM
REM ./C.cell (414f73aa93bd7a1190c7fd0f31ff2f98)
REM
REM compiler GCC version 9.2.1 20190827 (Red Hat 9.2.1-1)
REM options -cpp -mtune=generic -march=x86-64 -g -O0 -fpre-include=/usr/include/finclude/math-vector-fortran.h
REM seed 1923689358 -813966329 852038295 -336650826 787560678 -164050407 -1531309386 -1737007916 -1647146621 1561578316 -777052948 846716479 715075048 -1260269146 -1322738883 1038249428 -975436129 1819581518 -594826214 446019816 1327873124 -1512721206 -887320285 -262966321 -75301021 15015107 1198836597 1861143745 411046931 1401429810 -2065665139 1277017058 1151133634
REM
CELL 1.54180   50.00000   50.00000   50.00000   90.00000   90.00000   90.00000
LATT -1
SFAC C  
C      1  0.4703580000000  0.5048810000000  0.5249790000000 1.0
C      1  0.4737230000000  0.4724740000000  0.4912850000000 1.0
C      1  0.4924940000000  0.5147070000000  0.4842430000000 1.0
C      1  0.4365530000000  0.5133240000000  0.4686860000000 1.0
C      1  0.4353960000000  0.5331330000000  0.5364550000000 1.0
C      1  0.4353000000000  0.4541210000000  0.5039190000000 1.0
C      1  0.5523680000000  0.5491660000000  0.5003550000000 1.0
C      1  0.5504740000000  0.4713680000000  0.5447990000000 1.0
C      1  0.5523680000000  0.4788940000000  0.4577950000000 1.0
C      1  0.5088030000000  0.4345540000000  0.4775240000000 1.0
C      1  0.5062690000000  0.5528180000000  0.4530650000000 1.0
C      1  0.5061480000000  0.5138950000000  0.5657680000000 1.0
C      1  0.5503390000000  0.4524310000000  0.5015250000000 1.0
C      1  0.5499710000000  0.5276160000000  0.4535750000000 1.0
C      1  0.5500350000000  0.5230520000000  0.5403740000000 1.0
C      1  0.5622050000000  0.5030400000000  0.4474100000000 1.0
C      1  0.5633150000000  0.5426250000000  0.5252580000000 1.0
C      1  0.5609360000000  0.4515790000000  0.5277510000000 1.0
C      1  0.4791840000000  0.5677110000000  0.4893870000000 1.0
C      1  0.4774740000000  0.4751940000000  0.5646600000000 1.0
C      1  0.4814180000000  0.4551730000000  0.4435780000000 1.0
C      1  0.4414120000000  0.5080660000000  0.5501470000000 1.0
C      1  0.4444290000000  0.4517750000000  0.4765660000000 1.0
C      1  0.4421200000000  0.5406320000000  0.4678720000000 1.0
C      1  0.5649210000000  0.5358720000000  0.4772330000000 1.0
C      1  0.5637220000000  0.4969440000000  0.5398450000000 1.0
C      1  0.5604370000000  0.4750150000000  0.4854990000000 1.0
C      1  0.5075200000000  0.5666380000000  0.4799260000000 1.0
C      1  0.5060330000000  0.4838560000000  0.5663590000000 1.0
C      1  0.5099530000000  0.4504050000000  0.4514290000000 1.0
C      1  0.4802810000000  0.4801890000000  0.5172360000000 1.0
C      1  0.4882450000000  0.4891270000000  0.4743460000000 1.0
C      1  0.4777900000000  0.5237150000000  0.5060420000000 1.0
C      1  0.4212380000000  0.5265330000000  0.5129550000000 1.0
C      1  0.4227190000000  0.4792910000000  0.5043250000000 1.0
C      1  0.4242040000000  0.5055880000000  0.4943520000000 1.0
C      1  0.4800730000000  0.5542270000000  0.4425160000000 1.0
C      1  0.4809670000000  0.5239620000000  0.5736610000000 1.0
C      1  0.4834410000000  0.4224650000000  0.4806070000000 1.0
C      1  0.4665730000000  0.4381240000000  0.4638790000000 1.0
C      1  0.4637610000000  0.5582260000000  0.4651300000000 1.0
C      1  0.4632760000000  0.5021900000000  0.5685780000000 1.0
C      1  0.4513780000000  0.4968640000000  0.4506160000000 1.0
C      1  0.4567270000000  0.5519170000000  0.5334540000000 1.0
C      1  0.4529140000000  0.4463200000000  0.5252870000000 1.0
C      1  0.5237370000000  0.5542400000000  0.5015290000000 1.0
C      1  0.5216170000000  0.4700470000000  0.5456460000000 1.0
C      1  0.5239340000000  0.4769410000000  0.4510760000000 1.0
C      1  0.5210910000000  0.4470170000000  0.5019780000000 1.0
C      1  0.5206900000000  0.5266000000000  0.4520480000000 1.0
C      1  0.5210030000000  0.5274200000000  0.5435850000000 1.0
C      1  0.5860250000000  0.4939910000000  0.5227070000000 1.0
C      1  0.5828650000000  0.4914970000000  0.4948020000000 1.0
C      1  0.5849960000000  0.5162560000000  0.4814430000000 1.0
C      1  0.4789200000000  0.4863640000000  0.4466070000000 1.0
C      1  0.4800360000000  0.5507850000000  0.5157620000000 1.0
C      1  0.4775810000000  0.4586610000000  0.5363120000000 1.0
C      1  0.5096210000000  0.5508580000000  0.5277980000000 1.0
C      1  0.5080760000000  0.4481080000000  0.5300880000000 1.0
C      1  0.5105420000000  0.5015180000000  0.4383670000000 1.0
END
