TITL C-38184-643-101 8.9507912371993e-06 125000 -352.868151811697 0 0 60 (C2) n - 1
REM
REM in /home/bkarasulu/CARBON/AIRSS/Generating-Clusters/EDIP-Nigel-Params/Higher-Symm/Box-15A/Only-C60/SD-CG/FIRE-HFTN
REM
REM
REM
REM
REM
REM ./C.cell (414f73aa93bd7a1190c7fd0f31ff2f98)
REM
REM compiler GCC version 9.2.1 20190827 (Red Hat 9.2.1-1)
REM options -cpp -mtune=generic -march=x86-64 -g -O0 -fpre-include=/usr/include/finclude/math-vector-fortran.h
REM seed -786873511 729642757 481146798 -455423418 685316877 2049009823 1623923809 -1363415201 1901669993 -1446970952 1908307509 684604439 -679965305 -11812101 -102515833 1317748938 608368534 -777629002 79644303 -692952887 -1281508903 -76066602 84098790 -425007974 660473126 571017397 -405777925 1712119482 -1592554721 -181609996 -1250985832 1527825102 896673728
REM
CELL 1.54180   50.00000   50.00000   50.00000   90.00000   90.00000   90.00000
LATT -1
SFAC C  
C      1  0.5430020000000  0.4642520000000  0.4931630000000 1.0
C      1  0.5429420000000  0.5063580000000  0.4639780000000 1.0
C      1  0.5430020000000  0.5357480000000  0.5068350000000 1.0
C      1  0.5429430000000  0.4936430000000  0.5360210000000 1.0
C      1  0.5305500000000  0.4695150000000  0.5210950000000 1.0
C      1  0.5302630000000  0.5220690000000  0.5318520000000 1.0
C      1  0.5305480000000  0.5304860000000  0.4789040000000 1.0
C      1  0.5302620000000  0.4779320000000  0.4681470000000 1.0
C      1  0.4994410000000  0.5208140000000  0.5280790000000 1.0
C      1  0.5033240000000  0.4782520000000  0.5160940000000 1.0
C      1  0.4994400000000  0.4791860000000  0.4719210000000 1.0
C      1  0.5033230000000  0.5217480000000  0.4839060000000 1.0
C      1  0.4900790000000  0.5044390000000  0.4676940000000 1.0
C      1  0.4899350000000  0.4677510000000  0.4950750000000 1.0
C      1  0.4900810000000  0.4955610000000  0.5323070000000 1.0
C      1  0.4899340000000  0.5322490000000  0.5049260000000 1.0
C      1  0.5221320000000  0.5559950000000  0.4632590000000 1.0
C      1  0.5241680000000  0.5389210000000  0.5593400000000 1.0
C      1  0.5221340000000  0.4440050000000  0.5367400000000 1.0
C      1  0.5241660000000  0.4610790000000  0.4406600000000 1.0
C      1  0.5095580000000  0.5629100000000  0.5483250000000 1.0
C      1  0.5086580000000  0.5467860000000  0.4382070000000 1.0
C      1  0.5095560000000  0.4370900000000  0.4516750000000 1.0
C      1  0.5086610000000  0.4532140000000  0.5617930000000 1.0
C      1  0.5721080000000  0.5061790000000  0.4654700000000 1.0
C      1  0.5721300000000  0.5343460000000  0.5064970000000 1.0
C      1  0.5721100000000  0.4938220000000  0.5345270000000 1.0
C      1  0.5721300000000  0.4656540000000  0.4935010000000 1.0
C      1  0.5819170000000  0.5192950000000  0.5280480000000 1.0
C      1  0.5816630000000  0.5274590000000  0.4810410000000 1.0
C      1  0.5819160000000  0.4807060000000  0.4719490000000 1.0
C      1  0.5816640000000  0.4725410000000  0.5189560000000 1.0
C      1  0.4741960000000  0.4699940000000  0.5669250000000 1.0
C      1  0.4750550000000  0.4335860000000  0.4689290000000 1.0
C      1  0.4741930000000  0.5300060000000  0.4330760000000 1.0
C      1  0.4750560000000  0.5664140000000  0.5310720000000 1.0
C      1  0.4770940000000  0.4784820000000  0.4336450000000 1.0
C      1  0.4759400000000  0.4323640000000  0.5210910000000 1.0
C      1  0.4770970000000  0.5215180000000  0.5663560000000 1.0
C      1  0.4759380000000  0.5676350000000  0.4789100000000 1.0
C      1  0.4525730000000  0.4821480000000  0.5512410000000 1.0
C      1  0.4527450000000  0.4482520000000  0.4816110000000 1.0
C      1  0.4525700000000  0.5178510000000  0.4487610000000 1.0
C      1  0.4527460000000  0.5517470000000  0.5183910000000 1.0
C      1  0.4541570000000  0.4878410000000  0.4478630000000 1.0
C      1  0.4540850000000  0.4476160000000  0.5116410000000 1.0
C      1  0.4541590000000  0.5121590000000  0.5521390000000 1.0
C      1  0.4540840000000  0.5523830000000  0.4883610000000 1.0
C      1  0.5020420000000  0.5713110000000  0.5205250000000 1.0
C      1  0.5012940000000  0.4805060000000  0.5718210000000 1.0
C      1  0.5020420000000  0.4286890000000  0.4794750000000 1.0
C      1  0.5012910000000  0.5194940000000  0.4281790000000 1.0
C      1  0.5037270000000  0.5707650000000  0.4826630000000 1.0
C      1  0.5048100000000  0.4817130000000  0.4280310000000 1.0
C      1  0.5037290000000  0.4292350000000  0.5173370000000 1.0
C      1  0.5048120000000  0.5182870000000  0.5719690000000 1.0
C      1  0.4429520000000  0.4670130000000  0.5290940000000 1.0
C      1  0.4425000000000  0.4703690000000  0.4669290000000 1.0
C      1  0.4429500000000  0.5329860000000  0.4709080000000 1.0
C      1  0.4425010000000  0.5296300000000  0.5330740000000 1.0
END
