TITL C-38189-4514-516 1.92494836055177e-05 125000 -377.974645093703 0 0 60 (Ci) n - 1
REM
REM in /home/bkarasulu/CARBON/AIRSS/Generating-Clusters/EDIP-Nigel-Params/Higher-Symm/Box-15A/Only-C60/SD-CG/FIRE-HFTN
REM
REM
REM
REM
REM
REM ./C.cell (414f73aa93bd7a1190c7fd0f31ff2f98)
REM
REM compiler GCC version 9.2.1 20190827 (Red Hat 9.2.1-1)
REM options -cpp -mtune=generic -march=x86-64 -g -O0 -fpre-include=/usr/include/finclude/math-vector-fortran.h
REM seed -552515159 -1710673276 1242331653 2014356929 -734934440 360426193 -1652065284 788177645 -1023376597 -1770278603 -372368094 -1151324707 -2146684919 -1290433837 -1433177369 -1939582117 384259125 1484409715 -664841236 1280352083 -1301277486 1847594078 170026035 1435151536 -621331537 1615175940 1528345741 -417325819 -705456630 -1055603590 -1259470014 359378127 -157184020
REM
CELL 1.54180   50.00000   50.00000   50.00000   90.00000   90.00000   90.00000
LATT -1
SFAC C  
C      1  0.5145310000000  0.5695720000000  0.4770270000000 1.0
C      1  0.5589020000000  0.4831150000000  0.5228950000000 1.0
C      1  0.4921740000000  0.5193380000000  0.5533950000000 1.0
C      1  0.4888310000000  0.5729960000000  0.5278470000000 1.0
C      1  0.4833300000000  0.4349550000000  0.4748730000000 1.0
C      1  0.5116070000000  0.4434980000000  0.5190800000000 1.0
C      1  0.4377630000000  0.4704630000000  0.4774800000000 1.0
C      1  0.4509210000000  0.5145630000000  0.5049030000000 1.0
C      1  0.5651180000000  0.5326760000000  0.4936690000000 1.0
C      1  0.5125470000000  0.5093450000000  0.4439820000000 1.0
C      1  0.5345060000000  0.4859030000000  0.5759630000000 1.0
C      1  0.4615910000000  0.4852150000000  0.4269290000000 1.0
C      1  0.5111690000000  0.4270040000000  0.4721530000000 1.0
C      1  0.5622370000000  0.5295370000000  0.5225200000000 1.0
C      1  0.4874530000000  0.4906550000000  0.5560180000000 1.0
C      1  0.4854690000000  0.4304280000000  0.5229730000000 1.0
C      1  0.4883930000000  0.5565020000000  0.4809200000000 1.0
C      1  0.5166700000000  0.5650450000000  0.5251270000000 1.0
C      1  0.4410980000000  0.5168850000000  0.4771050000000 1.0
C      1  0.4348820000000  0.4673240000000  0.5063310000000 1.0
C      1  0.5490790000000  0.4854370000000  0.4950970000000 1.0
C      1  0.5078260000000  0.4806620000000  0.4466050000000 1.0
C      1  0.5384090000000  0.5147850000000  0.5730710000000 1.0
C      1  0.4654940000000  0.5140970000000  0.4240370000000 1.0
C      1  0.4701850000000  0.5376550000000  0.5468990000000 1.0
C      1  0.5349980000000  0.5525250000000  0.4624700000000 1.0
C      1  0.5522110000000  0.4624000000000  0.5429210000000 1.0
C      1  0.5309910000000  0.5228000000000  0.4624870000000 1.0
C      1  0.5578280000000  0.4702820000000  0.5698970000000 1.0
C      1  0.4354880000000  0.4742500000000  0.4334760000000 1.0
C      1  0.4774440000000  0.5646650000000  0.5527280000000 1.0
C      1  0.4697000000000  0.4442240000000  0.4501370000000 1.0
C      1  0.5257550000000  0.4504720000000  0.5427250000000 1.0
C      1  0.4405660000000  0.4526950000000  0.4538740000000 1.0
C      1  0.4614160000000  0.5378790000000  0.5186400000000 1.0
C      1  0.5568800000000  0.5578930000000  0.4819280000000 1.0
C      1  0.4690090000000  0.4772000000000  0.5375130000000 1.0
C      1  0.5225560000000  0.4353350000000  0.4472720000000 1.0
C      1  0.5594340000000  0.5473050000000  0.5461260000000 1.0
C      1  0.5298150000000  0.4623450000000  0.4531010000000 1.0
C      1  0.5645120000000  0.5257500000000  0.5665240000000 1.0
C      1  0.4421720000000  0.5297180000000  0.4301030000000 1.0
C      1  0.4650020000000  0.4474750000000  0.5375300000000 1.0
C      1  0.4742450000000  0.5495280000000  0.4572750000000 1.0
C      1  0.5303000000000  0.5557760000000  0.5498630000000 1.0
C      1  0.4477890000000  0.5376000000000  0.4570790000000 1.0
C      1  0.4431200000000  0.4421070000000  0.5180720000000 1.0
C      1  0.5385840000000  0.4621210000000  0.4813600000000 1.0
C      1  0.4908210000000  0.5254060000000  0.4335580000000 1.0
C      1  0.5271320000000  0.4381510000000  0.4946700000000 1.0
C      1  0.5168200000000  0.5321180000000  0.5640330000000 1.0
C      1  0.5091790000000  0.4745940000000  0.5664420000000 1.0
C      1  0.4728680000000  0.5618490000000  0.5053300000000 1.0
C      1  0.4831800000000  0.4678820000000  0.4359670000000 1.0
C      1  0.4476370000000  0.4897260000000  0.5209170000000 1.0
C      1  0.4700920000000  0.4246800000000  0.4982980000000 1.0
C      1  0.5299080000000  0.5753200000000  0.5017020000000 1.0
C      1  0.5523630000000  0.5102740000000  0.4790830000000 1.0
C      1  0.5719920000000  0.5057320000000  0.5344310000000 1.0
C      1  0.4280080000000  0.4942680000000  0.4655690000000 1.0
END
