TITL C-38191-7580-107 6.19077174985197e-06 125000 -362.208285073552 0 0 60 (C5) n - 1
REM
REM in /home/bkarasulu/CARBON/AIRSS/Generating-Clusters/EDIP-Nigel-Params/Higher-Symm/Box-15A/Only-C60/SD-CG/FIRE-HFTN
REM
REM
REM
REM
REM
REM ./C.cell (414f73aa93bd7a1190c7fd0f31ff2f98)
REM
REM compiler GCC version 9.2.1 20190827 (Red Hat 9.2.1-1)
REM options -cpp -mtune=generic -march=x86-64 -g -O0 -fpre-include=/usr/include/finclude/math-vector-fortran.h
REM seed 1706171691 1678638051 1407961636 1493168697 -1373794436 -1078900529 -1926772729 1102571945 -526489447 -775135191 -858144863 2023080099 1210918118 305304074 -438891174 -1812895674 922394349 -1293544677 -1547495940 1485217113 -1546480664 -123879378 412678503 -1332174363 2029035453 65978321 -933962661 -180321799 1566466336 275094728 -181212985 -114524024 -470789114
REM
CELL 1.54180   50.00000   50.00000   50.00000   90.00000   90.00000   90.00000
LATT -1
SFAC C  
C      1  0.5734710000000  0.4897140000000  0.5300780000000 1.0
C      1  0.5129210000000  0.4269460000000  0.5300780000000 1.0
C      1  0.4345150000000  0.4651370000000  0.5300780000000 1.0
C      1  0.4466070000000  0.5515070000000  0.5300780000000 1.0
C      1  0.5324870000000  0.5666960000000  0.5300780000000 1.0
C      1  0.5103860000000  0.5225250000000  0.5552790000000 1.0
C      1  0.5246320000000  0.4970830000000  0.5552790000000 1.0
C      1  0.5048370000000  0.4756720000000  0.5552790000000 1.0
C      1  0.4783580000000  0.4878820000000  0.5552790000000 1.0
C      1  0.4817870000000  0.5168380000000  0.5552790000000 1.0
C      1  0.4898230000000  0.5584860000000  0.5207090000000 1.0
C      1  0.5524790000000  0.5277520000000  0.5207090000000 1.0
C      1  0.5426110000000  0.4586660000000  0.5207090000000 1.0
C      1  0.4738560000000  0.4467020000000  0.5207090000000 1.0
C      1  0.4412310000000  0.5083940000000  0.5207090000000 1.0
C      1  0.5745750000000  0.5117800000000  0.5110800000000 1.0
C      1  0.5342490000000  0.4327150000000  0.5110800000000 1.0
C      1  0.4465920000000  0.4466360000000  0.5110800000000 1.0
C      1  0.4327430000000  0.5343040000000  0.5110800000000 1.0
C      1  0.5118410000000  0.5745650000000  0.5110800000000 1.0
C      1  0.4389380000000  0.4926550000000  0.4649000000000 1.0
C      1  0.4741450000000  0.5558030000000  0.4649000000000 1.0
C      1  0.5450830000000  0.5418330000000  0.4649000000000 1.0
C      1  0.5537170000000  0.4700510000000  0.4649000000000 1.0
C      1  0.4881160000000  0.4396570000000  0.4649000000000 1.0
C      1  0.4920230000000  0.4556100000000  0.4414770000000 1.0
C      1  0.4553180000000  0.4938700000000  0.4414770000000 1.0
C      1  0.4803620000000  0.5406010000000  0.4414770000000 1.0
C      1  0.5325450000000  0.5312230000000  0.4414770000000 1.0
C      1  0.5397520000000  0.4786960000000  0.4414770000000 1.0
C      1  0.4255530000000  0.4855310000000  0.5111890000000 1.0
C      1  0.4632340000000  0.5663320000000  0.5111890000000 1.0
C      1  0.5517240000000  0.5554640000000  0.5111890000000 1.0
C      1  0.5687340000000  0.4679470000000  0.5111890000000 1.0
C      1  0.4907550000000  0.4247250000000  0.5111890000000 1.0
C      1  0.4706380000000  0.5027970000000  0.5144560000000 1.0
C      1  0.4935860000000  0.5287890000000  0.5144560000000 1.0
C      1  0.5253980000000  0.5149960000000  0.5144560000000 1.0
C      1  0.5221100000000  0.4804790000000  0.5144560000000 1.0
C      1  0.4882670000000  0.4729400000000  0.5144560000000 1.0
C      1  0.4707920000000  0.4719450000000  0.4345150000000 1.0
C      1  0.4642930000000  0.5191090000000  0.4345150000000 1.0
C      1  0.5071400000000  0.5398650000000  0.4345150000000 1.0
C      1  0.5401200000000  0.5055290000000  0.4345150000000 1.0
C      1  0.5176560000000  0.4635520000000  0.4345150000000 1.0
C      1  0.5090590000000  0.4486170000000  0.5482520000000 1.0
C      1  0.4539310000000  0.4755060000000  0.5482520000000 1.0
C      1  0.4624690000000  0.5362450000000  0.5482520000000 1.0
C      1  0.5228730000000  0.5468940000000  0.5482520000000 1.0
C      1  0.5516670000000  0.4927380000000  0.5482520000000 1.0
C      1  0.4899260000000  0.5247910000000  0.4814790000000 1.0
C      1  0.5204650000000  0.5172420000000  0.4814790000000 1.0
C      1  0.5227220000000  0.4858650000000  0.4814790000000 1.0
C      1  0.4935780000000  0.4740220000000  0.4814790000000 1.0
C      1  0.4733090000000  0.4980800000000  0.4814790000000 1.0
C      1  0.5048790000000  0.4316750000000  0.4865860000000 1.0
C      1  0.4365260000000  0.4742470000000  0.4865860000000 1.0
C      1  0.4558930000000  0.5524090000000  0.4865860000000 1.0
C      1  0.5362140000000  0.5581440000000  0.4865860000000 1.0
C      1  0.5664890000000  0.4835260000000  0.4865860000000 1.0
END
