TITL C-38195-9455-239 2.93622861403929e-05 125000 -357.314078041834 0 0 60 (C1) n - 1
REM
REM in /home/bkarasulu/CARBON/AIRSS/Generating-Clusters/EDIP-Nigel-Params/Higher-Symm/Box-15A/Only-C60/SD-CG/FIRE-HFTN
REM
REM
REM
REM
REM
REM ./C.cell (414f73aa93bd7a1190c7fd0f31ff2f98)
REM
REM compiler GCC version 9.2.1 20190827 (Red Hat 9.2.1-1)
REM options -cpp -mtune=generic -march=x86-64 -g -O0 -fpre-include=/usr/include/finclude/math-vector-fortran.h
REM seed -948566507 1369483744 -1818655540 340369483 955244145 -2092699834 -1566998043 -776804673 801900855 1506421811 -851330915 876376565 692440204 1877409355 561958552 1994818988 -253284592 1155680815 -837993293 2054106314 -85148496 1861745955 717003119 223037187 -2066565076 1459824422 1754784225 949424296 -664831247 -1464511474 -607220672 -2067835122 2098313330
REM
CELL 1.54180   50.00000   50.00000   50.00000   90.00000   90.00000   90.00000
LATT -1
SFAC C  
C      1  0.5223580000000  0.5151080000000  0.5207290000000 1.0
C      1  0.4830090000000  0.5145260000000  0.5241470000000 1.0
C      1  0.4684500000000  0.5147910000000  0.4952010000000 1.0
C      1  0.4911580000000  0.5155680000000  0.4731030000000 1.0
C      1  0.5259710000000  0.5144690000000  0.4907360000000 1.0
C      1  0.5164230000000  0.4855550000000  0.5233800000000 1.0
C      1  0.4829630000000  0.4833640000000  0.5241680000000 1.0
C      1  0.4669860000000  0.4820840000000  0.4963660000000 1.0
C      1  0.4978200000000  0.4857890000000  0.4722210000000 1.0
C      1  0.5255260000000  0.4848620000000  0.4854650000000 1.0
C      1  0.5246540000000  0.5561880000000  0.5055180000000 1.0
C      1  0.5027470000000  0.5537030000000  0.5261720000000 1.0
C      1  0.4778460000000  0.5557930000000  0.5098610000000 1.0
C      1  0.4828990000000  0.5581560000000  0.4799960000000 1.0
C      1  0.5126980000000  0.5535410000000  0.4767320000000 1.0
C      1  0.5263440000000  0.4466540000000  0.5064630000000 1.0
C      1  0.5030070000000  0.4439250000000  0.5261450000000 1.0
C      1  0.4782680000000  0.4415690000000  0.5092840000000 1.0
C      1  0.4839490000000  0.4451290000000  0.4798200000000 1.0
C      1  0.5144330000000  0.4430600000000  0.4784600000000 1.0
C      1  0.5135560000000  0.5432320000000  0.4275550000000 1.0
C      1  0.5672080000000  0.5416740000000  0.4891010000000 1.0
C      1  0.5315410000000  0.5405220000000  0.5648100000000 1.0
C      1  0.4552000000000  0.5472320000000  0.5512460000000 1.0
C      1  0.4375870000000  0.5419860000000  0.4665640000000 1.0
C      1  0.5112850000000  0.4584380000000  0.4327870000000 1.0
C      1  0.5711380000000  0.4592340000000  0.4899380000000 1.0
C      1  0.5320990000000  0.4583150000000  0.5616090000000 1.0
C      1  0.4523560000000  0.4524980000000  0.5482140000000 1.0
C      1  0.4374270000000  0.4542960000000  0.4632650000000 1.0
C      1  0.4979770000000  0.4819270000000  0.4413940000000 1.0
C      1  0.5725760000000  0.4716530000000  0.4662720000000 1.0
C      1  0.5369620000000  0.4820460000000  0.5465510000000 1.0
C      1  0.4669570000000  0.4767630000000  0.5497200000000 1.0
C      1  0.4221190000000  0.4626800000000  0.4837410000000 1.0
C      1  0.4918270000000  0.5279860000000  0.4237820000000 1.0
C      1  0.5542170000000  0.5184720000000  0.4792550000000 1.0
C      1  0.5549440000000  0.5291530000000  0.5585930000000 1.0
C      1  0.4658840000000  0.5210290000000  0.5497170000000 1.0
C      1  0.4404630000000  0.5283360000000  0.4908170000000 1.0
C      1  0.4639170000000  0.5464510000000  0.4580980000000 1.0
C      1  0.5239630000000  0.5374120000000  0.4528140000000 1.0
C      1  0.5526600000000  0.5466100000000  0.5129300000000 1.0
C      1  0.5062860000000  0.5384860000000  0.5536560000000 1.0
C      1  0.4525060000000  0.5547930000000  0.5243570000000 1.0
C      1  0.4645550000000  0.4589940000000  0.4591720000000 1.0
C      1  0.5292050000000  0.4536480000000  0.4541100000000 1.0
C      1  0.5529830000000  0.4614290000000  0.5106220000000 1.0
C      1  0.5045410000000  0.4539770000000  0.5558260000000 1.0
C      1  0.4512980000000  0.4477300000000  0.5202510000000 1.0
C      1  0.5523150000000  0.5206460000000  0.5311720000000 1.0
C      1  0.4894440000000  0.5161260000000  0.5666540000000 1.0
C      1  0.4302460000000  0.5438020000000  0.5117020000000 1.0
C      1  0.4753490000000  0.5197730000000  0.4455170000000 1.0
C      1  0.5462630000000  0.5178170000000  0.4517850000000 1.0
C      1  0.5602130000000  0.4823360000000  0.5300950000000 1.0
C      1  0.4891630000000  0.4775210000000  0.5678980000000 1.0
C      1  0.4395010000000  0.4701140000000  0.5045100000000 1.0
C      1  0.4692450000000  0.4814270000000  0.4397460000000 1.0
C      1  0.5455130000000  0.4796050000000  0.4601870000000 1.0
END
