TITL C-38185-7677-257 6.68255485004543e-07 125000 -354.893893193191 0 0 60 (C1) n - 1
REM
REM in /home/bkarasulu/CARBON/AIRSS/Generating-Clusters/EDIP-Nigel-Params/Higher-Symm/Box-15A/Only-C60/SD-CG/FIRE-HFTN
REM
REM
REM
REM
REM
REM ./C.cell (414f73aa93bd7a1190c7fd0f31ff2f98)
REM
REM compiler GCC version 9.2.1 20190827 (Red Hat 9.2.1-1)
REM options -cpp -mtune=generic -march=x86-64 -g -O0 -fpre-include=/usr/include/finclude/math-vector-fortran.h
REM seed -474133311 -478132086 2125091295 -708193550 629400425 49396446 1550532016 -1089317293 864230304 -1570386464 -2068141728 -1847080484 -754923480 44908365 -312683842 -1517658476 1035702818 -2091757107 -888557882 1978806568 -183000981 1052377249 411124204 -1634890823 1605261141 -1044186260 -399488821 -2064387679 1347285038 -1629926485 -452592338 1241320133 211772518
REM
CELL 1.54180   50.00000   50.00000   50.00000   90.00000   90.00000   90.00000
LATT -1
SFAC C  
C      1  0.5637460000000  0.4573530000000  0.5250310000000 1.0
C      1  0.5675100000000  0.4651680000000  0.4641320000000 1.0
C      1  0.5659330000000  0.5239540000000  0.4535990000000 1.0
C      1  0.5672110000000  0.5536190000000  0.5077220000000 1.0
C      1  0.5677150000000  0.5104090000000  0.5512080000000 1.0
C      1  0.5212220000000  0.5626250000000  0.5254850000000 1.0
C      1  0.5211810000000  0.4926810000000  0.5610170000000 1.0
C      1  0.5180420000000  0.4338940000000  0.5212710000000 1.0
C      1  0.5207970000000  0.4657890000000  0.4443750000000 1.0
C      1  0.5190280000000  0.5411340000000  0.4441160000000 1.0
C      1  0.4837810000000  0.4887800000000  0.4637740000000 1.0
C      1  0.4845330000000  0.5243100000000  0.4777850000000 1.0
C      1  0.4847620000000  0.5295360000000  0.5157760000000 1.0
C      1  0.4812380000000  0.4854830000000  0.5343850000000 1.0
C      1  0.4849850000000  0.4685890000000  0.5081890000000 1.0
C      1  0.4956300000000  0.5223240000000  0.4466340000000 1.0
C      1  0.5011170000000  0.5535480000000  0.5062290000000 1.0
C      1  0.5022860000000  0.5077020000000  0.5431430000000 1.0
C      1  0.4924570000000  0.4474290000000  0.5302520000000 1.0
C      1  0.5028180000000  0.4653230000000  0.4675150000000 1.0
C      1  0.4377950000000  0.4497400000000  0.4969550000000 1.0
C      1  0.4380490000000  0.4867340000000  0.4505980000000 1.0
C      1  0.4386650000000  0.5429870000000  0.4724190000000 1.0
C      1  0.4390310000000  0.5406540000000  0.5324560000000 1.0
C      1  0.4369080000000  0.4819050000000  0.5489500000000 1.0
C      1  0.4705680000000  0.4315690000000  0.4888530000000 1.0
C      1  0.4658860000000  0.4893170000000  0.4240560000000 1.0
C      1  0.4702250000000  0.5644340000000  0.4677390000000 1.0
C      1  0.4705350000000  0.5472540000000  0.5534500000000 1.0
C      1  0.4649480000000  0.4639570000000  0.5683940000000 1.0
C      1  0.5444510000000  0.5313760000000  0.4396420000000 1.0
C      1  0.5469210000000  0.5684810000000  0.5169020000000 1.0
C      1  0.5467500000000  0.5019750000000  0.5653770000000 1.0
C      1  0.5425570000000  0.4422780000000  0.5310880000000 1.0
C      1  0.5473110000000  0.4588450000000  0.4479080000000 1.0
C      1  0.4444990000000  0.5399160000000  0.5595920000000 1.0
C      1  0.4405970000000  0.4560310000000  0.5579060000000 1.0
C      1  0.4452430000000  0.4316400000000  0.4774010000000 1.0
C      1  0.4415490000000  0.5019690000000  0.4277940000000 1.0
C      1  0.4453930000000  0.5689520000000  0.4791710000000 1.0
C      1  0.4962190000000  0.5344320000000  0.5574930000000 1.0
C      1  0.4907240000000  0.4525640000000  0.5607640000000 1.0
C      1  0.4967720000000  0.4381130000000  0.4782800000000 1.0
C      1  0.4919360000000  0.5024320000000  0.4234720000000 1.0
C      1  0.4965640000000  0.5665750000000  0.4797680000000 1.0
C      1  0.5704430000000  0.4845950000000  0.4834700000000 1.0
C      1  0.5713090000000  0.5127810000000  0.4782160000000 1.0
C      1  0.5713210000000  0.5265950000000  0.5034990000000 1.0
C      1  0.5711080000000  0.5065190000000  0.5240830000000 1.0
C      1  0.5706940000000  0.4805910000000  0.5118830000000 1.0
C      1  0.4547930000000  0.4736940000000  0.4996320000000 1.0
C      1  0.4550920000000  0.4911960000000  0.4743190000000 1.0
C      1  0.4540670000000  0.5210240000000  0.4846140000000 1.0
C      1  0.4545550000000  0.5220200000000  0.5158150000000 1.0
C      1  0.4524940000000  0.4928470000000  0.5262610000000 1.0
C      1  0.5170110000000  0.5633950000000  0.4608660000000 1.0
C      1  0.5172110000000  0.5519960000000  0.5510950000000 1.0
C      1  0.5130560000000  0.4673190000000  0.5689810000000 1.0
C      1  0.5171630000000  0.4269250000000  0.4941120000000 1.0
C      1  0.5135960000000  0.4847230000000  0.4250910000000 1.0
END
