TITL C-38194-9318-257 0.529321132224463 125000 -351.317896424513 0 0 60 (C1) n - 1
REM
REM in /home/bkarasulu/CARBON/AIRSS/Generating-Clusters/EDIP-Nigel-Params/Higher-Symm/Box-15A/Only-C60/SD-CG/FIRE-HFTN
REM
REM
REM
REM
REM
REM ./C.cell (414f73aa93bd7a1190c7fd0f31ff2f98)
REM
REM compiler GCC version 9.2.1 20190827 (Red Hat 9.2.1-1)
REM options -cpp -mtune=generic -march=x86-64 -g -O0 -fpre-include=/usr/include/finclude/math-vector-fortran.h
REM seed 1478183523 243501801 -1619552001 1241576038 -694233227 1559936507 -70717156 1726534254 1039394213 2131748191 336394895 636931499 1505850270 976998133 -2017671066 -1393639434 -1430893700 73187557 1269514216 -875419391 200441740 -112286349 1962115206 790708576 1263298951 221499237 -548507314 43671463 2080955114 -802330007 -581843300 1339199240 294336667
REM
CELL 1.54180   50.00000   50.00000   50.00000   90.00000   90.00000   90.00000
LATT -1
SFAC C  
C      1  0.4414410000000  0.5481710000000  0.4659100000000 1.0
C      1  0.4345150000000  0.4758220000000  0.4517210000000 1.0
C      1  0.4728070000000  0.5287970000000  0.4338490000000 1.0
C      1  0.5540260000000  0.5375420000000  0.5021720000000 1.0
C      1  0.5438730000000  0.5441560000000  0.4753680000000 1.0
C      1  0.4584770000000  0.4861260000000  0.4694090000000 1.0
C      1  0.5159010000000  0.5584210000000  0.5263140000000 1.0
C      1  0.5053270000000  0.4463470000000  0.5026770000000 1.0
C      1  0.5803360000000  0.5289480000000  0.5037270000000 1.0
C      1  0.4266020000000  0.5470700000000  0.4893040000000 1.0
C      1  0.5023540000000  0.5292880000000  0.4906520000000 1.0
C      1  0.4854510000000  0.4408790000000  0.5211590000000 1.0
C      1  0.4748290000000  0.4472660000000  0.4636180000000 1.0
C      1  0.4089010000000  0.5160170000000  0.5819050000000 1.0
C      1  0.4576000000000  0.5016780000000  0.5420570000000 1.0
C      1  0.5008180000000  0.4470390000000  0.4738640000000 1.0
C      1  0.5917270000000  0.4614380000000  0.5119040000000 1.0
C      1  0.4206280000000  0.4401910000000  0.5248770000000 1.0
C      1  0.5412690000000  0.5343970000000  0.4282450000000 1.0
C      1  0.4339410000000  0.5040400000000  0.4445430000000 1.0
C      1  0.5876030000000  0.4822410000000  0.4924920000000 1.0
C      1  0.4778510000000  0.5262230000000  0.5043700000000 1.0
C      1  0.4934720000000  0.5885240000000  0.4966970000000 1.0
C      1  0.5642290000000  0.4822030000000  0.4750300000000 1.0
C      1  0.4700050000000  0.4504380000000  0.5409490000000 1.0
C      1  0.5529740000000  0.4653270000000  0.5143050000000 1.0
C      1  0.4461610000000  0.5627690000000  0.5012090000000 1.0
C      1  0.4474090000000  0.4568920000000  0.5562850000000 1.0
C      1  0.5134790000000  0.4716070000000  0.4335970000000 1.0
C      1  0.4291400000000  0.4961760000000  0.5806360000000 1.0
C      1  0.4542340000000  0.4548610000000  0.4466580000000 1.0
C      1  0.4943000000000  0.5180130000000  0.4201590000000 1.0
C      1  0.5636180000000  0.5037940000000  0.4576880000000 1.0
C      1  0.4196210000000  0.4431650000000  0.4961860000000 1.0
C      1  0.5964450000000  0.5077430000000  0.4999600000000 1.0
C      1  0.4668800000000  0.5012330000000  0.5157660000000 1.0
C      1  0.4916160000000  0.5707930000000  0.5188330000000 1.0
C      1  0.4684820000000  0.5517380000000  0.5163940000000 1.0
C      1  0.4260160000000  0.4390510000000  0.5526400000000 1.0
C      1  0.4029410000000  0.4910720000000  0.5902500000000 1.0
C      1  0.5544470000000  0.5442760000000  0.5498660000000 1.0
C      1  0.4515680000000  0.5254850000000  0.4513410000000 1.0
C      1  0.5723880000000  0.4371190000000  0.5486190000000 1.0
C      1  0.5484720000000  0.4586860000000  0.4674240000000 1.0
C      1  0.4371200000000  0.4612080000000  0.5088720000000 1.0
C      1  0.5146720000000  0.5481040000000  0.4735330000000 1.0
C      1  0.4989820000000  0.4909270000000  0.4222640000000 1.0
C      1  0.5205540000000  0.4614070000000  0.4583500000000 1.0
C      1  0.5744370000000  0.4596010000000  0.5346940000000 1.0
C      1  0.5420950000000  0.5489980000000  0.5258060000000 1.0
C      1  0.4401170000000  0.4852950000000  0.5562640000000 1.0
C      1  0.5544030000000  0.5293900000000  0.4522040000000 1.0
C      1  0.5329640000000  0.4419130000000  0.5108690000000 1.0
C      1  0.5666600000000  0.5439430000000  0.5744740000000 1.0
C      1  0.4525250000000  0.4836120000000  0.4980370000000 1.0
C      1  0.5865260000000  0.5246310000000  0.5804700000000 1.0
C      1  0.5058600000000  0.5745350000000  0.4770440000000 1.0
C      1  0.5494290000000  0.4377190000000  0.4870810000000 1.0
C      1  0.5170360000000  0.5332750000000  0.4170210000000 1.0
C      1  0.5624500000000  0.5223800000000  0.5923880000000 1.0
END
