TITL C-38192-7909-136 1.68151109078347e-06 125000 -370.257694480578 0 0 60 (C2v) n - 1
REM
REM in /home/bkarasulu/CARBON/AIRSS/Generating-Clusters/EDIP-Nigel-Params/Higher-Symm/Box-15A/Only-C60/SD-CG/FIRE-HFTN
REM
REM
REM
REM
REM
REM ./C.cell (414f73aa93bd7a1190c7fd0f31ff2f98)
REM
REM compiler GCC version 9.2.1 20190827 (Red Hat 9.2.1-1)
REM options -cpp -mtune=generic -march=x86-64 -g -O0 -fpre-include=/usr/include/finclude/math-vector-fortran.h
REM seed 1390871506 -610379961 513710348 -1238030015 1500690825 -674916200 -1272475441 1107428496 100576286 1410984727 -279947960 -1602812583 -1664875790 -44651917 556213984 2005619482 -12423687 148890571 1863894997 -109220258 1855081066 -1699137231 799076901 -1973443062 -1365117031 -808179123 -930037819 981524706 -504182759 -2089443907 491008287 1971297578 1610362545
REM
CELL 1.54180   50.00000   50.00000   50.00000   90.00000   90.00000   90.00000
LATT -1
SFAC C  
C      1  0.5419690000000  0.5228910000000  0.5117110000000 1.0
C      1  0.5110340000000  0.5228910000000  0.4578480000000 1.0
C      1  0.4761240000000  0.5286240000000  0.4584290000000 1.0
C      1  0.4580310000000  0.5228910000000  0.4882890000000 1.0
C      1  0.4889660000000  0.5228910000000  0.5421520000000 1.0
C      1  0.5238760000000  0.5286240000000  0.5415710000000 1.0
C      1  0.4456160000000  0.4763600000000  0.5312340000000 1.0
C      1  0.5006840000000  0.4713430000000  0.5644810000000 1.0
C      1  0.5553510000000  0.4713430000000  0.5330840000000 1.0
C      1  0.5543840000000  0.4763600000000  0.4687660000000 1.0
C      1  0.4993160000000  0.4713430000000  0.4355190000000 1.0
C      1  0.4446490000000  0.4713430000000  0.4669160000000 1.0
C      1  0.4211920000000  0.5163640000000  0.5184360000000 1.0
C      1  0.4779660000000  0.5070120000000  0.5875680000000 1.0
C      1  0.5623390000000  0.5081070000000  0.5638070000000 1.0
C      1  0.5788080000000  0.5163640000000  0.4815640000000 1.0
C      1  0.5220340000000  0.5070120000000  0.4124320000000 1.0
C      1  0.4376610000000  0.5081070000000  0.4361930000000 1.0
C      1  0.4853310000000  0.4455280000000  0.4744600000000 1.0
C      1  0.4698770000000  0.4474910000000  0.5003110000000 1.0
C      1  0.4845520000000  0.4474910000000  0.5258620000000 1.0
C      1  0.5146690000000  0.4455280000000  0.5255400000000 1.0
C      1  0.5301230000000  0.4474910000000  0.4996890000000 1.0
C      1  0.5154480000000  0.4474910000000  0.4741380000000 1.0
C      1  0.4763010000000  0.5081070000000  0.4140010000000 1.0
C      1  0.4132600000000  0.5070120000000  0.4749050000000 1.0
C      1  0.4443630000000  0.5163640000000  0.5587800000000 1.0
C      1  0.5236990000000  0.5081070000000  0.5859990000000 1.0
C      1  0.5867400000000  0.5070120000000  0.5250950000000 1.0
C      1  0.5556370000000  0.5163640000000  0.4412200000000 1.0
C      1  0.5247910000000  0.4715810000000  0.4569490000000 1.0
C      1  0.4758780000000  0.4691190000000  0.4579990000000 1.0
C      1  0.4503220000000  0.4715810000000  0.4997190000000 1.0
C      1  0.4752090000000  0.4715810000000  0.5430510000000 1.0
C      1  0.5241220000000  0.4691190000000  0.5420010000000 1.0
C      1  0.5496780000000  0.4715810000000  0.5002810000000 1.0
C      1  0.4716340000000  0.5476570000000  0.4990510000000 1.0
C      1  0.4865260000000  0.5476570000000  0.5249790000000 1.0
C      1  0.5127080000000  0.5600650000000  0.5221270000000 1.0
C      1  0.5283660000000  0.5476570000000  0.5009490000000 1.0
C      1  0.5134740000000  0.5476570000000  0.4750210000000 1.0
C      1  0.4872920000000  0.5600650000000  0.4778730000000 1.0
C      1  0.4699290000000  0.4966980000000  0.4991120000000 1.0
C      1  0.4856140000000  0.4966980000000  0.5264220000000 1.0
C      1  0.5135290000000  0.4899880000000  0.5235560000000 1.0
C      1  0.5300710000000  0.4966980000000  0.5008880000000 1.0
C      1  0.5143860000000  0.4966980000000  0.4735780000000 1.0
C      1  0.4864710000000  0.4899880000000  0.4764440000000 1.0
C      1  0.5675210000000  0.5014950000000  0.4612200000000 1.0
C      1  0.4987800000000  0.4920970000000  0.4146570000000 1.0
C      1  0.4269000000000  0.4920970000000  0.4559400000000 1.0
C      1  0.4324790000000  0.5014950000000  0.5387800000000 1.0
C      1  0.5012200000000  0.4920970000000  0.5853430000000 1.0
C      1  0.5731000000000  0.4920970000000  0.5440600000000 1.0
C      1  0.4615080000000  0.5213760000000  0.4329790000000 1.0
C      1  0.4279620000000  0.5224810000000  0.4925380000000 1.0
C      1  0.4701440000000  0.5224810000000  0.5659830000000 1.0
C      1  0.5384920000000  0.5213760000000  0.5670210000000 1.0
C      1  0.5720380000000  0.5224810000000  0.5074620000000 1.0
C      1  0.5298560000000  0.5224810000000  0.4340170000000 1.0
END
