TITL C-38195-9455-526 0.819455301474069 125000 -347.160513736202 0 0 60 (C1) n - 1
REM
REM in /home/bkarasulu/CARBON/AIRSS/Generating-Clusters/EDIP-Nigel-Params/Higher-Symm/Box-15A/Only-C60/SD-CG/FIRE-HFTN
REM
REM
REM
REM
REM
REM ./C.cell (414f73aa93bd7a1190c7fd0f31ff2f98)
REM
REM compiler GCC version 9.2.1 20190827 (Red Hat 9.2.1-1)
REM options -cpp -mtune=generic -march=x86-64 -g -O0 -fpre-include=/usr/include/finclude/math-vector-fortran.h
REM seed -534685770 178914306 -1372053133 -553935671 -1702327187 -1153004580 -641368615 1711426356 -886293123 1361433201 360144998 1135124218 -1687088131 1712631856 436303836 -770791142 1678263232 1104368726 -1359423631 -1691369964 345093510 -1679252340 -1426828841 -635049179 -1936571842 1027185068 -643266343 1792406994 702936723 -814092888 1931914986 982371967 -542699502
REM
CELL 1.54180   50.00000   50.00000   50.00000   90.00000   90.00000   90.00000
LATT -1
SFAC C  
C      1  0.5125210000000  0.5658440000000  0.5408810000000 1.0
C      1  0.4456360000000  0.5377510000000  0.5104150000000 1.0
C      1  0.4798910000000  0.4323050000000  0.5549610000000 1.0
C      1  0.5031120000000  0.4893850000000  0.5035410000000 1.0
C      1  0.4652940000000  0.5326150000000  0.5628120000000 1.0
C      1  0.4866940000000  0.5099510000000  0.4946120000000 1.0
C      1  0.4398720000000  0.5191770000000  0.4883820000000 1.0
C      1  0.5037090000000  0.5164690000000  0.4109940000000 1.0
C      1  0.5552020000000  0.4522460000000  0.4359880000000 1.0
C      1  0.4402610000000  0.4573240000000  0.5340860000000 1.0
C      1  0.4574600000000  0.4377750000000  0.4903720000000 1.0
C      1  0.4708770000000  0.5682190000000  0.4780970000000 1.0
C      1  0.5280740000000  0.4168680000000  0.5034760000000 1.0
C      1  0.5752700000000  0.5736620000000  0.4684490000000 1.0
C      1  0.4853790000000  0.5744700000000  0.4555760000000 1.0
C      1  0.5379410000000  0.4496290000000  0.4145280000000 1.0
C      1  0.5594760000000  0.5517240000000  0.5100860000000 1.0
C      1  0.5673580000000  0.5090950000000  0.5344450000000 1.0
C      1  0.5038350000000  0.5387870000000  0.5359400000000 1.0
C      1  0.4836090000000  0.4521030000000  0.5727040000000 1.0
C      1  0.5742800000000  0.5314370000000  0.5209860000000 1.0
C      1  0.4221510000000  0.5017750000000  0.5335420000000 1.0
C      1  0.5726690000000  0.4020650000000  0.5153320000000 1.0
C      1  0.5596920000000  0.4061570000000  0.5386050000000 1.0
C      1  0.4851610000000  0.4419330000000  0.5052080000000 1.0
C      1  0.4960220000000  0.4582750000000  0.4523390000000 1.0
C      1  0.4677800000000  0.5589950000000  0.5039470000000 1.0
C      1  0.4369800000000  0.5256260000000  0.5376770000000 1.0
C      1  0.4593540000000  0.4786390000000  0.5263780000000 1.0
C      1  0.4447400000000  0.4312880000000  0.5195410000000 1.0
C      1  0.4998850000000  0.4966740000000  0.5623870000000 1.0
C      1  0.5066780000000  0.5916680000000  0.4575680000000 1.0
C      1  0.5472960000000  0.5714760000000  0.5265340000000 1.0
C      1  0.5090830000000  0.4316530000000  0.4902890000000 1.0
C      1  0.5445250000000  0.3987160000000  0.5158410000000 1.0
C      1  0.4820050000000  0.4794450000000  0.5770530000000 1.0
C      1  0.5775330000000  0.5587420000000  0.4907930000000 1.0
C      1  0.4497270000000  0.4855420000000  0.4705910000000 1.0
C      1  0.4464430000000  0.4589340000000  0.4757600000000 1.0
C      1  0.5261520000000  0.4893450000000  0.5583000000000 1.0
C      1  0.4839480000000  0.5581530000000  0.4335680000000 1.0
C      1  0.5114670000000  0.4922180000000  0.4213030000000 1.0
C      1  0.4592420000000  0.4991960000000  0.4932580000000 1.0
C      1  0.5500670000000  0.4942170000000  0.5479080000000 1.0
C      1  0.5663580000000  0.5947140000000  0.4535070000000 1.0
C      1  0.4928240000000  0.5248940000000  0.5594220000000 1.0
C      1  0.4570190000000  0.4905020000000  0.5819510000000 1.0
C      1  0.4916750000000  0.4741620000000  0.4305540000000 1.0
C      1  0.5209840000000  0.4704840000000  0.4054700000000 1.0
C      1  0.5296500000000  0.6042990000000  0.4497030000000 1.0
C      1  0.4741730000000  0.4236870000000  0.5289510000000 1.0
C      1  0.5156930000000  0.4443800000000  0.4656320000000 1.0
C      1  0.5380540000000  0.4358010000000  0.4502480000000 1.0
C      1  0.5480160000000  0.5920880000000  0.4329050000000 1.0
C      1  0.4468340000000  0.5146590000000  0.5737080000000 1.0
C      1  0.4856850000000  0.4703600000000  0.5147090000000 1.0
C      1  0.5225510000000  0.5828180000000  0.5213040000000 1.0
C      1  0.4844560000000  0.5345610000000  0.5122580000000 1.0
C      1  0.4192220000000  0.4751460000000  0.5282690000000 1.0
C      1  0.4924550000000  0.5398760000000  0.4163550000000 1.0
END
