TITL C-38194-9318-313 -8.10367495046986e-07 125000 -360.492140152691 0 0 60 (C5) n - 1
REM
REM in /home/bkarasulu/CARBON/AIRSS/Generating-Clusters/EDIP-Nigel-Params/Higher-Symm/Box-15A/Only-C60/SD-CG/FIRE-HFTN
REM
REM
REM
REM
REM
REM ./C.cell (414f73aa93bd7a1190c7fd0f31ff2f98)
REM
REM compiler GCC version 9.2.1 20190827 (Red Hat 9.2.1-1)
REM options -cpp -mtune=generic -march=x86-64 -g -O0 -fpre-include=/usr/include/finclude/math-vector-fortran.h
REM seed 1160185504 365178289 -1704937757 1357436580 761944453 2139224823 26947899 1088968572 1019477078 -889959649 1753289449 1793394873 -210041800 -2078653805 1479341083 1748539312 1033384281 -704859214 855613776 -838345565 -109020352 1881495609 823425448 -2115662857 995291854 1965365420 -1131877888 1243139241 -960858091 1544827956 1234188470 711020195 -591937304
REM
CELL 1.54180   50.00000   50.00000   50.00000   90.00000   90.00000   90.00000
LATT -1
SFAC C  
C      1  0.4862140000000  0.5213340000000  0.5627700000000 1.0
C      1  0.5160300000000  0.5197040000000  0.5627700000000 1.0
C      1  0.5236930000000  0.4908430000000  0.5627700000000 1.0
C      1  0.4986130000000  0.4746370000000  0.5627700000000 1.0
C      1  0.4754500000000  0.4934820000000  0.5627700000000 1.0
C      1  0.5385290000000  0.4847640000000  0.5385450000000 1.0
C      1  0.4974160000000  0.4586490000000  0.5385450000000 1.0
C      1  0.4598740000000  0.4896790000000  0.5385450000000 1.0
C      1  0.4777850000000  0.5349730000000  0.5385450000000 1.0
C      1  0.5263960000000  0.5319350000000  0.5385450000000 1.0
C      1  0.5559480000000  0.4587480000000  0.4589680000000 1.0
C      1  0.4780550000000  0.4340430000000  0.4589680000000 1.0
C      1  0.4304900000000  0.5004890000000  0.4589680000000 1.0
C      1  0.4789850000000  0.5662590000000  0.4589680000000 1.0
C      1  0.5565220000000  0.5404620000000  0.4589680000000 1.0
C      1  0.5380930000000  0.5577400000000  0.5335770000000 1.0
C      1  0.5666850000000  0.4816140000000  0.5335770000000 1.0
C      1  0.5031210000000  0.4308970000000  0.5335770000000 1.0
C      1  0.4352430000000  0.4756780000000  0.5335770000000 1.0
C      1  0.4568570000000  0.5540710000000  0.5335770000000 1.0
C      1  0.5203240000000  0.4864990000000  0.4356080000000 1.0
C      1  0.4934400000000  0.4764980000000  0.4356080000000 1.0
C      1  0.4756220000000  0.4989760000000  0.4356080000000 1.0
C      1  0.4914930000000  0.5228690000000  0.4356080000000 1.0
C      1  0.5191210000000  0.5151580000000  0.4356080000000 1.0
C      1  0.4820940000000  0.5484600000000  0.4394310000000 1.0
C      1  0.5405540000000  0.5320050000000  0.4394310000000 1.0
C      1  0.5429700000000  0.4713200000000  0.4394310000000 1.0
C      1  0.4860030000000  0.4502700000000  0.4394310000000 1.0
C      1  0.4483790000000  0.4979450000000  0.4394310000000 1.0
C      1  0.5276740000000  0.5026180000000  0.5062070000000 1.0
C      1  0.5110420000000  0.4744900000000  0.5062070000000 1.0
C      1  0.4791500000000  0.4816160000000  0.5062070000000 1.0
C      1  0.4760730000000  0.5141480000000  0.5062070000000 1.0
C      1  0.5060620000000  0.5271280000000  0.5062070000000 1.0
C      1  0.5529360000000  0.4527620000000  0.4858600000000 1.0
C      1  0.4714320000000  0.4350570000000  0.4858600000000 1.0
C      1  0.4294080000000  0.5071010000000  0.4858600000000 1.0
C      1  0.4849390000000  0.5693310000000  0.4858600000000 1.0
C      1  0.5612840000000  0.5357480000000  0.4858600000000 1.0
C      1  0.5747210000000  0.5020530000000  0.5163620000000 1.0
C      1  0.5250420000000  0.4295710000000  0.5163620000000 1.0
C      1  0.4407560000000  0.4544190000000  0.5163620000000 1.0
C      1  0.4383430000000  0.5422590000000  0.5163620000000 1.0
C      1  0.5211380000000  0.5716980000000  0.5163620000000 1.0
C      1  0.5644870000000  0.5575320000000  0.5244480000000 1.0
C      1  0.5746430000000  0.4564470000000  0.5244480000000 1.0
C      1  0.4816450000000  0.4155510000000  0.5244480000000 1.0
C      1  0.4140130000000  0.4913610000000  0.5244480000000 1.0
C      1  0.4652120000000  0.5791090000000  0.5244480000000 1.0
C      1  0.4600790000000  0.4596600000000  0.4964970000000 1.0
C      1  0.4492980000000  0.5255010000000  0.4964970000000 1.0
C      1  0.5085850000000  0.5561010000000  0.4964970000000 1.0
C      1  0.5560080000000  0.5091710000000  0.4964970000000 1.0
C      1  0.5260290000000  0.4495670000000  0.4964970000000 1.0
C      1  0.5782430000000  0.5517430000000  0.5017270000000 1.0
C      1  0.5733890000000  0.4415760000000  0.5017270000000 1.0
C      1  0.4671140000000  0.4121490000000  0.5017270000000 1.0
C      1  0.4062860000000  0.5041290000000  0.5017270000000 1.0
C      1  0.4749680000000  0.5904030000000  0.5017270000000 1.0
END
