TITL C-38197-8510-21 2.31434974015813e-07 125000 -367.745033482266 0 0 60 (C4) n - 1
REM
REM in /home/bkarasulu/CARBON/AIRSS/Generating-Clusters/EDIP-Nigel-Params/Higher-Symm/Box-15A/Only-C60/SD-CG/FIRE-HFTN
REM
REM
REM
REM
REM
REM ./C.cell (414f73aa93bd7a1190c7fd0f31ff2f98)
REM
REM compiler GCC version 9.2.1 20190827 (Red Hat 9.2.1-1)
REM options -cpp -mtune=generic -march=x86-64 -g -O0 -fpre-include=/usr/include/finclude/math-vector-fortran.h
REM seed -1505821749 -1927857008 358055605 1778288948 -670166398 820836421 1085242420 352413973 1212657123 -1653766454 685608245 -1485782300 694749503 720375106 1424193713 269325976 238697388 -640364498 2020568869 -530080030 1342070970 -83946516 1377814599 -180025062 324321561 -2013569467 -1875109223 1722655695 1396457692 -2100367720 1242603643 1032350481 1412099141
REM
CELL 1.54180   50.00000   50.00000   50.00000   90.00000   90.00000   90.00000
LATT -1
SFAC C  
C      1  0.4859020000000  0.5293300000000  0.5604570000000 1.0
C      1  0.4395430000000  0.5293300000000  0.4859020000000 1.0
C      1  0.5140980000000  0.5293300000000  0.4395430000000 1.0
C      1  0.5604570000000  0.5293300000000  0.5140980000000 1.0
C      1  0.5426970000000  0.4553540000000  0.5642810000000 1.0
C      1  0.4357190000000  0.4553540000000  0.5426970000000 1.0
C      1  0.4573030000000  0.4553540000000  0.4357190000000 1.0
C      1  0.5642810000000  0.4553540000000  0.4573030000000 1.0
C      1  0.5050070000000  0.4359930000000  0.5450000000000 1.0
C      1  0.4550000000000  0.4359930000000  0.5050070000000 1.0
C      1  0.4949930000000  0.4359930000000  0.4550000000000 1.0
C      1  0.5450000000000  0.4359930000000  0.4949930000000 1.0
C      1  0.5482300000000  0.4805760000000  0.5523320000000 1.0
C      1  0.4476680000000  0.4805760000000  0.5482300000000 1.0
C      1  0.4517700000000  0.4805760000000  0.4476680000000 1.0
C      1  0.5523320000000  0.4805760000000  0.4517700000000 1.0
C      1  0.5280680000000  0.5020690000000  0.5609540000000 1.0
C      1  0.4390460000000  0.5020690000000  0.5280680000000 1.0
C      1  0.4719320000000  0.5020690000000  0.4390460000000 1.0
C      1  0.5609540000000  0.5020690000000  0.4719320000000 1.0
C      1  0.4702120000000  0.5388100000000  0.5200580000000 1.0
C      1  0.4799420000000  0.5388100000000  0.4702120000000 1.0
C      1  0.5297880000000  0.5388100000000  0.4799420000000 1.0
C      1  0.5200580000000  0.5388100000000  0.5297880000000 1.0
C      1  0.4485690000000  0.5284940000000  0.5373030000000 1.0
C      1  0.4626970000000  0.5284940000000  0.4485690000000 1.0
C      1  0.5514310000000  0.5284940000000  0.4626970000000 1.0
C      1  0.5373030000000  0.5284940000000  0.5514310000000 1.0
C      1  0.5519310000000  0.5016930000000  0.5028240000000 1.0
C      1  0.4971760000000  0.5016930000000  0.5519310000000 1.0
C      1  0.4480690000000  0.5016930000000  0.4971760000000 1.0
C      1  0.5028240000000  0.5016930000000  0.4480690000000 1.0
C      1  0.4990620000000  0.5007310000000  0.5219660000000 1.0
C      1  0.4780340000000  0.5007310000000  0.4990620000000 1.0
C      1  0.5009380000000  0.5007310000000  0.4780340000000 1.0
C      1  0.5219660000000  0.5007310000000  0.5009380000000 1.0
C      1  0.4822080000000  0.4517410000000  0.5416670000000 1.0
C      1  0.4583330000000  0.4517410000000  0.4822080000000 1.0
C      1  0.5177920000000  0.4517410000000  0.4583330000000 1.0
C      1  0.5416670000000  0.4517410000000  0.5177920000000 1.0
C      1  0.4957560000000  0.5786810000000  0.5215930000000 1.0
C      1  0.4784070000000  0.5786810000000  0.4957560000000 1.0
C      1  0.5042440000000  0.5786810000000  0.4784070000000 1.0
C      1  0.5215930000000  0.5786810000000  0.5042440000000 1.0
C      1  0.4635270000000  0.5504780000000  0.4930160000000 1.0
C      1  0.5069840000000  0.5504780000000  0.4635270000000 1.0
C      1  0.5364730000000  0.5504780000000  0.5069840000000 1.0
C      1  0.4930160000000  0.5504780000000  0.5364730000000 1.0
C      1  0.4358010000000  0.5284310000000  0.4578320000000 1.0
C      1  0.5421680000000  0.5284310000000  0.4358010000000 1.0
C      1  0.5641990000000  0.5284310000000  0.5421680000000 1.0
C      1  0.4578320000000  0.5284310000000  0.5641990000000 1.0
C      1  0.4441160000000  0.4773850000000  0.4773990000000 1.0
C      1  0.5226010000000  0.4773850000000  0.4441160000000 1.0
C      1  0.5558840000000  0.4773850000000  0.5226010000000 1.0
C      1  0.4773990000000  0.4773850000000  0.5558840000000 1.0
C      1  0.4675930000000  0.4402360000000  0.4570460000000 1.0
C      1  0.5429540000000  0.4402360000000  0.4675930000000 1.0
C      1  0.5324070000000  0.4402360000000  0.5429540000000 1.0
C      1  0.4570460000000  0.4402360000000  0.5324070000000 1.0
END
