TITL C-38184-643-79 9.97810298212592e-09 125000 -368.281490602336 0 0 60 (C1) n - 1
REM
REM in /home/bkarasulu/CARBON/AIRSS/Generating-Clusters/EDIP-Nigel-Params/Higher-Symm/Box-15A/Only-C60/SD-CG/FIRE-HFTN
REM
REM
REM
REM
REM
REM ./C.cell (414f73aa93bd7a1190c7fd0f31ff2f98)
REM
REM compiler GCC version 9.2.1 20190827 (Red Hat 9.2.1-1)
REM options -cpp -mtune=generic -march=x86-64 -g -O0 -fpre-include=/usr/include/finclude/math-vector-fortran.h
REM seed 563677018 -1255991887 -346578913 -855287938 -635559077 -1267680768 98935235 446164194 1697255481 -1074271147 1675937544 -79539733 -603445048 -818211552 2115373318 -501592497 687667476 -902993461 -1535239476 -423655879 347093831 -1746656980 -2113548230 -1942050829 1623087586 1009664393 -14639686 153589231 -1598028723 -877216386 -1329417898 -533856955 -1337202485
REM
CELL 1.54180   50.00000   50.00000   50.00000   90.00000   90.00000   90.00000
LATT -1
SFAC C  
C      1  0.4301020000000  0.4972480000000  0.5278530000000 1.0
C      1  0.5567700000000  0.4957530000000  0.5446570000000 1.0
C      1  0.5195570000000  0.4875920000000  0.4385070000000 1.0
C      1  0.5378670000000  0.4457200000000  0.4609540000000 1.0
C      1  0.4436120000000  0.4447030000000  0.4860600000000 1.0
C      1  0.5121020000000  0.4389840000000  0.5552090000000 1.0
C      1  0.4741790000000  0.5692250000000  0.5113480000000 1.0
C      1  0.5246810000000  0.5735320000000  0.5102050000000 1.0
C      1  0.4973390000000  0.5639350000000  0.4692320000000 1.0
C      1  0.4511010000000  0.5674940000000  0.5267320000000 1.0
C      1  0.5476490000000  0.5667390000000  0.5243480000000 1.0
C      1  0.4992850000000  0.5569340000000  0.4426540000000 1.0
C      1  0.4775270000000  0.4550630000000  0.5213180000000 1.0
C      1  0.5267980000000  0.4550180000000  0.5066780000000 1.0
C      1  0.4911260000000  0.4517900000000  0.4768280000000 1.0
C      1  0.5414830000000  0.5307460000000  0.4418130000000 1.0
C      1  0.4332080000000  0.5138290000000  0.4934690000000 1.0
C      1  0.5329960000000  0.4991180000000  0.5628140000000 1.0
C      1  0.5525820000000  0.5148900000000  0.4757330000000 1.0
C      1  0.4542690000000  0.5135310000000  0.4597170000000 1.0
C      1  0.4901260000000  0.5070780000000  0.5566480000000 1.0
C      1  0.5144380000000  0.5308240000000  0.5012920000000 1.0
C      1  0.4882240000000  0.5258520000000  0.4900870000000 1.0
C      1  0.5045960000000  0.5376700000000  0.5294910000000 1.0
C      1  0.4700910000000  0.4558150000000  0.5677520000000 1.0
C      1  0.5688540000000  0.4650980000000  0.4882150000000 1.0
C      1  0.4588290000000  0.4588880000000  0.4420460000000 1.0
C      1  0.5064390000000  0.4629540000000  0.4343810000000 1.0
C      1  0.4362550000000  0.4719160000000  0.5374280000000 1.0
C      1  0.5615370000000  0.4696240000000  0.5351040000000 1.0
C      1  0.4837330000000  0.5068530000000  0.4670170000000 1.0
C      1  0.4768600000000  0.5111380000000  0.5293460000000 1.0
C      1  0.5359110000000  0.5092980000000  0.5003530000000 1.0
C      1  0.5062840000000  0.4455060000000  0.5280220000000 1.0
C      1  0.5191480000000  0.4404570000000  0.4814120000000 1.0
C      1  0.4697360000000  0.4402810000000  0.4956580000000 1.0
C      1  0.4482660000000  0.5180750000000  0.5346430000000 1.0
C      1  0.5552190000000  0.5156780000000  0.5231210000000 1.0
C      1  0.5006940000000  0.5091590000000  0.4415890000000 1.0
C      1  0.4849390000000  0.4514080000000  0.4479610000000 1.0
C      1  0.4570890000000  0.4541390000000  0.5430980000000 1.0
C      1  0.5563920000000  0.4555960000000  0.5117230000000 1.0
C      1  0.4365220000000  0.4917650000000  0.4711950000000 1.0
C      1  0.5076510000000  0.4834260000000  0.5571750000000 1.0
C      1  0.5472920000000  0.4934470000000  0.4515070000000 1.0
C      1  0.4470140000000  0.4649260000000  0.4667970000000 1.0
C      1  0.4980720000000  0.4589200000000  0.5692870000000 1.0
C      1  0.5571620000000  0.4662430000000  0.4625560000000 1.0
C      1  0.5573800000000  0.5425560000000  0.5305140000000 1.0
C      1  0.5132070000000  0.5342080000000  0.4342900000000 1.0
C      1  0.4398720000000  0.5443900000000  0.5338070000000 1.0
C      1  0.5203840000000  0.4833220000000  0.4985340000000 1.0
C      1  0.4931380000000  0.4818120000000  0.4867970000000 1.0
C      1  0.4782790000000  0.4843210000000  0.5125060000000 1.0
C      1  0.4746730000000  0.5517980000000  0.4860720000000 1.0
C      1  0.4997530000000  0.5676240000000  0.5266460000000 1.0
C      1  0.5222210000000  0.5557580000000  0.4854800000000 1.0
C      1  0.4475990000000  0.5384990000000  0.4773660000000 1.0
C      1  0.5154500000000  0.5268220000000  0.5583770000000 1.0
C      1  0.5464370000000  0.5450120000000  0.4685790000000 1.0
END
