TITL C-38196-2854-213 -3.09969280347745e-06 125000 -337.273687678072 0 0 60 (T23) n - 1
REM
REM in /home/bkarasulu/CARBON/AIRSS/Generating-Clusters/EDIP-Nigel-Params/Higher-Symm/Box-15A/Only-C60/SD-CG/FIRE-HFTN
REM
REM
REM
REM
REM
REM ./C.cell (414f73aa93bd7a1190c7fd0f31ff2f98)
REM
REM compiler GCC version 9.2.1 20190827 (Red Hat 9.2.1-1)
REM options -cpp -mtune=generic -march=x86-64 -g -O0 -fpre-include=/usr/include/finclude/math-vector-fortran.h
REM seed 1022371968 489749800 2085907255 -416223604 1937176494 -1409125832 -1202350666 615642079 23538048 1620465936 503859925 -1323143268 1753888658 -667422220 -1936686569 1297867826 1568282229 405507932 481939803 256606007 -1595233349 325580408 -501972508 -903502946 -613154846 401537178 -1248651812 1261913127 1801344815 55351959 -447285518 -653267033 327731700
REM
CELL 1.54180   50.00000   50.00000   50.00000   90.00000   90.00000   90.00000
LATT -1
SFAC C  
C      1  0.5538630000000  0.4878000000000  0.5579300000000 1.0
C      1  0.4878000000000  0.5579300000000  0.5538630000000 1.0
C      1  0.5579300000000  0.5538630000000  0.4878000000000 1.0
C      1  0.4461370000000  0.4878000000000  0.4420700000000 1.0
C      1  0.4461380000000  0.5122000000000  0.5579300000000 1.0
C      1  0.5538620000000  0.5122000000000  0.4420700000000 1.0
C      1  0.5122000000000  0.5579300000000  0.4461370000000 1.0
C      1  0.5122000000000  0.4420700000000  0.5538630000000 1.0
C      1  0.4878000000000  0.4420700000000  0.4461380000000 1.0
C      1  0.4420700000000  0.5538630000000  0.5122000000000 1.0
C      1  0.4420700000000  0.4461370000000  0.4878000000000 1.0
C      1  0.5579300000000  0.4461370000000  0.5122000000000 1.0
C      1  0.5553320000000  0.5180060000000  0.5618820000000 1.0
C      1  0.4819940000000  0.4381180000000  0.5553320000000 1.0
C      1  0.5618820000000  0.4446680000000  0.4819940000000 1.0
C      1  0.4446680000000  0.5180060000000  0.4381180000000 1.0
C      1  0.4446680000000  0.4819940000000  0.5618830000000 1.0
C      1  0.5553320000000  0.4819940000000  0.4381180000000 1.0
C      1  0.5180060000000  0.4381180000000  0.4446680000000 1.0
C      1  0.5180060000000  0.5618820000000  0.5553320000000 1.0
C      1  0.4819940000000  0.5618820000000  0.4446680000000 1.0
C      1  0.4381180000000  0.4446680000000  0.5180060000000 1.0
C      1  0.4381180000000  0.5553320000000  0.4819940000000 1.0
C      1  0.5618820000000  0.5553320000000  0.5180060000000 1.0
C      1  0.4761190000000  0.5192050000000  0.4355890000000 1.0
C      1  0.5192050000000  0.4355890000000  0.4761200000000 1.0
C      1  0.4355890000000  0.4761200000000  0.5192050000000 1.0
C      1  0.5238810000000  0.5192050000000  0.5644110000000 1.0
C      1  0.5238800000000  0.4807950000000  0.4355890000000 1.0
C      1  0.4761200000000  0.4807950000000  0.5644110000000 1.0
C      1  0.4807950000000  0.4355890000000  0.5238810000000 1.0
C      1  0.4807950000000  0.5644110000000  0.4761190000000 1.0
C      1  0.5192050000000  0.5644110000000  0.5238800000000 1.0
C      1  0.5644110000000  0.4761190000000  0.4807950000000 1.0
C      1  0.5644110000000  0.5238810000000  0.5192050000000 1.0
C      1  0.4355890000000  0.5238810000000  0.4807950000000 1.0
C      1  0.4767690000000  0.4891850000000  0.4418220000000 1.0
C      1  0.5108150000000  0.5581780000000  0.4767690000000 1.0
C      1  0.4418220000000  0.5232310000000  0.5108150000000 1.0
C      1  0.5232310000000  0.4891850000000  0.5581780000000 1.0
C      1  0.5232310000000  0.5108150000000  0.4418220000000 1.0
C      1  0.4767690000000  0.5108150000000  0.5581780000000 1.0
C      1  0.4891850000000  0.5581780000000  0.5232310000000 1.0
C      1  0.4891850000000  0.4418220000000  0.4767690000000 1.0
C      1  0.5108150000000  0.4418220000000  0.5232310000000 1.0
C      1  0.5581780000000  0.5232310000000  0.4891850000000 1.0
C      1  0.5581780000000  0.4767690000000  0.5108150000000 1.0
C      1  0.4418220000000  0.4767690000000  0.4891850000000 1.0
C      1  0.4321580000000  0.5038640000000  0.5317790000000 1.0
C      1  0.5038640000000  0.5317790000000  0.4321580000000 1.0
C      1  0.5678420000000  0.5038640000000  0.4682210000000 1.0
C      1  0.5678420000000  0.4961360000000  0.5317790000000 1.0
C      1  0.4321580000000  0.4961360000000  0.4682210000000 1.0
C      1  0.5038640000000  0.4682210000000  0.5678420000000 1.0
C      1  0.5317790000000  0.4321580000000  0.5038640000000 1.0
C      1  0.4682210000000  0.4321580000000  0.4961360000000 1.0
C      1  0.4682210000000  0.5678420000000  0.5038640000000 1.0
C      1  0.5317790000000  0.5678420000000  0.4961360000000 1.0
C      1  0.4961360000000  0.4682210000000  0.4321580000000 1.0
C      1  0.4961360000000  0.5317790000000  0.5678420000000 1.0
END
