TITL C-38187-2739-432 -4.11737847352735e-06 125000 -344.318044529509 0 0 60 (Ci) n - 1
REM
REM in /home/bkarasulu/CARBON/AIRSS/Generating-Clusters/EDIP-Nigel-Params/Higher-Symm/Box-15A/Only-C60/SD-CG/FIRE-HFTN
REM
REM
REM
REM
REM
REM ./C.cell (414f73aa93bd7a1190c7fd0f31ff2f98)
REM
REM compiler GCC version 9.2.1 20190827 (Red Hat 9.2.1-1)
REM options -cpp -mtune=generic -march=x86-64 -g -O0 -fpre-include=/usr/include/finclude/math-vector-fortran.h
REM seed 928533260 -1327248614 -1153616716 -728919493 1497172412 -279242957 109479459 545408229 -1101806709 -825107107 -198088516 -1504620208 237185449 -1377473218 1203555911 -1122163857 1876798409 1869691610 -718998353 -1572951749 1877614970 1495007973 1590685715 -168677720 1005616504 -1844936170 -1801784458 962299680 -663355768 -1275848751 1853201755 498747345 646775224
REM
CELL 1.54180   50.00000   50.00000   50.00000   90.00000   90.00000   90.00000
LATT -1
SFAC C  
C      1  0.5074250000000  0.4907800000000  0.4428580000000 1.0
C      1  0.5533090000000  0.5094960000000  0.4779320000000 1.0
C      1  0.5465820000000  0.4904880000000  0.5351920000000 1.0
C      1  0.4925750000000  0.5092200000000  0.5571420000000 1.0
C      1  0.4466910000000  0.4905040000000  0.5220680000000 1.0
C      1  0.4534180000000  0.5095120000000  0.4648080000000 1.0
C      1  0.4705100000000  0.4608380000000  0.4326940000000 1.0
C      1  0.5425510000000  0.5419130000000  0.4410620000000 1.0
C      1  0.5732080000000  0.4583260000000  0.5070450000000 1.0
C      1  0.5294900000000  0.5391620000000  0.5673060000000 1.0
C      1  0.4574490000000  0.4580870000000  0.5589380000000 1.0
C      1  0.4267920000000  0.5416740000000  0.4929550000000 1.0
C      1  0.4976920000000  0.5327830000000  0.4542190000000 1.0
C      1  0.5386770000000  0.4671090000000  0.4750050000000 1.0
C      1  0.5415280000000  0.5328180000000  0.5216990000000 1.0
C      1  0.5023080000000  0.4672170000000  0.5457810000000 1.0
C      1  0.4613230000000  0.5328910000000  0.5249950000000 1.0
C      1  0.4584720000000  0.4671820000000  0.4783010000000 1.0
C      1  0.4629620000000  0.5566950000000  0.5419350000000 1.0
C      1  0.4439320000000  0.4436310000000  0.4868410000000 1.0
C      1  0.4827260000000  0.5561980000000  0.4456310000000 1.0
C      1  0.5370380000000  0.4433050000000  0.4580650000000 1.0
C      1  0.5560680000000  0.5563690000000  0.5131590000000 1.0
C      1  0.5172740000000  0.4438020000000  0.5543690000000 1.0
C      1  0.5172230000000  0.4657780000000  0.4961860000000 1.0
C      1  0.5120360000000  0.5345860000000  0.5146700000000 1.0
C      1  0.4937370000000  0.4656910000000  0.5166730000000 1.0
C      1  0.4827770000000  0.5342220000000  0.5038140000000 1.0
C      1  0.4879640000000  0.4654140000000  0.4853300000000 1.0
C      1  0.5062630000000  0.5343090000000  0.4833270000000 1.0
C      1  0.5330350000000  0.4915370000000  0.4603010000000 1.0
C      1  0.5510940000000  0.5083400000000  0.5087650000000 1.0
C      1  0.5182600000000  0.4917510000000  0.5477040000000 1.0
C      1  0.4669650000000  0.5084630000000  0.5396990000000 1.0
C      1  0.4489060000000  0.4916600000000  0.4912350000000 1.0
C      1  0.4817400000000  0.5082490000000  0.4522960000000 1.0
C      1  0.4975790000000  0.4618200000000  0.4390730000000 1.0
C      1  0.5478430000000  0.5387380000000  0.4684880000000 1.0
C      1  0.5530840000000  0.4613530000000  0.5263000000000 1.0
C      1  0.5024210000000  0.5381800000000  0.5609270000000 1.0
C      1  0.4521570000000  0.4612620000000  0.5315120000000 1.0
C      1  0.4469160000000  0.5386470000000  0.4737000000000 1.0
C      1  0.4797890000000  0.4734450000000  0.5638260000000 1.0
C      1  0.4346100000000  0.5265710000000  0.5145220000000 1.0
C      1  0.4536910000000  0.4739690000000  0.4499960000000 1.0
C      1  0.5202110000000  0.5265550000000  0.4361740000000 1.0
C      1  0.5653900000000  0.4734290000000  0.4854780000000 1.0
C      1  0.5463090000000  0.5260310000000  0.5500040000000 1.0
C      1  0.4813870000000  0.4235270000000  0.5106000000000 1.0
C      1  0.4795060000000  0.5764680000000  0.4899570000000 1.0
C      1  0.5005890000000  0.4230890000000  0.4883580000000 1.0
C      1  0.5186130000000  0.5764730000000  0.4894000000000 1.0
C      1  0.5204940000000  0.4235320000000  0.5100430000000 1.0
C      1  0.4994110000000  0.5769110000000  0.5116420000000 1.0
C      1  0.5443880000000  0.5617520000000  0.4879430000000 1.0
C      1  0.5337080000000  0.4389190000000  0.5318610000000 1.0
C      1  0.4909320000000  0.5597090000000  0.5444230000000 1.0
C      1  0.4556120000000  0.4382480000000  0.5120570000000 1.0
C      1  0.4662920000000  0.5610810000000  0.4681390000000 1.0
C      1  0.5090680000000  0.4402910000000  0.4555770000000 1.0
END
