TITL C-38196-2854-27 -3.88958750028607e-06 125000 -370.058643513792 0 0 60 (C1) n - 1
REM
REM in /home/bkarasulu/CARBON/AIRSS/Generating-Clusters/EDIP-Nigel-Params/Higher-Symm/Box-15A/Only-C60/SD-CG/FIRE-HFTN
REM
REM
REM
REM
REM
REM ./C.cell (414f73aa93bd7a1190c7fd0f31ff2f98)
REM
REM compiler GCC version 9.2.1 20190827 (Red Hat 9.2.1-1)
REM options -cpp -mtune=generic -march=x86-64 -g -O0 -fpre-include=/usr/include/finclude/math-vector-fortran.h
REM seed -1624372436 -1416549223 846296552 -980517727 -1956107214 2123400695 -473958719 943142765 -1515829137 -1590908126 220665977 -1442880626 1531670038 -1061428441 273719018 -975677726 -322897599 -76520143 -633954173 849225559 2048516778 2006695050 -43566319 1737266490 544997082 -475335963 -1708499458 1674076837 104127794 1705839310 1057921025 -1658479038 928804869
REM
CELL 1.54180   50.00000   50.00000   50.00000   90.00000   90.00000   90.00000
LATT -1
SFAC C  
C      1  0.5269930000000  0.5224710000000  0.5613950000000 1.0
C      1  0.4992550000000  0.5340330000000  0.5594890000000 1.0
C      1  0.4838280000000  0.5119970000000  0.5452620000000 1.0
C      1  0.4694350000000  0.4893150000000  0.5605690000000 1.0
C      1  0.4865620000000  0.4649970000000  0.5595340000000 1.0
C      1  0.5159100000000  0.4677050000000  0.5649060000000 1.0
C      1  0.5259660000000  0.4934020000000  0.5499650000000 1.0
C      1  0.5348860000000  0.5138280000000  0.4309440000000 1.0
C      1  0.5032790000000  0.5363980000000  0.4294610000000 1.0
C      1  0.4731340000000  0.5330210000000  0.4273760000000 1.0
C      1  0.4630550000000  0.5055480000000  0.4273560000000 1.0
C      1  0.4809150000000  0.4724890000000  0.4259460000000 1.0
C      1  0.5091780000000  0.4634830000000  0.4269170000000 1.0
C      1  0.5346270000000  0.4814230000000  0.4298180000000 1.0
C      1  0.4786580000000  0.5223740000000  0.5960330000000 1.0
C      1  0.4706080000000  0.4963460000000  0.5902950000000 1.0
C      1  0.4887770000000  0.4781890000000  0.6019780000000 1.0
C      1  0.5157790000000  0.4747300000000  0.5946100000000 1.0
C      1  0.5310220000000  0.4970820000000  0.6011980000000 1.0
C      1  0.5284380000000  0.5231330000000  0.5912800000000 1.0
C      1  0.5027850000000  0.5357990000000  0.5981020000000 1.0
C      1  0.4998490000000  0.5565770000000  0.5386130000000 1.0
C      1  0.4622370000000  0.5277750000000  0.5323900000000 1.0
C      1  0.4469420000000  0.4834700000000  0.5377850000000 1.0
C      1  0.4794400000000  0.4469070000000  0.5378130000000 1.0
C      1  0.5290580000000  0.4486650000000  0.5376660000000 1.0
C      1  0.5537590000000  0.4893480000000  0.5381240000000 1.0
C      1  0.5446860000000  0.5381320000000  0.5414120000000 1.0
C      1  0.4489660000000  0.4755360000000  0.4636030000000 1.0
C      1  0.4859180000000  0.4436570000000  0.4639490000000 1.0
C      1  0.5352120000000  0.4487530000000  0.4641110000000 1.0
C      1  0.5519950000000  0.4967160000000  0.4717940000000 1.0
C      1  0.5324640000000  0.5453840000000  0.4699350000000 1.0
C      1  0.4842940000000  0.5558540000000  0.4687580000000 1.0
C      1  0.4427520000000  0.5267760000000  0.4649810000000 1.0
C      1  0.5208900000000  0.5401280000000  0.4981340000000 1.0
C      1  0.4906190000000  0.5400610000000  0.4939740000000 1.0
C      1  0.4608810000000  0.4985370000000  0.4924620000000 1.0
C      1  0.4694230000000  0.4687580000000  0.4962420000000 1.0
C      1  0.5004550000000  0.4686880000000  0.5049220000000 1.0
C      1  0.5319580000000  0.4769950000000  0.4966920000000 1.0
C      1  0.5298160000000  0.5117910000000  0.5066560000000 1.0
C      1  0.4680850000000  0.4589280000000  0.4484580000000 1.0
C      1  0.5106280000000  0.4458610000000  0.4503440000000 1.0
C      1  0.5472450000000  0.4728910000000  0.4553880000000 1.0
C      1  0.5475410000000  0.5219360000000  0.4569330000000 1.0
C      1  0.5093870000000  0.5549810000000  0.4525130000000 1.0
C      1  0.4615970000000  0.5444460000000  0.4522730000000 1.0
C      1  0.4464510000000  0.5024550000000  0.4509290000000 1.0
C      1  0.5474070000000  0.4658900000000  0.5209820000000 1.0
C      1  0.5545650000000  0.5158420000000  0.5237890000000 1.0
C      1  0.5264080000000  0.5554290000000  0.5244300000000 1.0
C      1  0.4774420000000  0.5499170000000  0.5190620000000 1.0
C      1  0.4466670000000  0.5067530000000  0.5181250000000 1.0
C      1  0.4567350000000  0.4595330000000  0.5222140000000 1.0
C      1  0.5043690000000  0.4441900000000  0.5217940000000 1.0
C      1  0.4866940000000  0.5115570000000  0.4890390000000 1.0
C      1  0.5047400000000  0.5050760000000  0.4403300000000 1.0
C      1  0.5063580000000  0.4977030000000  0.5261710000000 1.0
C      1  0.5023990000000  0.5023910000000  0.4685330000000 1.0
END
