TITL C-38189-4514-447 9.21198721134565e-05 125000 -351.971692218139 0 0 60 (S4) n - 1
REM
REM in /home/bkarasulu/CARBON/AIRSS/Generating-Clusters/EDIP-Nigel-Params/Higher-Symm/Box-15A/Only-C60/SD-CG/FIRE-HFTN
REM
REM
REM
REM
REM
REM ./C.cell (414f73aa93bd7a1190c7fd0f31ff2f98)
REM
REM compiler GCC version 9.2.1 20190827 (Red Hat 9.2.1-1)
REM options -cpp -mtune=generic -march=x86-64 -g -O0 -fpre-include=/usr/include/finclude/math-vector-fortran.h
REM seed -1282351235 -2145237160 -2027776029 -491371677 -2002454869 -993761855 -1336990296 554908457 -205703039 -494858910 1854841694 -1845955919 -407304615 -922988236 1251766656 2030398832 -1337925565 1947900274 49946436 329112927 102009634 1058142979 281460311 1446499664 1726951166 -697564915 1296375551 1931905905 -592129903 1734276007 -573773127 -1709964188 1907697571
REM
CELL 1.54180   50.00000   50.00000   50.00000   90.00000   90.00000   90.00000
LATT -1
SFAC C  
C      1  0.4987490000000  0.5385720000000  0.4439860000000 1.0
C      1  0.5012510000000  0.4439860000000  0.4614280000000 1.0
C      1  0.4987490000000  0.4614280000000  0.5560140000000 1.0
C      1  0.5012510000000  0.5560140000000  0.5385720000000 1.0
C      1  0.5090000000000  0.5319820000000  0.5559800000000 1.0
C      1  0.4910000000000  0.5559800000000  0.4680180000000 1.0
C      1  0.5090000000000  0.4680180000000  0.4440200000000 1.0
C      1  0.4910000000000  0.4440200000000  0.5319820000000 1.0
C      1  0.4245580000000  0.5062540000000  0.5273240000000 1.0
C      1  0.5754420000000  0.5273240000000  0.4937460000000 1.0
C      1  0.4245580000000  0.4937460000000  0.4726760000000 1.0
C      1  0.5754420000000  0.4726760000000  0.5062540000000 1.0
C      1  0.5519740000000  0.5220250000000  0.5524300000000 1.0
C      1  0.4480260000000  0.5524300000000  0.4779750000000 1.0
C      1  0.5519740000000  0.4779750000000  0.4475700000000 1.0
C      1  0.4480260000000  0.4475700000000  0.5220250000000 1.0
C      1  0.5153740000000  0.4398310000000  0.5133120000000 1.0
C      1  0.4846260000000  0.5133120000000  0.5601690000000 1.0
C      1  0.5153740000000  0.5601690000000  0.4866880000000 1.0
C      1  0.4846260000000  0.4866880000000  0.4398310000000 1.0
C      1  0.5705210000000  0.4580340000000  0.4582750000000 1.0
C      1  0.4294790000000  0.4582750000000  0.5419660000000 1.0
C      1  0.5705210000000  0.5419660000000  0.5417250000000 1.0
C      1  0.4294790000000  0.5417250000000  0.4580340000000 1.0
C      1  0.4728090000000  0.5212480000000  0.5324530000000 1.0
C      1  0.5271910000000  0.5324530000000  0.4787520000000 1.0
C      1  0.4728090000000  0.4787520000000  0.4675470000000 1.0
C      1  0.5271910000000  0.4675470000000  0.5212480000000 1.0
C      1  0.5876450000000  0.4658040000000  0.4821570000000 1.0
C      1  0.4123550000000  0.4821570000000  0.5341960000000 1.0
C      1  0.5876450000000  0.5341960000000  0.5178430000000 1.0
C      1  0.4123550000000  0.5178430000000  0.4658040000000 1.0
C      1  0.5266050000000  0.4682220000000  0.5510710000000 1.0
C      1  0.4733950000000  0.5510710000000  0.5317780000000 1.0
C      1  0.5266050000000  0.5317780000000  0.4489290000000 1.0
C      1  0.4733950000000  0.4489290000000  0.4682220000000 1.0
C      1  0.5139280000000  0.5641250000000  0.5146570000000 1.0
C      1  0.4860720000000  0.5146570000000  0.4358750000000 1.0
C      1  0.5139280000000  0.4358750000000  0.4853430000000 1.0
C      1  0.4860720000000  0.4853430000000  0.5641250000000 1.0
C      1  0.5326850000000  0.4699910000000  0.4287760000000 1.0
C      1  0.4673150000000  0.4287760000000  0.5300090000000 1.0
C      1  0.5326850000000  0.5300090000000  0.5712240000000 1.0
C      1  0.4673150000000  0.5712240000000  0.4699910000000 1.0
C      1  0.5542290000000  0.5058150000000  0.4544880000000 1.0
C      1  0.4457710000000  0.4544880000000  0.4941850000000 1.0
C      1  0.5542290000000  0.4941850000000  0.5455120000000 1.0
C      1  0.4457710000000  0.5455120000000  0.5058150000000 1.0
C      1  0.5530860000000  0.5167690000000  0.4813500000000 1.0
C      1  0.4469140000000  0.4813500000000  0.4832310000000 1.0
C      1  0.5530860000000  0.4832310000000  0.5186500000000 1.0
C      1  0.4469140000000  0.5186500000000  0.5167690000000 1.0
C      1  0.5893280000000  0.5603640000000  0.5291800000000 1.0
C      1  0.4106720000000  0.5291800000000  0.4396360000000 1.0
C      1  0.5893280000000  0.4396360000000  0.4708200000000 1.0
C      1  0.4106720000000  0.4708200000000  0.5603640000000 1.0
C      1  0.5018220000000  0.4821670000000  0.5123790000000 1.0
C      1  0.4981780000000  0.5123790000000  0.5178330000000 1.0
C      1  0.5018220000000  0.5178330000000  0.4876210000000 1.0
C      1  0.4981780000000  0.4876210000000  0.4821670000000 1.0
END
