TITL C-38196-2854-507 1.526342036764e-05 125000 -357.43619787921 0 0 60 (C1) n - 1
REM
REM in /home/bkarasulu/CARBON/AIRSS/Generating-Clusters/EDIP-Nigel-Params/Higher-Symm/Box-15A/Only-C60/SD-CG/FIRE-HFTN
REM
REM
REM
REM
REM
REM ./C.cell (414f73aa93bd7a1190c7fd0f31ff2f98)
REM
REM compiler GCC version 9.2.1 20190827 (Red Hat 9.2.1-1)
REM options -cpp -mtune=generic -march=x86-64 -g -O0 -fpre-include=/usr/include/finclude/math-vector-fortran.h
REM seed -1945657051 32280130 -484401483 -1456483843 -62967937 -1506528375 -1936816528 -346353403 995184991 1228347245 1307545843 1460924200 -532515951 -447270222 556240322 -490565749 146014817 1567490648 1617577252 -861162881 662147783 -363642365 -710851446 712765630 -504671779 -535935465 -1157988297 -1558189444 -952798001 -782163199 371959068 -1694916507 -1582010459
REM
CELL 1.54180   50.00000   50.00000   50.00000   90.00000   90.00000   90.00000
LATT -1
SFAC C  
C      1  0.4498600000000  0.4873840000000  0.5286980000000 1.0
C      1  0.5600090000000  0.5133100000000  0.5158070000000 1.0
C      1  0.4459050000000  0.4861950000000  0.4721650000000 1.0
C      1  0.5431120000000  0.5110150000000  0.4658300000000 1.0
C      1  0.5618030000000  0.4864960000000  0.5147450000000 1.0
C      1  0.4502930000000  0.5145330000000  0.5282070000000 1.0
C      1  0.5466070000000  0.4846640000000  0.4627210000000 1.0
C      1  0.4453160000000  0.5129480000000  0.4716610000000 1.0
C      1  0.4454960000000  0.5664950000000  0.5177440000000 1.0
C      1  0.5541850000000  0.4225940000000  0.5307120000000 1.0
C      1  0.4448780000000  0.5784260000000  0.4727740000000 1.0
C      1  0.5533040000000  0.4220740000000  0.4845730000000 1.0
C      1  0.5530540000000  0.5765970000000  0.5316450000000 1.0
C      1  0.4439580000000  0.4334000000000  0.5193010000000 1.0
C      1  0.5531590000000  0.5768350000000  0.4851190000000 1.0
C      1  0.4450690000000  0.4217900000000  0.4737420000000 1.0
C      1  0.5115240000000  0.4344090000000  0.5514460000000 1.0
C      1  0.4821990000000  0.5628000000000  0.5507950000000 1.0
C      1  0.5164540000000  0.4213130000000  0.4515780000000 1.0
C      1  0.4880850000000  0.5760540000000  0.4494090000000 1.0
C      1  0.4854770000000  0.4445170000000  0.5431200000000 1.0
C      1  0.5108260000000  0.5637120000000  0.5533980000000 1.0
C      1  0.4880310000000  0.4239680000000  0.4496390000000 1.0
C      1  0.5165590000000  0.5780890000000  0.4519160000000 1.0
C      1  0.4811170000000  0.3987890000000  0.5202910000000 1.0
C      1  0.5118190000000  0.6036970000000  0.5227610000000 1.0
C      1  0.4827180000000  0.3926770000000  0.4892720000000 1.0
C      1  0.5142310000000  0.6074480000000  0.4918060000000 1.0
C      1  0.5124450000000  0.3957110000000  0.5219170000000 1.0
C      1  0.4807600000000  0.6016500000000  0.5200170000000 1.0
C      1  0.5137890000000  0.3915990000000  0.4913800000000 1.0
C      1  0.4830380000000  0.6066150000000  0.4892350000000 1.0
C      1  0.5110920000000  0.4538950000000  0.4717570000000 1.0
C      1  0.4823750000000  0.5420100000000  0.4649150000000 1.0
C      1  0.5231260000000  0.4642030000000  0.5297170000000 1.0
C      1  0.4922740000000  0.5368940000000  0.5243390000000 1.0
C      1  0.4832560000000  0.4576710000000  0.4664330000000 1.0
C      1  0.5101390000000  0.5451990000000  0.4712910000000 1.0
C      1  0.4941660000000  0.4678950000000  0.5279610000000 1.0
C      1  0.5204250000000  0.5352640000000  0.5303900000000 1.0
C      1  0.4724260000000  0.5846330000000  0.4722370000000 1.0
C      1  0.5277560000000  0.4132290000000  0.4767310000000 1.0
C      1  0.4703090000000  0.5751530000000  0.5276470000000 1.0
C      1  0.5260090000000  0.4199040000000  0.5316740000000 1.0
C      1  0.5275600000000  0.5854100000000  0.4774210000000 1.0
C      1  0.4724160000000  0.4149550000000  0.4723260000000 1.0
C      1  0.5249940000000  0.5793340000000  0.5335230000000 1.0
C      1  0.4707240000000  0.4265930000000  0.5248940000000 1.0
C      1  0.4607530000000  0.5335440000000  0.4841380000000 1.0
C      1  0.5311460000000  0.4714250000000  0.4817870000000 1.0
C      1  0.4721800000000  0.5207510000000  0.5101220000000 1.0
C      1  0.5439440000000  0.4649480000000  0.5083090000000 1.0
C      1  0.5292270000000  0.5276370000000  0.4829410000000 1.0
C      1  0.4617430000000  0.4665300000000  0.4855900000000 1.0
C      1  0.5418670000000  0.5346010000000  0.5093400000000 1.0
C      1  0.4725130000000  0.4814650000000  0.5114090000000 1.0
C      1  0.5565590000000  0.5613670000000  0.5082830000000 1.0
C      1  0.4444470000000  0.4424770000000  0.4927910000000 1.0
C      1  0.4432390000000  0.5573810000000  0.4913020000000 1.0
C      1  0.5582530000000  0.4378280000000  0.5073090000000 1.0
END
