TITL C-38196-2854-391 1.72471699249034e-06 125000 -369.132348627722 0 0 60 (C3) n - 1
REM
REM in /home/bkarasulu/CARBON/AIRSS/Generating-Clusters/EDIP-Nigel-Params/Higher-Symm/Box-15A/Only-C60/SD-CG/FIRE-HFTN
REM
REM
REM
REM
REM
REM ./C.cell (414f73aa93bd7a1190c7fd0f31ff2f98)
REM
REM compiler GCC version 9.2.1 20190827 (Red Hat 9.2.1-1)
REM options -cpp -mtune=generic -march=x86-64 -g -O0 -fpre-include=/usr/include/finclude/math-vector-fortran.h
REM seed -447801541 1761951062 1251311305 1065569063 -1453935501 1436144260 -1744637309 -46943558 -1808089093 1666729939 1730032466 610512624 1226162358 -827866781 -1135639455 1068642076 1026041389 -150903519 922288579 1252234811 -42182084 -573903119 -1191732391 513909413 2033749679 1498937275 1157117886 1467054535 -797493521 -754353418 2002235791 284108545 908383592
REM
CELL 1.54180   50.00000   50.00000   50.00000   90.00000   90.00000   90.00000
LATT -1
SFAC C  
C      1  0.5285940000000  0.5054490000000  0.5704100000000 1.0
C      1  0.4809840000000  0.5220380000000  0.5704100000000 1.0
C      1  0.4904220000000  0.4725120000000  0.5704100000000 1.0
C      1  0.4876130000000  0.4444590000000  0.4542930000000 1.0
C      1  0.5542940000000  0.5170440000000  0.4542930000000 1.0
C      1  0.4580930000000  0.5384980000000  0.4542920000000 1.0
C      1  0.4911320000000  0.5561670000000  0.4864410000000 1.0
C      1  0.4557920000000  0.4642360000000  0.4864410000000 1.0
C      1  0.5530760000000  0.4795960000000  0.4864410000000 1.0
C      1  0.4896930000000  0.4624220000000  0.5434310000000 1.0
C      1  0.5376970000000  0.5098630000000  0.5434310000000 1.0
C      1  0.4726100000000  0.5277150000000  0.5434310000000 1.0
C      1  0.4995550000000  0.4241580000000  0.5079370000000 1.0
C      1  0.5659030000000  0.5375350000000  0.5079370000000 1.0
C      1  0.4345420000000  0.5383060000000  0.5079370000000 1.0
C      1  0.5831340000000  0.4958530000000  0.5194650000000 1.0
C      1  0.4620240000000  0.5740700000000  0.5194650000000 1.0
C      1  0.4548410000000  0.4300770000000  0.5194650000000 1.0
C      1  0.4664770000000  0.4391220000000  0.4743210000000 1.0
C      1  0.5694830000000  0.5014080000000  0.4743210000000 1.0
C      1  0.4640390000000  0.5594710000000  0.4743210000000 1.0
C      1  0.4468020000000  0.5618170000000  0.4989850000000 1.0
C      1  0.4730640000000  0.4230200000000  0.4989850000000 1.0
C      1  0.5801340000000  0.5151630000000  0.4989850000000 1.0
C      1  0.4851070000000  0.4870010000000  0.4994310000000 1.0
C      1  0.5187040000000  0.4936020000000  0.4994310000000 1.0
C      1  0.4961890000000  0.5193970000000  0.4994310000000 1.0
C      1  0.5195890000000  0.4600370000000  0.5378730000000 1.0
C      1  0.5248150000000  0.5369460000000  0.5378730000000 1.0
C      1  0.4555960000000  0.5030170000000  0.5378730000000 1.0
C      1  0.5434990000000  0.5511110000000  0.5172040000000 1.0
C      1  0.4339880000000  0.5121160000000  0.5172040000000 1.0
C      1  0.5225140000000  0.4367740000000  0.5172040000000 1.0
C      1  0.5313950000000  0.4516040000000  0.4534820000000 1.0
C      1  0.5262150000000  0.5513860000000  0.4534820000000 1.0
C      1  0.4423910000000  0.4970090000000  0.4534820000000 1.0
C      1  0.4812020000000  0.5220130000000  0.4468490000000 1.0
C      1  0.4903350000000  0.4727140000000  0.4468490000000 1.0
C      1  0.5284620000000  0.5052730000000  0.4468490000000 1.0
C      1  0.5337920000000  0.5689880000000  0.4979390000000 1.0
C      1  0.4233590000000  0.4947710000000  0.4979390000000 1.0
C      1  0.5428490000000  0.4362410000000  0.4979390000000 1.0
C      1  0.5614670000000  0.4782800000000  0.5152370000000 1.0
C      1  0.4880760000000  0.5640920000000  0.5152370000000 1.0
C      1  0.4504560000000  0.4576280000000  0.5152370000000 1.0
C      1  0.5188930000000  0.4782100000000  0.5726580000000 1.0
C      1  0.5094240000000  0.5272570000000  0.5726580000000 1.0
C      1  0.4716830000000  0.4945330000000  0.5726580000000 1.0
C      1  0.5162650000000  0.5674520000000  0.4759720000000 1.0
C      1  0.4334530000000  0.4803600000000  0.4759720000000 1.0
C      1  0.5502820000000  0.4521880000000  0.4759720000000 1.0
C      1  0.5100530000000  0.5271940000000  0.4480540000000 1.0
C      1  0.4714230000000  0.4951100000000  0.4480540000000 1.0
C      1  0.5185240000000  0.4776970000000  0.4480540000000 1.0
C      1  0.4954330000000  0.5362320000000  0.5257200000000 1.0
C      1  0.4709060000000  0.4779290000000  0.5257200000000 1.0
C      1  0.5336610000000  0.4858390000000  0.5257200000000 1.0
C      1  0.4333030000000  0.5242650000000  0.4542970000000 1.0
C      1  0.5123350000000  0.4301070000000  0.4542980000000 1.0
C      1  0.5543620000000  0.5456290000000  0.4542980000000 1.0
END
