TITL C-38197-8510-357 3.17466821062512e-06 125000 -355.437108195393 0 0 60 (D3) n - 1
REM
REM in /home/bkarasulu/CARBON/AIRSS/Generating-Clusters/EDIP-Nigel-Params/Higher-Symm/Box-15A/Only-C60/SD-CG/FIRE-HFTN
REM
REM
REM
REM
REM
REM ./C.cell (414f73aa93bd7a1190c7fd0f31ff2f98)
REM
REM compiler GCC version 9.2.1 20190827 (Red Hat 9.2.1-1)
REM options -cpp -mtune=generic -march=x86-64 -g -O0 -fpre-include=/usr/include/finclude/math-vector-fortran.h
REM seed 2055121002 1681997895 1907851664 -271904533 1315597487 2081301695 1677183496 1684857745 1716827504 961660530 1440103976 -1134685496 1210548779 -728985364 1946502887 588932662 -1022313285 -1918411057 -46792125 -1276946438 -1703918958 2004631556 -1665963 259771632 2053786842 -427232653 -1037900482 -1710698910 995343455 993117249 17671849 -773634874 1463788712
REM
CELL 1.54180   50.00000   50.00000   50.00000   90.00000   90.00000   90.00000
LATT -1
SFAC C  
C      1  0.5110010000000  0.4514100000000  0.5333210000000 1.0
C      1  0.5365800000000  0.5338220000000  0.5333200000000 1.0
C      1  0.4524200000000  0.5147680000000  0.5333210000000 1.0
C      1  0.4889990000000  0.4514100000000  0.4666790000000 1.0
C      1  0.4634200000000  0.5338220000000  0.4666800000000 1.0
C      1  0.5475800000000  0.5147680000000  0.4666790000000 1.0
C      1  0.5322540000000  0.5643340000000  0.4915650000000 1.0
C      1  0.4281580000000  0.4957660000000  0.4915650000000 1.0
C      1  0.5395880000000  0.4399000000000  0.4915650000000 1.0
C      1  0.4677460000000  0.5643340000000  0.5084350000000 1.0
C      1  0.5718420000000  0.4957660000000  0.5084350000000 1.0
C      1  0.4604120000000  0.4399000000000  0.5084350000000 1.0
C      1  0.5669200000000  0.4881850000000  0.4789700000000 1.0
C      1  0.4767720000000  0.5638620000000  0.4789700000000 1.0
C      1  0.4563080000000  0.4479530000000  0.4789700000000 1.0
C      1  0.4330800000000  0.4881850000000  0.5210300000000 1.0
C      1  0.5232280000000  0.5638620000000  0.5210300000000 1.0
C      1  0.5436920000000  0.4479530000000  0.5210300000000 1.0
C      1  0.5031460000000  0.4589810000000  0.5624270000000 1.0
C      1  0.5339500000000  0.5232340000000  0.5624270000000 1.0
C      1  0.4629040000000  0.5177850000000  0.5624270000000 1.0
C      1  0.4968540000000  0.4589810000000  0.4375730000000 1.0
C      1  0.4660500000000  0.5232340000000  0.4375730000000 1.0
C      1  0.5370960000000  0.5177850000000  0.4375730000000 1.0
C      1  0.5244300000000  0.4685250000000  0.4376710000000 1.0
C      1  0.5150420000000  0.5368950000000  0.4376710000000 1.0
C      1  0.4605270000000  0.4945800000000  0.4376710000000 1.0
C      1  0.4755700000000  0.4685250000000  0.5623290000000 1.0
C      1  0.4849580000000  0.5368950000000  0.5623290000000 1.0
C      1  0.5394730000000  0.4945800000000  0.5623290000000 1.0
C      1  0.5582700000000  0.5246490000000  0.5128940000000 1.0
C      1  0.4495180000000  0.5381390000000  0.5128940000000 1.0
C      1  0.4922110000000  0.4372120000000  0.5128940000000 1.0
C      1  0.4417300000000  0.5246490000000  0.4871060000000 1.0
C      1  0.5504820000000  0.5381390000000  0.4871060000000 1.0
C      1  0.5077890000000  0.4372120000000  0.4871060000000 1.0
C      1  0.5206360000000  0.4775550000000  0.5743140000000 1.0
C      1  0.5091200000000  0.5290940000000  0.5743140000000 1.0
C      1  0.4702440000000  0.4933510000000  0.5743140000000 1.0
C      1  0.4793640000000  0.4775550000000  0.4256860000000 1.0
C      1  0.4908800000000  0.5290940000000  0.4256860000000 1.0
C      1  0.5297560000000  0.4933510000000  0.4256860000000 1.0
C      1  0.4712420000000  0.4953670000000  0.5213320000000 1.0
C      1  0.5183910000000  0.4774110000000  0.5213320000000 1.0
C      1  0.5103670000000  0.5272220000000  0.5213320000000 1.0
C      1  0.5287580000000  0.4953670000000  0.4786680000000 1.0
C      1  0.4816090000000  0.4774110000000  0.4786680000000 1.0
C      1  0.4896330000000  0.5272220000000  0.4786680000000 1.0
C      1  0.4702010000000  0.4685330000000  0.5329600000000 1.0
C      1  0.5421510000000  0.4899270000000  0.5329600000000 1.0
C      1  0.4876480000000  0.5415400000000  0.5329600000000 1.0
C      1  0.5297990000000  0.4685330000000  0.4670400000000 1.0
C      1  0.4578490000000  0.4899270000000  0.4670400000000 1.0
C      1  0.5123520000000  0.5415400000000  0.4670400000000 1.0
C      1  0.4418470000000  0.4585850000000  0.5272400000000 1.0
C      1  0.5649430000000  0.4703460000000  0.5272400000000 1.0
C      1  0.4932100000000  0.5710690000000  0.5272400000000 1.0
C      1  0.5581530000000  0.4585850000000  0.4727600000000 1.0
C      1  0.4350570000000  0.4703460000000  0.4727600000000 1.0
C      1  0.5067900000000  0.5710690000000  0.4727600000000 1.0
END
