TITL C-38185-7677-262 9.84988976982667e-05 125000 -356.441883347141 0 0 60 (Cs) n - 1
REM
REM in /home/bkarasulu/CARBON/AIRSS/Generating-Clusters/EDIP-Nigel-Params/Higher-Symm/Box-15A/Only-C60/SD-CG/FIRE-HFTN
REM
REM
REM
REM
REM
REM ./C.cell (414f73aa93bd7a1190c7fd0f31ff2f98)
REM
REM compiler GCC version 9.2.1 20190827 (Red Hat 9.2.1-1)
REM options -cpp -mtune=generic -march=x86-64 -g -O0 -fpre-include=/usr/include/finclude/math-vector-fortran.h
REM seed 214219793 2026665282 -960214521 -1303750798 -502487305 1894311248 -364136133 -2136790742 204030519 683455254 -1673363068 794973735 -154189438 -1834258081 -619795394 -788054175 26368590 -1458428300 -71790193 -1126842151 118432514 -2038855832 -567182271 -1576642740 -735798802 -1451322983 -1467155210 -685613363 1077916515 -326934644 1281123223 -1994306875 -217969952
REM
CELL 1.54180   50.00000   50.00000   50.00000   90.00000   90.00000   90.00000
LATT -1
SFAC C  
C      1  0.4813030000000  0.5636300000000  0.5441810000000 1.0
C      1  0.4813030000000  0.4363700000000  0.5441810000000 1.0
C      1  0.5431170000000  0.4664520000000  0.5525440000000 1.0
C      1  0.5431170000000  0.5335480000000  0.5525440000000 1.0
C      1  0.5621540000000  0.4474040000000  0.4776150000000 1.0
C      1  0.5621540000000  0.5525960000000  0.4776150000000 1.0
C      1  0.5418140000000  0.4710670000000  0.4407880000000 1.0
C      1  0.5418140000000  0.5289330000000  0.4407880000000 1.0
C      1  0.4987340000000  0.5801220000000  0.4607340000000 1.0
C      1  0.4987340000000  0.4198780000000  0.4607340000000 1.0
C      1  0.5535380000000  0.4248200000000  0.4903710000000 1.0
C      1  0.5535380000000  0.5751800000000  0.4903710000000 1.0
C      1  0.5204780000000  0.4096260000000  0.4764220000000 1.0
C      1  0.5204780000000  0.5903740000000  0.4764220000000 1.0
C      1  0.5259020000000  0.5536240000000  0.5604680000000 1.0
C      1  0.5259020000000  0.4463760000000  0.5604680000000 1.0
C      1  0.4301140000000  0.4738420000000  0.5124080000000 1.0
C      1  0.4301140000000  0.5261580000000  0.5124080000000 1.0
C      1  0.4942650000000  0.5147170000000  0.4468980000000 1.0
C      1  0.4942650000000  0.4852830000000  0.4468980000000 1.0
C      1  0.4667080000000  0.4105850000000  0.5012460000000 1.0
C      1  0.4667080000000  0.5894150000000  0.5012460000000 1.0
C      1  0.4486320000000  0.4184100000000  0.4802240000000 1.0
C      1  0.4486320000000  0.5815900000000  0.4802240000000 1.0
C      1  0.5251700000000  0.5148110000000  0.5066390000000 1.0
C      1  0.5251700000000  0.4851890000000  0.5066390000000 1.0
C      1  0.5493550000000  0.5133430000000  0.5701890000000 1.0
C      1  0.5493550000000  0.4866570000000  0.5701890000000 1.0
C      1  0.4599010000000  0.4835810000000  0.5524530000000 1.0
C      1  0.4599010000000  0.5164190000000  0.5524530000000 1.0
C      1  0.5090170000000  0.4293180000000  0.5466820000000 1.0
C      1  0.5090170000000  0.5706820000000  0.5466820000000 1.0
C      1  0.4657280000000  0.4214140000000  0.5268990000000 1.0
C      1  0.4657280000000  0.5785860000000  0.5268990000000 1.0
C      1  0.4691510000000  0.4744190000000  0.4514350000000 1.0
C      1  0.4691510000000  0.5255810000000  0.4514350000000 1.0
C      1  0.4760700000000  0.4275090000000  0.4777450000000 1.0
C      1  0.4760700000000  0.5724910000000  0.4777450000000 1.0
C      1  0.4709890000000  0.5415570000000  0.5573140000000 1.0
C      1  0.4709890000000  0.4584430000000  0.5573140000000 1.0
C      1  0.5415420000000  0.4733600000000  0.5258120000000 1.0
C      1  0.5415420000000  0.5266400000000  0.5258120000000 1.0
C      1  0.5137670000000  0.5346450000000  0.4380540000000 1.0
C      1  0.5137670000000  0.4653550000000  0.4380540000000 1.0
C      1  0.5205510000000  0.5857780000000  0.5263550000000 1.0
C      1  0.5205510000000  0.4142220000000  0.5263550000000 1.0
C      1  0.5547170000000  0.5283190000000  0.4665720000000 1.0
C      1  0.5547170000000  0.4716810000000  0.4665720000000 1.0
C      1  0.4355320000000  0.4858010000000  0.4879870000000 1.0
C      1  0.4355320000000  0.5141990000000  0.4879870000000 1.0
C      1  0.5277120000000  0.5160280000000  0.4750980000000 1.0
C      1  0.5277120000000  0.4839720000000  0.4750980000000 1.0
C      1  0.4330140000000  0.5154290000000  0.5382020000000 1.0
C      1  0.4330140000000  0.4845710000000  0.5382020000000 1.0
C      1  0.5272990000000  0.4226080000000  0.5007220000000 1.0
C      1  0.5272990000000  0.5773920000000  0.5007220000000 1.0
C      1  0.5065370000000  0.5615740000000  0.4412730000000 1.0
C      1  0.5065370000000  0.4384260000000  0.4412730000000 1.0
C      1  0.4471880000000  0.4727740000000  0.4666710000000 1.0
C      1  0.4471880000000  0.5272260000000  0.4666710000000 1.0
END
