TITL C-38189-4514-302 0.000212170617790444 125000 -357.724653217499 0 0 60 (Ci) n - 1
REM
REM in /home/bkarasulu/CARBON/AIRSS/Generating-Clusters/EDIP-Nigel-Params/Higher-Symm/Box-15A/Only-C60/SD-CG/FIRE-HFTN
REM
REM
REM
REM
REM
REM ./C.cell (414f73aa93bd7a1190c7fd0f31ff2f98)
REM
REM compiler GCC version 9.2.1 20190827 (Red Hat 9.2.1-1)
REM options -cpp -mtune=generic -march=x86-64 -g -O0 -fpre-include=/usr/include/finclude/math-vector-fortran.h
REM seed 1782146813 -913508050 539629819 -1045093186 1105090509 1371228463 1748632143 1573051792 635463068 -78313921 406393573 -2138300562 1678981828 1624082936 -1727589617 837220127 -504854034 -336735630 -1264695018 125449460 901026300 -85857489 -1391286331 2017902028 -539966887 -706254527 -995223886 239865691 -468173862 335026155 788995923 -2085454189 255726325
REM
CELL 1.54180   50.00000   50.00000   50.00000   90.00000   90.00000   90.00000
LATT -1
SFAC C  
C      1  0.4729600000000  0.4289120000000  0.4979560000000 1.0
C      1  0.5270400000000  0.5710880000000  0.5020440000000 1.0
C      1  0.5271310000000  0.5078970000000  0.4987880000000 1.0
C      1  0.4728690000000  0.4921030000000  0.5012120000000 1.0
C      1  0.5151690000000  0.4390980000000  0.4783900000000 1.0
C      1  0.4848310000000  0.5609020000000  0.5216100000000 1.0
C      1  0.5326190000000  0.4544600000000  0.4632260000000 1.0
C      1  0.4673810000000  0.5455400000000  0.5367740000000 1.0
C      1  0.4739460000000  0.4387030000000  0.4491930000000 1.0
C      1  0.5260540000000  0.5612970000000  0.5508070000000 1.0
C      1  0.4583160000000  0.5591870000000  0.4474610000000 1.0
C      1  0.5416840000000  0.4408130000000  0.5525390000000 1.0
C      1  0.4807150000000  0.5097830000000  0.4812200000000 1.0
C      1  0.5192850000000  0.4902170000000  0.5187800000000 1.0
C      1  0.5668410000000  0.4383160000000  0.5395820000000 1.0
C      1  0.4331590000000  0.5616840000000  0.4604180000000 1.0
C      1  0.4933660000000  0.4264380000000  0.5179100000000 1.0
C      1  0.5066340000000  0.5735620000000  0.4820900000000 1.0
C      1  0.4558420000000  0.5236040000000  0.5469750000000 1.0
C      1  0.5441580000000  0.4763960000000  0.4530250000000 1.0
C      1  0.4413070000000  0.4625730000000  0.5213490000000 1.0
C      1  0.5586930000000  0.5374270000000  0.4786510000000 1.0
C      1  0.5495510000000  0.5201950000000  0.5481000000000 1.0
C      1  0.4504490000000  0.4798050000000  0.4519000000000 1.0
C      1  0.4562210000000  0.5616000000000  0.4781790000000 1.0
C      1  0.5437790000000  0.4384000000000  0.5218210000000 1.0
C      1  0.5276560000000  0.5097140000000  0.4228160000000 1.0
C      1  0.4723440000000  0.4902860000000  0.5771840000000 1.0
C      1  0.5442300000000  0.5442360000000  0.5620520000000 1.0
C      1  0.4557700000000  0.4557640000000  0.4379480000000 1.0
C      1  0.4511190000000  0.4993110000000  0.5601300000000 1.0
C      1  0.5488810000000  0.5006890000000  0.4398700000000 1.0
C      1  0.5364000000000  0.4619290000000  0.5704030000000 1.0
C      1  0.4636000000000  0.5380710000000  0.4295970000000 1.0
C      1  0.4865020000000  0.4379400000000  0.4738130000000 1.0
C      1  0.5134980000000  0.5620600000000  0.5261870000000 1.0
C      1  0.4724380000000  0.5129130000000  0.4201000000000 1.0
C      1  0.5275620000000  0.4870870000000  0.5799000000000 1.0
C      1  0.4346850000000  0.4815830000000  0.4754240000000 1.0
C      1  0.5653150000000  0.5184170000000  0.5245760000000 1.0
C      1  0.4809780000000  0.5658130000000  0.4933140000000 1.0
C      1  0.5190220000000  0.4341870000000  0.5066860000000 1.0
C      1  0.4998320000000  0.5064800000000  0.4311510000000 1.0
C      1  0.5001680000000  0.4935200000000  0.5688490000000 1.0
C      1  0.4799750000000  0.4527280000000  0.5549840000000 1.0
C      1  0.5200250000000  0.5472720000000  0.4450160000000 1.0
C      1  0.5548510000000  0.5154960000000  0.4982900000000 1.0
C      1  0.4451490000000  0.4845040000000  0.5017100000000 1.0
C      1  0.5514030000000  0.5615590000000  0.4917950000000 1.0
C      1  0.4485970000000  0.4384410000000  0.5082050000000 1.0
C      1  0.4917390000000  0.4859090000000  0.5219050000000 1.0
C      1  0.5082610000000  0.5140910000000  0.4780950000000 1.0
C      1  0.5460350000000  0.5315020000000  0.4496820000000 1.0
C      1  0.4539650000000  0.4684980000000  0.5503180000000 1.0
C      1  0.4987820000000  0.5276880000000  0.4520730000000 1.0
C      1  0.5012180000000  0.4723120000000  0.5479270000000 1.0
C      1  0.4524280000000  0.4926410000000  0.4260740000000 1.0
C      1  0.5475720000000  0.5073590000000  0.5739260000000 1.0
C      1  0.4846060000000  0.4273680000000  0.5443620000000 1.0
C      1  0.5153940000000  0.5726320000000  0.4556380000000 1.0
END
