TITL C-38197-8510-268 1.01753812331085 125000 -347.738921553349 0 0 60 (C1) n - 1
REM
REM in /home/bkarasulu/CARBON/AIRSS/Generating-Clusters/EDIP-Nigel-Params/Higher-Symm/Box-15A/Only-C60/SD-CG/FIRE-HFTN
REM
REM
REM
REM
REM
REM ./C.cell (414f73aa93bd7a1190c7fd0f31ff2f98)
REM
REM compiler GCC version 9.2.1 20190827 (Red Hat 9.2.1-1)
REM options -cpp -mtune=generic -march=x86-64 -g -O0 -fpre-include=/usr/include/finclude/math-vector-fortran.h
REM seed -2091001595 -1659878360 1183451818 1455459467 671411120 -1395868498 -2051270808 -1418880428 1651777731 275152670 -1015159466 -329885570 -1648975263 1387692144 -969867086 1661632118 -558549969 -594293929 -2078406154 1939241312 -1493155241 1102953453 -1817270663 -1117950349 -948418354 434593049 -1171142442 1137057215 194634447 -1473495964 83158431 1685219665 -1887661670
REM
CELL 1.54180   50.00000   50.00000   50.00000   90.00000   90.00000   90.00000
LATT -1
SFAC C  
C      1  0.4202150000000  0.4706930000000  0.4343750000000 1.0
C      1  0.4872650000000  0.5892410000000  0.5488910000000 1.0
C      1  0.5525100000000  0.5513850000000  0.4114170000000 1.0
C      1  0.5049670000000  0.4427890000000  0.4327840000000 1.0
C      1  0.4790570000000  0.4738090000000  0.5619080000000 1.0
C      1  0.5765730000000  0.4400730000000  0.5197640000000 1.0
C      1  0.4353090000000  0.4824200000000  0.4540610000000 1.0
C      1  0.4940370000000  0.4499820000000  0.5568870000000 1.0
C      1  0.5762020000000  0.5056950000000  0.5376770000000 1.0
C      1  0.4656090000000  0.5362490000000  0.4161090000000 1.0
C      1  0.5624750000000  0.5071760000000  0.3936290000000 1.0
C      1  0.5299670000000  0.4213370000000  0.5327270000000 1.0
C      1  0.4659090000000  0.6349700000000  0.5505040000000 1.0
C      1  0.3217150000000  0.4542510000000  0.5636170000000 1.0
C      1  0.5121470000000  0.5364630000000  0.4352270000000 1.0
C      1  0.4860370000000  0.5250450000000  0.4322740000000 1.0
C      1  0.5482600000000  0.4645160000000  0.4861620000000 1.0
C      1  0.4666950000000  0.5241170000000  0.4529910000000 1.0
C      1  0.4210510000000  0.4817090000000  0.4092380000000 1.0
C      1  0.5940140000000  0.4617440000000  0.5213370000000 1.0
C      1  0.4516840000000  0.4718170000000  0.5619140000000 1.0
C      1  0.5391990000000  0.5396580000000  0.5406620000000 1.0
C      1  0.5486470000000  0.5142620000000  0.4993500000000 1.0
C      1  0.5269010000000  0.5288130000000  0.4572180000000 1.0
C      1  0.5533920000000  0.4126990000000  0.5457430000000 1.0
C      1  0.5338020000000  0.4811780000000  0.5743160000000 1.0
C      1  0.3993610000000  0.4646110000000  0.5626270000000 1.0
C      1  0.4255490000000  0.4678240000000  0.5623520000000 1.0
C      1  0.4736840000000  0.5214540000000  0.5665900000000 1.0
C      1  0.5577010000000  0.5233350000000  0.5252550000000 1.0
C      1  0.4494270000000  0.5220620000000  0.3993340000000 1.0
C      1  0.5303980000000  0.4543680000000  0.5694590000000 1.0
C      1  0.4880030000000  0.6378720000000  0.5353170000000 1.0
C      1  0.4652200000000  0.5465390000000  0.5671800000000 1.0
C      1  0.5787050000000  0.4189680000000  0.5381230000000 1.0
C      1  0.5263240000000  0.4576460000000  0.4373080000000 1.0
C      1  0.5564390000000  0.5335940000000  0.3905790000000 1.0
C      1  0.5420520000000  0.4658840000000  0.4164630000000 1.0
C      1  0.5196410000000  0.4463410000000  0.5441970000000 1.0
C      1  0.5779020000000  0.4844340000000  0.5191230000000 1.0
C      1  0.5258500000000  0.5439470000000  0.4114610000000 1.0
C      1  0.4326290000000  0.5017610000000  0.3962090000000 1.0
C      1  0.4756480000000  0.6123470000000  0.5364080000000 1.0
C      1  0.4053460000000  0.4494680000000  0.4394500000000 1.0
C      1  0.4696210000000  0.5719260000000  0.5609630000000 1.0
C      1  0.5307740000000  0.5285370000000  0.5650180000000 1.0
C      1  0.4907130000000  0.4999680000000  0.5651720000000 1.0
C      1  0.3470550000000  0.4576620000000  0.5632880000000 1.0
C      1  0.5544490000000  0.4400370000000  0.5006720000000 1.0
C      1  0.5224610000000  0.5565470000000  0.5240440000000 1.0
C      1  0.5618150000000  0.4884390000000  0.4953910000000 1.0
C      1  0.4522130000000  0.5020510000000  0.4598710000000 1.0
C      1  0.3732190000000  0.4610530000000  0.5629750000000 1.0
C      1  0.5075390000000  0.5769320000000  0.5349050000000 1.0
C      1  0.5186270000000  0.5039890000000  0.5706950000000 1.0
C      1  0.5365880000000  0.5340480000000  0.4824100000000 1.0
C      1  0.5333220000000  0.4642720000000  0.4629780000000 1.0
C      1  0.5278000000000  0.5561700000000  0.4967060000000 1.0
C      1  0.5338680000000  0.4209660000000  0.5045770000000 1.0
C      1  0.5564180000000  0.4828540000000  0.4021150000000 1.0
END
