TITL C-38184-643-225 5.01800044665241e-06 125000 -357.475246897165 0 0 60 (Ci) n - 1
REM
REM in /home/bkarasulu/CARBON/AIRSS/Generating-Clusters/EDIP-Nigel-Params/Higher-Symm/Box-15A/Only-C60/SD-CG/FIRE-HFTN
REM
REM
REM
REM
REM
REM ./C.cell (414f73aa93bd7a1190c7fd0f31ff2f98)
REM
REM compiler GCC version 9.2.1 20190827 (Red Hat 9.2.1-1)
REM options -cpp -mtune=generic -march=x86-64 -g -O0 -fpre-include=/usr/include/finclude/math-vector-fortran.h
REM seed -487173187 -163449229 -1774143078 -1726576457 2032664776 1900816969 -80375631 -635885015 -1911909945 841158843 1728037457 -529561922 682958575 633742216 1520194634 -1872777462 -1432298977 266135792 531970051 -1527173252 1792105868 1130231663 270415330 -1006514100 1239048073 -534480682 826929964 2117497948 -2036252464 921923360 1319805000 2030959609 -69057926
REM
CELL 1.54180   50.00000   50.00000   50.00000   90.00000   90.00000   90.00000
LATT -1
SFAC C  
C      1  0.5468150000000  0.4678670000000  0.5842900000000 1.0
C      1  0.4531850000000  0.5321330000000  0.4157100000000 1.0
C      1  0.4762620000000  0.5208450000000  0.4086550000000 1.0
C      1  0.5237380000000  0.4791550000000  0.5913450000000 1.0
C      1  0.4756790000000  0.5123650000000  0.5017360000000 1.0
C      1  0.5243210000000  0.4876350000000  0.4982640000000 1.0
C      1  0.4364330000000  0.5261370000000  0.4367250000000 1.0
C      1  0.5635670000000  0.4738630000000  0.5632750000000 1.0
C      1  0.4239790000000  0.5381830000000  0.4981750000000 1.0
C      1  0.5760210000000  0.4618170000000  0.5018250000000 1.0
C      1  0.5231300000000  0.4273160000000  0.5010610000000 1.0
C      1  0.4768700000000  0.5726840000000  0.4989390000000 1.0
C      1  0.5530870000000  0.5400930000000  0.5067260000000 1.0
C      1  0.4469130000000  0.4599070000000  0.4932740000000 1.0
C      1  0.4998340000000  0.5404220000000  0.5571490000000 1.0
C      1  0.5001660000000  0.4595780000000  0.4428510000000 1.0
C      1  0.5842170000000  0.4993650000000  0.5310500000000 1.0
C      1  0.4157830000000  0.5006350000000  0.4689500000000 1.0
C      1  0.4117540000000  0.5285840000000  0.4733950000000 1.0
C      1  0.5882460000000  0.4714160000000  0.5266050000000 1.0
C      1  0.4703510000000  0.4704370000000  0.5626020000000 1.0
C      1  0.5296490000000  0.5295630000000  0.4373980000000 1.0
C      1  0.4500220000000  0.4739170000000  0.5439690000000 1.0
C      1  0.5499780000000  0.5260830000000  0.4560310000000 1.0
C      1  0.5135710000000  0.5512790000000  0.5350020000000 1.0
C      1  0.4864290000000  0.4487210000000  0.4649980000000 1.0
C      1  0.5574060000000  0.5329800000000  0.4810660000000 1.0
C      1  0.4425940000000  0.4670200000000  0.5189340000000 1.0
C      1  0.4525730000000  0.5769490000000  0.5117870000000 1.0
C      1  0.5474270000000  0.4230510000000  0.4882130000000 1.0
C      1  0.4835580000000  0.4809310000000  0.4346850000000 1.0
C      1  0.5164420000000  0.5190690000000  0.5653150000000 1.0
C      1  0.4801680000000  0.4873690000000  0.5117950000000 1.0
C      1  0.5198320000000  0.5126310000000  0.4882050000000 1.0
C      1  0.5211240000000  0.5088770000000  0.4206300000000 1.0
C      1  0.4788760000000  0.4911230000000  0.5793700000000 1.0
C      1  0.4362810000000  0.5005980000000  0.4494440000000 1.0
C      1  0.5637190000000  0.4994020000000  0.5505560000000 1.0
C      1  0.4604210000000  0.4608850000000  0.4688600000000 1.0
C      1  0.5395790000000  0.5391150000000  0.5311400000000 1.0
C      1  0.5088470000000  0.5449140000000  0.4470750000000 1.0
C      1  0.4911530000000  0.4550860000000  0.5529250000000 1.0
C      1  0.5814840000000  0.4565580000000  0.5501780000000 1.0
C      1  0.4185160000000  0.5434420000000  0.4498220000000 1.0
C      1  0.5107170000000  0.4554450000000  0.5333990000000 1.0
C      1  0.4892830000000  0.5445550000000  0.4666010000000 1.0
C      1  0.5412660000000  0.5175640000000  0.5500260000000 1.0
C      1  0.4587340000000  0.4824360000000  0.4499740000000 1.0
C      1  0.4124950000000  0.5491550000000  0.5223660000000 1.0
C      1  0.5875050000000  0.4508450000000  0.4776340000000 1.0
C      1  0.4269510000000  0.5675790000000  0.5055690000000 1.0
C      1  0.5730490000000  0.4324210000000  0.4944310000000 1.0
C      1  0.5239920000000  0.4314020000000  0.5286370000000 1.0
C      1  0.4760080000000  0.5685980000000  0.4713630000000 1.0
C      1  0.4941550000000  0.5016650000000  0.4174780000000 1.0
C      1  0.5058450000000  0.4983350000000  0.5825220000000 1.0
C      1  0.5001050000000  0.4382960000000  0.4876770000000 1.0
C      1  0.4998950000000  0.5617040000000  0.5123230000000 1.0
C      1  0.5037320000000  0.4708570000000  0.5087820000000 1.0
C      1  0.4962680000000  0.5291430000000  0.4912180000000 1.0
END
