TITL C-38196-2854-157 -9.45567940058703e-06 125000 -365.99756650451 0 0 60 (C2) n - 1
REM
REM in /home/bkarasulu/CARBON/AIRSS/Generating-Clusters/EDIP-Nigel-Params/Higher-Symm/Box-15A/Only-C60/SD-CG/FIRE-HFTN
REM
REM
REM
REM
REM
REM ./C.cell (414f73aa93bd7a1190c7fd0f31ff2f98)
REM
REM compiler GCC version 9.2.1 20190827 (Red Hat 9.2.1-1)
REM options -cpp -mtune=generic -march=x86-64 -g -O0 -fpre-include=/usr/include/finclude/math-vector-fortran.h
REM seed 48091340 -1335530237 707188883 1909127030 -820734766 -1813575805 933330735 2016506891 -2079572642 391146389 1738866343 -1116255214 1836660929 1304036629 1554509283 733280404 -996973492 1984438781 -1119506763 -1687336608 -896220133 -1243914697 -396120141 338063946 -1006806353 1304349501 -1460256097 91951372 -615467566 -46611914 -887754867 1212635649 -920920674
REM
CELL 1.54180   50.00000   50.00000   50.00000   90.00000   90.00000   90.00000
LATT -1
SFAC C  
C      1  0.4639620000000  0.5303890000000  0.5374720000000 1.0
C      1  0.4896390000000  0.5364550000000  0.5505970000000 1.0
C      1  0.5189460000000  0.5330320000000  0.5399240000000 1.0
C      1  0.5452490000000  0.5217540000000  0.5438510000000 1.0
C      1  0.5523930000000  0.4941540000000  0.5384920000000 1.0
C      1  0.5360380000000  0.4696110000000  0.5374720000000 1.0
C      1  0.5103610000000  0.4635450000000  0.5505970000000 1.0
C      1  0.4810540000000  0.4669680000000  0.5399240000000 1.0
C      1  0.4547510000000  0.4782460000000  0.5438510000000 1.0
C      1  0.4476070000000  0.5058460000000  0.5384920000000 1.0
C      1  0.4733990000000  0.4254850000000  0.5101190000000 1.0
C      1  0.4310520000000  0.4536590000000  0.5060930000000 1.0
C      1  0.4104930000000  0.4995850000000  0.5023800000000 1.0
C      1  0.4335260000000  0.5523530000000  0.5029180000000 1.0
C      1  0.4773460000000  0.5747910000000  0.5197480000000 1.0
C      1  0.5266010000000  0.5745150000000  0.5101190000000 1.0
C      1  0.5689480000000  0.5463410000000  0.5060930000000 1.0
C      1  0.5895070000000  0.5004150000000  0.5023800000000 1.0
C      1  0.5664740000000  0.4476470000000  0.5029180000000 1.0
C      1  0.5226540000000  0.4252090000000  0.5197480000000 1.0
C      1  0.5486200000000  0.5129050000000  0.4749460000000 1.0
C      1  0.5419990000000  0.4867300000000  0.4876660000000 1.0
C      1  0.5266630000000  0.4634300000000  0.4766750000000 1.0
C      1  0.4995480000000  0.4596150000000  0.4889340000000 1.0
C      1  0.4714010000000  0.4622720000000  0.4767840000000 1.0
C      1  0.4513800000000  0.4870950000000  0.4749460000000 1.0
C      1  0.4580010000000  0.5132700000000  0.4876660000000 1.0
C      1  0.4733370000000  0.5365700000000  0.4766750000000 1.0
C      1  0.5004520000000  0.5403850000000  0.4889340000000 1.0
C      1  0.5285990000000  0.5377280000000  0.4767840000000 1.0
C      1  0.4545320000000  0.4411160000000  0.4921390000000 1.0
C      1  0.4249370000000  0.4769280000000  0.4881220000000 1.0
C      1  0.4313660000000  0.5236310000000  0.4957410000000 1.0
C      1  0.4580840000000  0.5616380000000  0.4882860000000 1.0
C      1  0.4998110000000  0.5678630000000  0.4995460000000 1.0
C      1  0.5454680000000  0.5588840000000  0.4921390000000 1.0
C      1  0.5750630000000  0.5230720000000  0.4881220000000 1.0
C      1  0.5686340000000  0.4763690000000  0.4957410000000 1.0
C      1  0.5419160000000  0.4383620000000  0.4882860000000 1.0
C      1  0.5001890000000  0.4321370000000  0.4995460000000 1.0
C      1  0.4524410000000  0.5558430000000  0.5268040000000 1.0
C      1  0.4924130000000  0.5676230000000  0.5459390000000 1.0
C      1  0.5220330000000  0.5636330000000  0.5380570000000 1.0
C      1  0.5646840000000  0.5392360000000  0.5334550000000 1.0
C      1  0.5796070000000  0.4927760000000  0.5292080000000 1.0
C      1  0.5475590000000  0.4441570000000  0.5268040000000 1.0
C      1  0.5075870000000  0.4323770000000  0.5459390000000 1.0
C      1  0.4779670000000  0.4363670000000  0.5380570000000 1.0
C      1  0.4353160000000  0.4607640000000  0.5334550000000 1.0
C      1  0.4203930000000  0.5072240000000  0.5292080000000 1.0
C      1  0.5006640000000  0.5390260000000  0.4370750000000 1.0
C      1  0.5268960000000  0.5392770000000  0.4466550000000 1.0
C      1  0.5433730000000  0.5173750000000  0.4368700000000 1.0
C      1  0.5359260000000  0.4909390000000  0.4384430000000 1.0
C      1  0.5244130000000  0.4671820000000  0.4470610000000 1.0
C      1  0.4993360000000  0.4609740000000  0.4370750000000 1.0
C      1  0.4731040000000  0.4607230000000  0.4466550000000 1.0
C      1  0.4566270000000  0.4826250000000  0.4368700000000 1.0
C      1  0.4640740000000  0.5090610000000  0.4384430000000 1.0
C      1  0.4755870000000  0.5328180000000  0.4470610000000 1.0
END
