TITL C-38197-8510-446 11.2462137291509 125000 -348.805531759972 0 0 60 (Ci) n - 1
REM
REM in /home/bkarasulu/CARBON/AIRSS/Generating-Clusters/EDIP-Nigel-Params/Higher-Symm/Box-15A/Only-C60/SD-CG/FIRE-HFTN
REM
REM
REM
REM
REM
REM ./C.cell (414f73aa93bd7a1190c7fd0f31ff2f98)
REM
REM compiler GCC version 9.2.1 20190827 (Red Hat 9.2.1-1)
REM options -cpp -mtune=generic -march=x86-64 -g -O0 -fpre-include=/usr/include/finclude/math-vector-fortran.h
REM seed 888074583 43039301 -647660450 1942534545 790910580 -1831676798 740028090 2046106548 1368433129 -1422851673 509993025 1370200545 1173683328 692231227 -741448307 451874321 1461684213 822121350 1690097241 772953487 796958809 1992819777 526097926 937704416 -969275597 582865913 -1252622388 961254796 -1768733616 634784537 6029778 -1042192400 1743719556
REM
CELL 1.54180   50.00000   50.00000   50.00000   90.00000   90.00000   90.00000
LATT -1
SFAC C  
C      1  0.5819370000000  0.5609780000000  0.5010540000000 1.0
C      1  0.4180630000000  0.4390220000000  0.4989460000000 1.0
C      1  0.4485450000000  0.5292770000000  0.5873300000000 1.0
C      1  0.5514550000000  0.4707230000000  0.4126700000000 1.0
C      1  0.5290570000000  0.4823050000000  0.5075800000000 1.0
C      1  0.4709430000000  0.5176950000000  0.4924200000000 1.0
C      1  0.5239750000000  0.4734050000000  0.5332420000000 1.0
C      1  0.4760250000000  0.5265950000000  0.4667580000000 1.0
C      1  0.5104320000000  0.4603330000000  0.5534300000000 1.0
C      1  0.4895680000000  0.5396670000000  0.4465700000000 1.0
C      1  0.4948440000000  0.5848410000000  0.4705340000000 1.0
C      1  0.5051560000000  0.4151590000000  0.5294660000000 1.0
C      1  0.4365240000000  0.4254630000000  0.4847320000000 1.0
C      1  0.5634760000000  0.5745370000000  0.5152680000000 1.0
C      1  0.5158350000000  0.6041090000000  0.4761720000000 1.0
C      1  0.4841650000000  0.3958910000000  0.5238280000000 1.0
C      1  0.4399520000000  0.3359700000000  0.4588390000000 1.0
C      1  0.5600480000000  0.6640300000000  0.5411610000000 1.0
C      1  0.5545780000000  0.5573270000000  0.4945680000000 1.0
C      1  0.4454220000000  0.4426730000000  0.5054320000000 1.0
C      1  0.4597690000000  0.5417380000000  0.5407510000000 1.0
C      1  0.5402310000000  0.4582620000000  0.4592490000000 1.0
C      1  0.4550910000000  0.3527210000000  0.4708420000000 1.0
C      1  0.5449090000000  0.6472790000000  0.5291590000000 1.0
C      1  0.5323130000000  0.5092570000000  0.5037280000000 1.0
C      1  0.4676870000000  0.4907430000000  0.4962720000000 1.0
C      1  0.4770330000000  0.3764510000000  0.5437670000000 1.0
C      1  0.5229670000000  0.6235490000000  0.4562330000000 1.0
C      1  0.5176450000000  0.4105350000000  0.4586100000000 1.0
C      1  0.4823550000000  0.5894650000000  0.5413900000000 1.0
C      1  0.5487470000000  0.4980530000000  0.4168070000000 1.0
C      1  0.4512530000000  0.5019470000000  0.5831930000000 1.0
C      1  0.5047980000000  0.4335160000000  0.5500600000000 1.0
C      1  0.4952020000000  0.5664840000000  0.4499400000000 1.0
C      1  0.5578440000000  0.4692020000000  0.4396660000000 1.0
C      1  0.4421560000000  0.5307980000000  0.5603340000000 1.0
C      1  0.5133650000000  0.4244800000000  0.5036060000000 1.0
C      1  0.4866350000000  0.5755200000000  0.4963940000000 1.0
C      1  0.5130170000000  0.6121590000000  0.5039240000000 1.0
C      1  0.4869830000000  0.3878410000000  0.4960760000000 1.0
C      1  0.5392200000000  0.4279410000000  0.4651340000000 1.0
C      1  0.4607800000000  0.5720590000000  0.5348660000000 1.0
C      1  0.4953220000000  0.4750270000000  0.5709670000000 1.0
C      1  0.5046780000000  0.5249730000000  0.4290330000000 1.0
C      1  0.4754810000000  0.4895520000000  0.5808100000000 1.0
C      1  0.5245190000000  0.5104480000000  0.4191900000000 1.0
C      1  0.5418460000000  0.5337640000000  0.5004750000000 1.0
C      1  0.4581540000000  0.4662360000000  0.4995250000000 1.0
C      1  0.4696660000000  0.3710550000000  0.4830500000000 1.0
C      1  0.5303340000000  0.6289450000000  0.5169500000000 1.0
C      1  0.5384930000000  0.6180780000000  0.4331300000000 1.0
C      1  0.4615070000000  0.3819220000000  0.5668700000000 1.0
C      1  0.4604430000000  0.5655090000000  0.5039170000000 1.0
C      1  0.5395570000000  0.4344910000000  0.4960830000000 1.0
C      1  0.4955910000000  0.5930730000000  0.5168720000000 1.0
C      1  0.5044090000000  0.4069270000000  0.4831280000000 1.0
C      1  0.4568700000000  0.5355800000000  0.5104420000000 1.0
C      1  0.5431300000000  0.4644200000000  0.4895580000000 1.0
C      1  0.4508940000000  0.3661630000000  0.5477290000000 1.0
C      1  0.5491060000000  0.6338370000000  0.4522710000000 1.0
END
