TITL C-38196-2854-227 1.14247473328541e-05 125000 -357.364525495877 0 0 60 (C1) n - 1
REM
REM in /home/bkarasulu/CARBON/AIRSS/Generating-Clusters/EDIP-Nigel-Params/Higher-Symm/Box-15A/Only-C60/SD-CG/FIRE-HFTN
REM
REM
REM
REM
REM
REM ./C.cell (414f73aa93bd7a1190c7fd0f31ff2f98)
REM
REM compiler GCC version 9.2.1 20190827 (Red Hat 9.2.1-1)
REM options -cpp -mtune=generic -march=x86-64 -g -O0 -fpre-include=/usr/include/finclude/math-vector-fortran.h
REM seed -1321702529 1674733198 -1632898151 1204635237 725961200 1796805641 -293174681 37137884 34660744 1707235268 1506729184 -705960802 1065334719 -716435295 348560133 852606542 2055153625 714493153 1392935261 -92038412 -1451495290 -786120484 -732875058 -1253816020 1385785649 -1684430104 1570637220 -1930550444 -1982871120 -977968491 351056146 -1474810546 -1349340844
REM
CELL 1.54180   50.00000   50.00000   50.00000   90.00000   90.00000   90.00000
LATT -1
SFAC C  
C      1  0.4743480000000  0.4724790000000  0.5452930000000 1.0
C      1  0.4903040000000  0.4334810000000  0.5313860000000 1.0
C      1  0.5266610000000  0.4575010000000  0.4583900000000 1.0
C      1  0.5186690000000  0.4401390000000  0.5280680000000 1.0
C      1  0.5582340000000  0.5261510000000  0.5319140000000 1.0
C      1  0.4747270000000  0.4475790000000  0.4534060000000 1.0
C      1  0.5269320000000  0.5028510000000  0.4847780000000 1.0
C      1  0.4664770000000  0.5210780000000  0.5232910000000 1.0
C      1  0.5171090000000  0.5384200000000  0.4259520000000 1.0
C      1  0.4786430000000  0.4972470000000  0.5635520000000 1.0
C      1  0.4635480000000  0.5588080000000  0.4420380000000 1.0
C      1  0.5190180000000  0.5552980000000  0.5405850000000 1.0
C      1  0.4778610000000  0.5045260000000  0.4263360000000 1.0
C      1  0.4512460000000  0.4928940000000  0.4408490000000 1.0
C      1  0.4792270000000  0.4451720000000  0.5552450000000 1.0
C      1  0.5357650000000  0.5312550000000  0.5505240000000 1.0
C      1  0.4239080000000  0.4938620000000  0.4789120000000 1.0
C      1  0.4559480000000  0.5459900000000  0.5114850000000 1.0
C      1  0.5282950000000  0.4861220000000  0.5088860000000 1.0
C      1  0.4798180000000  0.5151340000000  0.4559220000000 1.0
C      1  0.5692670000000  0.4843600000000  0.5562580000000 1.0
C      1  0.5270060000000  0.5708290000000  0.5178470000000 1.0
C      1  0.4931160000000  0.4754430000000  0.5204910000000 1.0
C      1  0.4991610000000  0.5239740000000  0.5179260000000 1.0
C      1  0.4492220000000  0.5410450000000  0.4827720000000 1.0
C      1  0.4521040000000  0.4968220000000  0.5127530000000 1.0
C      1  0.5713710000000  0.4995450000000  0.5328820000000 1.0
C      1  0.5325640000000  0.4545860000000  0.5478300000000 1.0
C      1  0.4375470000000  0.5119920000000  0.4608700000000 1.0
C      1  0.5564800000000  0.5038330000000  0.4752640000000 1.0
C      1  0.5161860000000  0.5514640000000  0.4762640000000 1.0
C      1  0.4743970000000  0.4382110000000  0.5055790000000 1.0
C      1  0.4771050000000  0.4842320000000  0.4960330000000 1.0
C      1  0.5025740000000  0.4729550000000  0.4525450000000 1.0
C      1  0.5240010000000  0.5120330000000  0.4309920000000 1.0
C      1  0.5288200000000  0.4367800000000  0.5022780000000 1.0
C      1  0.5279100000000  0.5451760000000  0.4505240000000 1.0
C      1  0.4891790000000  0.5535550000000  0.5428620000000 1.0
C      1  0.4518140000000  0.4649960000000  0.4539460000000 1.0
C      1  0.5225220000000  0.5748640000000  0.4909830000000 1.0
C      1  0.4390400000000  0.4680920000000  0.4801790000000 1.0
C      1  0.5721060000000  0.4819460000000  0.4837280000000 1.0
C      1  0.4478170000000  0.4731230000000  0.5315790000000 1.0
C      1  0.5421430000000  0.4785210000000  0.5590150000000 1.0
C      1  0.4243610000000  0.5048140000000  0.5044490000000 1.0
C      1  0.5043130000000  0.4906960000000  0.4278030000000 1.0
C      1  0.5029970000000  0.5004830000000  0.5766040000000 1.0
C      1  0.5106510000000  0.4985550000000  0.5287030000000 1.0
C      1  0.5226010000000  0.5305520000000  0.4963940000000 1.0
C      1  0.5690370000000  0.5277400000000  0.4840160000000 1.0
C      1  0.4961080000000  0.4945700000000  0.4736040000000 1.0
C      1  0.4735530000000  0.5663760000000  0.5216300000000 1.0
C      1  0.4692430000000  0.5427930000000  0.4624990000000 1.0
C      1  0.5803880000000  0.4878490000000  0.5089970000000 1.0
C      1  0.5517900000000  0.5365230000000  0.5049180000000 1.0
C      1  0.5167630000000  0.4389680000000  0.4772600000000 1.0
C      1  0.4691590000000  0.5223660000000  0.5527060000000 1.0
C      1  0.4477700000000  0.4529060000000  0.5075610000000 1.0
C      1  0.4876540000000  0.4384150000000  0.4783050000000 1.0
C      1  0.5234190000000  0.5020290000000  0.5563380000000 1.0
END
