TITL C-38195-9455-474 -9.03056192737247e-06 125000 -351.089165407418 0 0 60 (C3h) n - 1
REM
REM in /home/bkarasulu/CARBON/AIRSS/Generating-Clusters/EDIP-Nigel-Params/Higher-Symm/Box-15A/Only-C60/SD-CG/FIRE-HFTN
REM
REM
REM
REM
REM
REM ./C.cell (414f73aa93bd7a1190c7fd0f31ff2f98)
REM
REM compiler GCC version 9.2.1 20190827 (Red Hat 9.2.1-1)
REM options -cpp -mtune=generic -march=x86-64 -g -O0 -fpre-include=/usr/include/finclude/math-vector-fortran.h
REM seed 3887148 1303887948 -121884240 -313049548 1996080842 1263358864 -1646995525 -1978156528 963701092 1074324906 -1070606384 610502564 -698595201 1929299143 -578903383 -167750508 -1590502406 -1980312454 -570110307 995000417 730039553 175099549 -1271415620 725431834 804566306 961371160 -58006116 401376692 424832973 -1657938801 1900076227 -1748904200 1189806657
REM
CELL 1.54180   50.00000   50.00000   50.00000   90.00000   90.00000   90.00000
LATT -1
SFAC C  
C      1  0.4619760000000  0.4763760000000  0.4937730000000 1.0
C      1  0.4619760000000  0.5172050000000  0.4826540000000 1.0
C      1  0.4619760000000  0.5064190000000  0.5235730000000 1.0
C      1  0.5380240000000  0.4763760000000  0.4937730000000 1.0
C      1  0.5380240000000  0.5172050000000  0.4826540000000 1.0
C      1  0.5380240000000  0.5064190000000  0.5235730000000 1.0
C      1  0.4856910000000  0.4852300000000  0.5712400000000 1.0
C      1  0.4856910000000  0.4456890000000  0.4515890000000 1.0
C      1  0.4856910000000  0.5690810000000  0.4771710000000 1.0
C      1  0.5143090000000  0.4852300000000  0.5712400000000 1.0
C      1  0.5143090000000  0.4456890000000  0.4515890000000 1.0
C      1  0.5143090000000  0.5690810000000  0.4771710000000 1.0
C      1  0.5564680000000  0.5438010000000  0.4613220000000 1.0
C      1  0.5564680000000  0.5115960000000  0.5572710000000 1.0
C      1  0.5564680000000  0.4446040000000  0.4814060000000 1.0
C      1  0.4435320000000  0.5438010000000  0.4613220000000 1.0
C      1  0.4435320000000  0.5115960000000  0.5572710000000 1.0
C      1  0.4435320000000  0.4446040000000  0.4814060000000 1.0
C      1  0.5781570000000  0.4915270000000  0.4841780000000 1.0
C      1  0.5781570000000  0.5179390000000  0.5005740000000 1.0
C      1  0.5781570000000  0.4905340000000  0.5152490000000 1.0
C      1  0.4218430000000  0.4915270000000  0.4841780000000 1.0
C      1  0.4218430000000  0.5179390000000  0.5005740000000 1.0
C      1  0.4218430000000  0.4905340000000  0.5152490000000 1.0
C      1  0.4295790000000  0.5405990000000  0.4851100000000 1.0
C      1  0.4295790000000  0.4925950000000  0.5426050000000 1.0
C      1  0.4295790000000  0.4668060000000  0.4722850000000 1.0
C      1  0.5704210000000  0.5405990000000  0.4851100000000 1.0
C      1  0.5704210000000  0.4925950000000  0.5426050000000 1.0
C      1  0.5704210000000  0.4668060000000  0.4722850000000 1.0
C      1  0.4715530000000  0.5354400000000  0.5222560000000 1.0
C      1  0.4715530000000  0.4630060000000  0.5195630000000 1.0
C      1  0.4715530000000  0.5015550000000  0.4581800000000 1.0
C      1  0.5284470000000  0.5354400000000  0.5222560000000 1.0
C      1  0.5284470000000  0.4630060000000  0.5195630000000 1.0
C      1  0.5284470000000  0.5015550000000  0.4581800000000 1.0
C      1  0.4807240000000  0.4356720000000  0.5221200000000 1.0
C      1  0.4807240000000  0.5130080000000  0.4332310000000 1.0
C      1  0.4807240000000  0.5513200000000  0.5446490000000 1.0
C      1  0.5192760000000  0.4356720000000  0.5221200000000 1.0
C      1  0.5192760000000  0.5130080000000  0.4332310000000 1.0
C      1  0.5192760000000  0.5513200000000  0.5446490000000 1.0
C      1  0.5160630000000  0.5356130000000  0.4959580000000 1.0
C      1  0.5160630000000  0.4856940000000  0.5328630000000 1.0
C      1  0.5160630000000  0.4786930000000  0.4711790000000 1.0
C      1  0.4839370000000  0.5356130000000  0.4959580000000 1.0
C      1  0.4839370000000  0.4856940000000  0.5328630000000 1.0
C      1  0.4839370000000  0.4786930000000  0.4711790000000 1.0
C      1  0.5149590000000  0.4227810000000  0.4963820000000 1.0
C      1  0.5149590000000  0.5417430000000  0.4349350000000 1.0
C      1  0.5149590000000  0.5354760000000  0.5686830000000 1.0
C      1  0.4850410000000  0.4227810000000  0.4963820000000 1.0
C      1  0.4850410000000  0.5417430000000  0.4349350000000 1.0
C      1  0.4850410000000  0.5354760000000  0.5686830000000 1.0
C      1  0.5292950000000  0.5097460000000  0.5670580000000 1.0
C      1  0.5292950000000  0.4370530000000  0.4749110000000 1.0
C      1  0.5292950000000  0.5532010000000  0.4580300000000 1.0
C      1  0.4707050000000  0.5097460000000  0.5670580000000 1.0
C      1  0.4707050000000  0.4370530000000  0.4749110000000 1.0
C      1  0.4707050000000  0.5532010000000  0.4580300000000 1.0
END
