TITL C-38185-7677-328 -1.68918302256381e-05 125000 -357.581456771453 0 0 60 (C3) n - 1
REM
REM in /home/bkarasulu/CARBON/AIRSS/Generating-Clusters/EDIP-Nigel-Params/Higher-Symm/Box-15A/Only-C60/SD-CG/FIRE-HFTN
REM
REM
REM
REM
REM
REM ./C.cell (414f73aa93bd7a1190c7fd0f31ff2f98)
REM
REM compiler GCC version 9.2.1 20190827 (Red Hat 9.2.1-1)
REM options -cpp -mtune=generic -march=x86-64 -g -O0 -fpre-include=/usr/include/finclude/math-vector-fortran.h
REM seed -290855850 -1526428404 122165123 -130917869 2027674119 -236685671 2074010661 -711028313 208068729 1929861118 509007622 1160531254 1213053083 -1146887643 625220685 701746195 1667750952 478765297 1574627454 -105098099 -1430615970 -1919983812 2140698291 565352475 -2131650108 -1480794819 -1979348166 937475163 -440077694 -126508422 -527699779 -2049787735 -2058838870
REM
CELL 1.54180   50.00000   50.00000   50.00000   90.00000   90.00000   90.00000
LATT -1
SFAC C  
C      1  0.5354900000000  0.5493940000000  0.4714540000000 1.0
C      1  0.5354900000000  0.4505820000000  0.4714960000000 1.0
C      1  0.5354900000000  0.5000240000000  0.5570490000000 1.0
C      1  0.5392210000000  0.5068790000000  0.4408100000000 1.0
C      1  0.5392210000000  0.4453010000000  0.5236380000000 1.0
C      1  0.5392210000000  0.5478210000000  0.5355520000000 1.0
C      1  0.4360580000000  0.5147280000000  0.5424880000000 1.0
C      1  0.4360580000000  0.5294320000000  0.4660010000000 1.0
C      1  0.4360580000000  0.4558400000000  0.4915110000000 1.0
C      1  0.4582150000000  0.4897740000000  0.4407110000000 1.0
C      1  0.4582150000000  0.4537670000000  0.5385010000000 1.0
C      1  0.4582150000000  0.5564590000000  0.5207880000000 1.0
C      1  0.5516980000000  0.4480890000000  0.4963710000000 1.0
C      1  0.5516980000000  0.5228120000000  0.5467710000000 1.0
C      1  0.5516980000000  0.5290980000000  0.4568590000000 1.0
C      1  0.5044610000000  0.5559650000000  0.5101070000000 1.0
C      1  0.5044610000000  0.4807700000000  0.4464790000000 1.0
C      1  0.5044610000000  0.4632650000000  0.5434140000000 1.0
C      1  0.4349710000000  0.4649540000000  0.5211560000000 1.0
C      1  0.4349710000000  0.5358450000000  0.5197730000000 1.0
C      1  0.4349710000000  0.4992020000000  0.4590710000000 1.0
C      1  0.5044670000000  0.4369190000000  0.5300360000000 1.0
C      1  0.5044670000000  0.5575530000000  0.5396120000000 1.0
C      1  0.5044670000000  0.5055280000000  0.4303520000000 1.0
C      1  0.4755500000000  0.5119040000000  0.4712670000000 1.0
C      1  0.4755500000000  0.4691650000000  0.5040570000000 1.0
C      1  0.4755500000000  0.5189310000000  0.5246760000000 1.0
C      1  0.5703200000000  0.4831550000000  0.5244710000000 1.0
C      1  0.5703200000000  0.5296150000000  0.5023530000000 1.0
C      1  0.5703200000000  0.4872300000000  0.4731760000000 1.0
C      1  0.5480030000000  0.4714410000000  0.5405520000000 1.0
C      1  0.5480030000000  0.5493980000000  0.5044570000000 1.0
C      1  0.5480030000000  0.4791610000000  0.4549910000000 1.0
C      1  0.4598910000000  0.5204350000000  0.5607240000000 1.0
C      1  0.4598910000000  0.5423710000000  0.4519400000000 1.0
C      1  0.4598910000000  0.4371930000000  0.4873350000000 1.0
C      1  0.4464930000000  0.4932820000000  0.5234770000000 1.0
C      1  0.4464930000000  0.5236910000000  0.4940790000000 1.0
C      1  0.4464930000000  0.4830270000000  0.4824440000000 1.0
C      1  0.5151630000000  0.4817100000000  0.5223280000000 1.0
C      1  0.5151630000000  0.5284810000000  0.5046760000000 1.0
C      1  0.5151630000000  0.4898090000000  0.4729970000000 1.0
C      1  0.4783420000000  0.5537530000000  0.4982090000000 1.0
C      1  0.4783420000000  0.4715720000000  0.4543450000000 1.0
C      1  0.4783420000000  0.4746750000000  0.5474470000000 1.0
C      1  0.5053180000000  0.4709760000000  0.4953340000000 1.0
C      1  0.5053180000000  0.5104710000000  0.5274680000000 1.0
C      1  0.5053180000000  0.5185530000000  0.4771980000000 1.0
C      1  0.4810220000000  0.4992620000000  0.5634660000000 1.0
C      1  0.4810220000000  0.5553320000000  0.4689060000000 1.0
C      1  0.4810220000000  0.4454060000000  0.4676280000000 1.0
C      1  0.5087280000000  0.5086140000000  0.5660910000000 1.0
C      1  0.5087280000000  0.5529300000000  0.4594950000000 1.0
C      1  0.5087280000000  0.4384570000000  0.4744140000000 1.0
C      1  0.5711950000000  0.4705120000000  0.4976740000000 1.0
C      1  0.5711950000000  0.5127290000000  0.5267000000000 1.0
C      1  0.5711950000000  0.5167580000000  0.4756260000000 1.0
C      1  0.4753950000000  0.5519900000000  0.5453090000000 1.0
C      1  0.4753950000000  0.5132430000000  0.4323210000000 1.0
C      1  0.4753950000000  0.4347660000000  0.5223710000000 1.0
END
