TITL C-38184-643-424 166.453945280685 125000 -349.709334458688 0 0 60 (C1) n - 1
REM
REM in /home/bkarasulu/CARBON/AIRSS/Generating-Clusters/EDIP-Nigel-Params/Higher-Symm/Box-15A/Only-C60/SD-CG/FIRE-HFTN
REM
REM
REM
REM
REM
REM ./C.cell (414f73aa93bd7a1190c7fd0f31ff2f98)
REM
REM compiler GCC version 9.2.1 20190827 (Red Hat 9.2.1-1)
REM options -cpp -mtune=generic -march=x86-64 -g -O0 -fpre-include=/usr/include/finclude/math-vector-fortran.h
REM seed 378114315 -1729605541 256205160 -1474541698 1441266474 -458879207 126092229 305274536 1728297307 -417455465 -998124472 719901044 -1909675467 -1868646172 -1840395848 1182376910 1571512322 928526953 797272733 -962041216 2092728687 -327677413 -1211377953 -2039293947 413818695 860291380 -2071521039 -990835967 -1002552542 1142382683 -1065822876 669682393 -517922361
REM
CELL 1.54180   50.00000   50.00000   50.00000   90.00000   90.00000   90.00000
LATT -1
SFAC C  
C      1  0.4766870000000  0.5264600000000  0.5411200000000 1.0
C      1  0.3939730000000  0.6682440000000  0.4175790000000 1.0
C      1  0.5168000000000  0.4478100000000  0.5461710000000 1.0
C      1  0.4479460000000  0.4714720000000  0.5605010000000 1.0
C      1  0.5326310000000  0.4833890000000  0.4326620000000 1.0
C      1  0.6368050000000  0.5492010000000  0.5165590000000 1.0
C      1  0.4684470000000  0.4545120000000  0.5593470000000 1.0
C      1  0.4430010000000  0.4414860000000  0.4874770000000 1.0
C      1  0.5379410000000  0.4363770000000  0.5005080000000 1.0
C      1  0.5457840000000  0.5179640000000  0.5335420000000 1.0
C      1  0.5379730000000  0.4320420000000  0.5600380000000 1.0
C      1  0.5781820000000  0.4614200000000  0.5609010000000 1.0
C      1  0.5427080000000  0.5313280000000  0.4844190000000 1.0
C      1  0.5108980000000  0.4422030000000  0.4356780000000 1.0
C      1  0.3722610000000  0.6551910000000  0.4267940000000 1.0
C      1  0.5517190000000  0.4605780000000  0.4984630000000 1.0
C      1  0.4860830000000  0.4824050000000  0.4365370000000 1.0
C      1  0.4811160000000  0.5660210000000  0.4528020000000 1.0
C      1  0.4358130000000  0.4938540000000  0.5499970000000 1.0
C      1  0.5645340000000  0.4388530000000  0.5581850000000 1.0
C      1  0.5092650000000  0.4691280000000  0.4302020000000 1.0
C      1  0.4542580000000  0.5620390000000  0.4488870000000 1.0
C      1  0.4480820000000  0.5058320000000  0.4912670000000 1.0
C      1  0.5937170000000  0.5232540000000  0.5326850000000 1.0
C      1  0.4902030000000  0.4475070000000  0.5015160000000 1.0
C      1  0.5598470000000  0.4833950000000  0.4854640000000 1.0
C      1  0.5099290000000  0.4037550000000  0.5912340000000 1.0
C      1  0.3912910000000  0.6406570000000  0.4116160000000 1.0
C      1  0.4743940000000  0.4940670000000  0.5014910000000 1.0
C      1  0.5299260000000  0.4077450000000  0.5726490000000 1.0
C      1  0.5062140000000  0.5610240000000  0.4596570000000 1.0
C      1  0.5333710000000  0.4234170000000  0.4763180000000 1.0
C      1  0.5208110000000  0.5027210000000  0.5389230000000 1.0
C      1  0.5275810000000  0.5492720000000  0.4700680000000 1.0
C      1  0.4270720000000  0.4628700000000  0.4882690000000 1.0
C      1  0.5234440000000  0.4756430000000  0.5469850000000 1.0
C      1  0.5756920000000  0.4876490000000  0.5577770000000 1.0
C      1  0.5425840000000  0.5039000000000  0.4756920000000 1.0
C      1  0.4905850000000  0.5139510000000  0.5170630000000 1.0
C      1  0.4709710000000  0.4997710000000  0.4498120000000 1.0
C      1  0.5133800000000  0.4377570000000  0.5170860000000 1.0
C      1  0.4250310000000  0.4883600000000  0.4994400000000 1.0
C      1  0.5442300000000  0.5349140000000  0.5117840000000 1.0
C      1  0.6577200000000  0.5616140000000  0.5086630000000 1.0
C      1  0.4209230000000  0.4894590000000  0.5270780000000 1.0
C      1  0.5719870000000  0.5082770000000  0.5401150000000 1.0
C      1  0.4383750000000  0.5824600000000  0.4399810000000 1.0
C      1  0.4434710000000  0.5372710000000  0.4541360000000 1.0
C      1  0.5218880000000  0.4246220000000  0.4523330000000 1.0
C      1  0.4662670000000  0.4323330000000  0.4985210000000 1.0
C      1  0.4075320000000  0.6221180000000  0.4236200000000 1.0
C      1  0.6154170000000  0.5358880000000  0.5244020000000 1.0
C      1  0.4736510000000  0.4675630000000  0.5135430000000 1.0
C      1  0.5502090000000  0.4953080000000  0.4497940000000 1.0
C      1  0.4924090000000  0.4152010000000  0.5732790000000 1.0
C      1  0.4228640000000  0.6019680000000  0.4312100000000 1.0
C      1  0.5005250000000  0.5174410000000  0.5546180000000 1.0
C      1  0.4521290000000  0.5161530000000  0.5489850000000 1.0
C      1  0.4489220000000  0.5112710000000  0.4620110000000 1.0
C      1  0.4925310000000  0.4416130000000  0.5625480000000 1.0
END
