TITL C-38196-2854-337 15.5059046490414 125000 -359.664073716177 0 0 60 (C1) n - 1
REM
REM in /home/bkarasulu/CARBON/AIRSS/Generating-Clusters/EDIP-Nigel-Params/Higher-Symm/Box-15A/Only-C60/SD-CG/FIRE-HFTN
REM
REM
REM
REM
REM
REM ./C.cell (414f73aa93bd7a1190c7fd0f31ff2f98)
REM
REM compiler GCC version 9.2.1 20190827 (Red Hat 9.2.1-1)
REM options -cpp -mtune=generic -march=x86-64 -g -O0 -fpre-include=/usr/include/finclude/math-vector-fortran.h
REM seed -1733339766 47322271 -1560825337 -1625362231 1136437222 1746411525 -1545900517 607830480 -66288883 -424609394 -74307732 -1579689885 1003221753 -1113736534 -207483195 679571756 426210988 -1529017414 1087561781 -1504824144 -1223399127 -298086998 872257752 -1450914005 1027897404 1108896735 1196108764 -518118931 -421050082 -2009968918 -926779819 1292825531 573950607
REM
CELL 1.54180   50.00000   50.00000   50.00000   90.00000   90.00000   90.00000
LATT -1
SFAC C  
C      1  0.5564010000000  0.4339330000000  0.4894440000000 1.0
C      1  0.4139430000000  0.4858970000000  0.4905480000000 1.0
C      1  0.5374080000000  0.5818130000000  0.5025880000000 1.0
C      1  0.5862920000000  0.4545200000000  0.5028290000000 1.0
C      1  0.4241580000000  0.4575280000000  0.4960380000000 1.0
C      1  0.5024950000000  0.5942150000000  0.4907960000000 1.0
C      1  0.4461120000000  0.4724140000000  0.5381560000000 1.0
C      1  0.5064630000000  0.5661010000000  0.5305810000000 1.0
C      1  0.5590370000000  0.4645160000000  0.5400550000000 1.0
C      1  0.5077340000000  0.5147600000000  0.5045590000000 1.0
C      1  0.5087740000000  0.4838040000000  0.5060620000000 1.0
C      1  0.4811360000000  0.4984820000000  0.5022890000000 1.0
C      1  0.4578130000000  0.5405140000000  0.5180410000000 1.0
C      1  0.5535530000000  0.5182440000000  0.5243710000000 1.0
C      1  0.4917510000000  0.4402510000000  0.5259190000000 1.0
C      1  0.4212300000000  0.5839170000000  0.4251850000000 1.0
C      1  0.6035130000000  0.5191530000000  0.4258670000000 1.0
C      1  0.4627650000000  0.3920100000000  0.4308390000000 1.0
C      1  0.4669590000000  0.4367910000000  0.5109240000000 1.0
C      1  0.4692010000000  0.5594490000000  0.4995980000000 1.0
C      1  0.5666770000000  0.4989580000000  0.5073210000000 1.0
C      1  0.5763420000000  0.4490950000000  0.4775770000000 1.0
C      1  0.4031790000000  0.4635600000000  0.4766520000000 1.0
C      1  0.5279900000000  0.6045910000000  0.4901180000000 1.0
C      1  0.4640410000000  0.5433280000000  0.5453630000000 1.0
C      1  0.5491420000000  0.5110410000000  0.5511680000000 1.0
C      1  0.4893870000000  0.4455500000000  0.5535260000000 1.0
C      1  0.4232450000000  0.5315550000000  0.4764050000000 1.0
C      1  0.5577100000000  0.5475810000000  0.4754700000000 1.0
C      1  0.5125990000000  0.4224670000000  0.4750240000000 1.0
C      1  0.4320580000000  0.5087790000000  0.4892880000000 1.0
C      1  0.5385190000000  0.5545400000000  0.4940260000000 1.0
C      1  0.5284010000000  0.4393520000000  0.4900090000000 1.0
C      1  0.5063770000000  0.5040510000000  0.5735450000000 1.0
C      1  0.5149970000000  0.4778710000000  0.5772300000000 1.0
C      1  0.4789500000000  0.5081950000000  0.5735470000000 1.0
C      1  0.4888060000000  0.3917370000000  0.4238420000000 1.0
C      1  0.4028210000000  0.5642110000000  0.4250470000000 1.0
C      1  0.5910950000000  0.5425450000000  0.4207910000000 1.0
C      1  0.5174330000000  0.5476020000000  0.5483890000000 1.0
C      1  0.5327880000000  0.4550350000000  0.5381510000000 1.0
C      1  0.4471200000000  0.5001740000000  0.5362560000000 1.0
C      1  0.4684010000000  0.4229370000000  0.4869210000000 1.0
C      1  0.4548620000000  0.5653790000000  0.4766650000000 1.0
C      1  0.5788360000000  0.5077670000000  0.4841370000000 1.0
C      1  0.5157670000000  0.4542390000000  0.5132180000000 1.0
C      1  0.4539020000000  0.5119610000000  0.5097320000000 1.0
C      1  0.5298910000000  0.5340440000000  0.5144220000000 1.0
C      1  0.4311390000000  0.5559230000000  0.4660120000000 1.0
C      1  0.5772230000000  0.5297970000000  0.4676150000000 1.0
C      1  0.4873600000000  0.4129710000000  0.4696020000000 1.0
C      1  0.5147050000000  0.4552220000000  0.5609480000000 1.0
C      1  0.4593660000000  0.5178400000000  0.5562960000000 1.0
C      1  0.5231930000000  0.5203370000000  0.5565800000000 1.0
C      1  0.4799070000000  0.4117340000000  0.4419040000000 1.0
C      1  0.4277440000000  0.5592920000000  0.4376950000000 1.0
C      1  0.5792160000000  0.5247390000000  0.4394230000000 1.0
C      1  0.4454020000000  0.4552990000000  0.5160850000000 1.0
C      1  0.4909230000000  0.5756520000000  0.5091250000000 1.0
C      1  0.5757470000000  0.4747350000000  0.5201870000000 1.0
END
