TITL C-38194-9318-639 -2.26398429375017e-06 125000 -352.31822648055 0 0 60 (C1) n - 1
REM
REM in /home/bkarasulu/CARBON/AIRSS/Generating-Clusters/EDIP-Nigel-Params/Higher-Symm/Box-15A/Only-C60/SD-CG/FIRE-HFTN
REM
REM
REM
REM
REM
REM ./C.cell (414f73aa93bd7a1190c7fd0f31ff2f98)
REM
REM compiler GCC version 9.2.1 20190827 (Red Hat 9.2.1-1)
REM options -cpp -mtune=generic -march=x86-64 -g -O0 -fpre-include=/usr/include/finclude/math-vector-fortran.h
REM seed 116039397 696639959 563700975 -95566348 1616744745 -1961339962 150561681 261994109 109101359 356274009 1518580846 732571250 26621022 1311490128 1170513153 1428603659 -646311107 1476326933 -284133110 -1721225924 1155268723 -898536721 -724276970 1042651619 1689048636 1344259088 -2027417925 -499742329 217619801 621440414 -981077755 1703019390 1446777169
REM
CELL 1.54180   50.00000   50.00000   50.00000   90.00000   90.00000   90.00000
LATT -1
SFAC C  
C      1  0.4818650000000  0.4766090000000  0.4697860000000 1.0
C      1  0.4571970000000  0.4893470000000  0.4865890000000 1.0
C      1  0.4936940000000  0.4525710000000  0.4855860000000 1.0
C      1  0.5104170000000  0.5244400000000  0.4575620000000 1.0
C      1  0.4999030000000  0.4704200000000  0.5418870000000 1.0
C      1  0.4993480000000  0.5144790000000  0.5428570000000 1.0
C      1  0.5447840000000  0.5099850000000  0.4903230000000 1.0
C      1  0.5455780000000  0.4841040000000  0.5328720000000 1.0
C      1  0.4736150000000  0.5190410000000  0.5278810000000 1.0
C      1  0.5275930000000  0.5340350000000  0.4811390000000 1.0
C      1  0.5252900000000  0.4635250000000  0.5268520000000 1.0
C      1  0.4799990000000  0.5417890000000  0.5065740000000 1.0
C      1  0.4731440000000  0.4654940000000  0.5295780000000 1.0
C      1  0.4602120000000  0.4914710000000  0.5177830000000 1.0
C      1  0.4765300000000  0.4458760000000  0.5080730000000 1.0
C      1  0.5224500000000  0.5294810000000  0.5307010000000 1.0
C      1  0.5084310000000  0.4929900000000  0.4593590000000 1.0
C      1  0.4851180000000  0.5390590000000  0.4564790000000 1.0
C      1  0.5458690000000  0.5110860000000  0.5211830000000 1.0
C      1  0.5324850000000  0.4837560000000  0.4770520000000 1.0
C      1  0.4489790000000  0.5155180000000  0.4765000000000 1.0
C      1  0.5115420000000  0.5448530000000  0.5059810000000 1.0
C      1  0.5225620000000  0.4596790000000  0.4951920000000 1.0
C      1  0.4656860000000  0.5395770000000  0.4784490000000 1.0
C      1  0.4489590000000  0.5632670000000  0.4761440000000 1.0
C      1  0.4565170000000  0.4544790000000  0.5509650000000 1.0
C      1  0.5535770000000  0.4740280000000  0.4597020000000 1.0
C      1  0.5392570000000  0.4365740000000  0.4898730000000 1.0
C      1  0.5188860000000  0.5728260000000  0.5078450000000 1.0
C      1  0.4664480000000  0.4199110000000  0.5052920000000 1.0
C      1  0.5317850000000  0.5477540000000  0.5514830000000 1.0
C      1  0.5121700000000  0.4828580000000  0.4324480000000 1.0
C      1  0.4844810000000  0.5553150000000  0.4337550000000 1.0
C      1  0.4227520000000  0.5146470000000  0.4670030000000 1.0
C      1  0.4333310000000  0.4924630000000  0.5286010000000 1.0
C      1  0.5714700000000  0.5221990000000  0.5296780000000 1.0
C      1  0.4695430000000  0.5665580000000  0.5173870000000 1.0
C      1  0.4706240000000  0.4661380000000  0.4452060000000 1.0
C      1  0.5702590000000  0.4791160000000  0.5450210000000 1.0
C      1  0.5354540000000  0.4378130000000  0.5361150000000 1.0
C      1  0.5444480000000  0.5561350000000  0.4729250000000 1.0
C      1  0.4935690000000  0.4282160000000  0.4694480000000 1.0
C      1  0.5235720000000  0.5319430000000  0.4326280000000 1.0
C      1  0.4984050000000  0.4622710000000  0.5688480000000 1.0
C      1  0.4988950000000  0.5212420000000  0.5702400000000 1.0
C      1  0.4540250000000  0.5299900000000  0.5463980000000 1.0
C      1  0.4336210000000  0.4730880000000  0.4810690000000 1.0
C      1  0.5715140000000  0.5121220000000  0.4793370000000 1.0
C      1  0.5436850000000  0.4249740000000  0.5138120000000 1.0
C      1  0.5075720000000  0.5501780000000  0.4200850000000 1.0
C      1  0.4324040000000  0.5140780000000  0.5445230000000 1.0
C      1  0.4526940000000  0.5769350000000  0.4991190000000 1.0
C      1  0.4771920000000  0.4102490000000  0.4820170000000 1.0
C      1  0.5375380000000  0.5768510000000  0.4887760000000 1.0
C      1  0.4892660000000  0.4701380000000  0.4262140000000 1.0
C      1  0.5176830000000  0.5405360000000  0.5736210000000 1.0
C      1  0.4728830000000  0.4537790000000  0.5727270000000 1.0
C      1  0.5845610000000  0.5022880000000  0.5429860000000 1.0
C      1  0.5742420000000  0.4910590000000  0.4627260000000 1.0
C      1  0.4144280000000  0.4887990000000  0.4697430000000 1.0
END
