TITL C-38191-7580-416 2.04580569838349e-05 125000 -350.595690030349 0 0 60 (C2v) n - 1
REM
REM in /home/bkarasulu/CARBON/AIRSS/Generating-Clusters/EDIP-Nigel-Params/Higher-Symm/Box-15A/Only-C60/SD-CG/FIRE-HFTN
REM
REM
REM
REM
REM
REM ./C.cell (414f73aa93bd7a1190c7fd0f31ff2f98)
REM
REM compiler GCC version 9.2.1 20190827 (Red Hat 9.2.1-1)
REM options -cpp -mtune=generic -march=x86-64 -g -O0 -fpre-include=/usr/include/finclude/math-vector-fortran.h
REM seed 845109141 -2059319649 -806223629 790297069 -2117196184 874307218 402748828 1822538003 1250586440 1164253751 669552296 -586949101 986945759 612101911 -272284939 1481082792 1540008839 -1173621719 533218971 1267192571 -639998241 68473371 -1132554592 -1274639972 941327600 718785214 1225724657 383670499 -328094716 1561850675 -99717357 -225338141 -330273485
REM
CELL 1.54180   50.00000   50.00000   50.00000   90.00000   90.00000   90.00000
LATT -1
SFAC C  
C      1  0.5535980000000  0.5416470000000  0.5328190000000 1.0
C      1  0.5535980000000  0.4583430000000  0.5328060000000 1.0
C      1  0.4776570000000  0.4296830000000  0.5314230000000 1.0
C      1  0.4354430000000  0.4999940000000  0.5352980000000 1.0
C      1  0.4776570000000  0.5703070000000  0.5314450000000 1.0
C      1  0.5535980000000  0.4583530000000  0.4671810000000 1.0
C      1  0.5535980000000  0.5416570000000  0.4671940000000 1.0
C      1  0.4776570000000  0.5703170000000  0.4685770000000 1.0
C      1  0.4354430000000  0.5000060000000  0.4647020000000 1.0
C      1  0.4776570000000  0.4296930000000  0.4685550000000 1.0
C      1  0.5322900000000  0.4755280000000  0.5464720000000 1.0
C      1  0.4870970000000  0.4572650000000  0.5394790000000 1.0
C      1  0.4638380000000  0.4999920000000  0.5474990000000 1.0
C      1  0.4870970000000  0.5427230000000  0.5394920000000 1.0
C      1  0.5322900000000  0.5244570000000  0.5464800000000 1.0
C      1  0.5322900000000  0.5244720000000  0.4535280000000 1.0
C      1  0.4870970000000  0.5427350000000  0.4605210000000 1.0
C      1  0.4638380000000  0.5000080000000  0.4525010000000 1.0
C      1  0.4870970000000  0.4572770000000  0.4605080000000 1.0
C      1  0.5322900000000  0.4755430000000  0.4535200000000 1.0
C      1  0.5202050000000  0.5143080000000  0.4778970000000 1.0
C      1  0.5202050000000  0.4856990000000  0.4778930000000 1.0
C      1  0.4932730000000  0.4759260000000  0.4840620000000 1.0
C      1  0.4778950000000  0.5000030000000  0.4779180000000 1.0
C      1  0.4932730000000  0.5240790000000  0.4840690000000 1.0
C      1  0.5202050000000  0.4856920000000  0.5221030000000 1.0
C      1  0.5202050000000  0.5143010000000  0.5221070000000 1.0
C      1  0.4932730000000  0.5240740000000  0.5159380000000 1.0
C      1  0.4778950000000  0.4999970000000  0.5220820000000 1.0
C      1  0.4932730000000  0.4759210000000  0.5159310000000 1.0
C      1  0.4733910000000  0.5261910000000  0.4397280000000 1.0
C      1  0.5088980000000  0.5391380000000  0.4404750000000 1.0
C      1  0.5415830000000  0.5000100000000  0.4395820000000 1.0
C      1  0.5088980000000  0.4608810000000  0.4404620000000 1.0
C      1  0.4733910000000  0.4738280000000  0.4397200000000 1.0
C      1  0.4733910000000  0.4738090000000  0.5602720000000 1.0
C      1  0.5088980000000  0.4608620000000  0.5595250000000 1.0
C      1  0.5415830000000  0.4999900000000  0.5604180000000 1.0
C      1  0.5088980000000  0.5391190000000  0.5595380000000 1.0
C      1  0.4733910000000  0.5261720000000  0.5602800000000 1.0
C      1  0.4293870000000  0.4804410000000  0.4856860000000 1.0
C      1  0.4557130000000  0.5707600000000  0.4862050000000 1.0
C      1  0.5440060000000  0.5606740000000  0.4861100000000 1.0
C      1  0.5702220000000  0.4716330000000  0.4861040000000 1.0
C      1  0.4948830000000  0.4159900000000  0.4861590000000 1.0
C      1  0.4293870000000  0.5195590000000  0.5143140000000 1.0
C      1  0.4557130000000  0.4292400000000  0.5137950000000 1.0
C      1  0.5440060000000  0.4393260000000  0.5138900000000 1.0
C      1  0.5702220000000  0.5283670000000  0.5138960000000 1.0
C      1  0.4948830000000  0.5840100000000  0.5138410000000 1.0
C      1  0.5440060000000  0.5606690000000  0.5139090000000 1.0
C      1  0.5702220000000  0.4716290000000  0.5138870000000 1.0
C      1  0.4948830000000  0.4159860000000  0.5138150000000 1.0
C      1  0.4293870000000  0.4804370000000  0.5143080000000 1.0
C      1  0.4557130000000  0.5707550000000  0.5138180000000 1.0
C      1  0.5440060000000  0.4393310000000  0.4860910000000 1.0
C      1  0.5702220000000  0.5283710000000  0.4861130000000 1.0
C      1  0.4948830000000  0.5840140000000  0.4861850000000 1.0
C      1  0.4293870000000  0.5195630000000  0.4856920000000 1.0
C      1  0.4557130000000  0.4292450000000  0.4861820000000 1.0
END
