TITL C-38184-643-391 -4.95303200324145e-06 125000 -365.476173810215 0 0 60 (C2) n - 1
REM
REM in /home/bkarasulu/CARBON/AIRSS/Generating-Clusters/EDIP-Nigel-Params/Higher-Symm/Box-15A/Only-C60/SD-CG/FIRE-HFTN
REM
REM
REM
REM
REM
REM ./C.cell (414f73aa93bd7a1190c7fd0f31ff2f98)
REM
REM compiler GCC version 9.2.1 20190827 (Red Hat 9.2.1-1)
REM options -cpp -mtune=generic -march=x86-64 -g -O0 -fpre-include=/usr/include/finclude/math-vector-fortran.h
REM seed 963751037 -542364302 -1577716622 -1479236826 978593992 -1777036241 -406898175 -292362454 355497674 -806065611 2064236820 868011817 2085735826 -1380739232 297040620 2119885124 2130245826 -1263510824 -666420589 233751032 -572742153 239602076 -1788317583 45848263 1982895202 700633431 -1510403292 -1443068308 480010598 549506979 770795758 -893797561 -1889636697
REM
CELL 1.54180   50.00000   50.00000   50.00000   90.00000   90.00000   90.00000
LATT -1
SFAC C  
C      1  0.4495540000000  0.4534020000000  0.5180660000000 1.0
C      1  0.5504460000000  0.4534020000000  0.4819340000000 1.0
C      1  0.4761640000000  0.4493240000000  0.5186680000000 1.0
C      1  0.5238360000000  0.4493240000000  0.4813320000000 1.0
C      1  0.4549980000000  0.4759190000000  0.4391890000000 1.0
C      1  0.5450020000000  0.4759190000000  0.5608110000000 1.0
C      1  0.4949510000000  0.4460710000000  0.4431270000000 1.0
C      1  0.5050490000000  0.4460710000000  0.5568730000000 1.0
C      1  0.4970410000000  0.5590780000000  0.5229410000000 1.0
C      1  0.5029590000000  0.5590780000000  0.4770590000000 1.0
C      1  0.5283130000000  0.4911440000000  0.4909870000000 1.0
C      1  0.4716870000000  0.4911440000000  0.5090130000000 1.0
C      1  0.4905150000000  0.5323490000000  0.4305830000000 1.0
C      1  0.5094850000000  0.5323490000000  0.5694170000000 1.0
C      1  0.5261900000000  0.5001040000000  0.4216500000000 1.0
C      1  0.4738100000000  0.5001040000000  0.5783500000000 1.0
C      1  0.4516770000000  0.4643190000000  0.4664530000000 1.0
C      1  0.5483230000000  0.4643190000000  0.5335470000000 1.0
C      1  0.4513070000000  0.4914110000000  0.5635360000000 1.0
C      1  0.5486930000000  0.4914110000000  0.4364640000000 1.0
C      1  0.5569890000000  0.5095210000000  0.4567820000000 1.0
C      1  0.4430110000000  0.5095210000000  0.5432180000000 1.0
C      1  0.4615230000000  0.5381910000000  0.4954930000000 1.0
C      1  0.5384770000000  0.5381910000000  0.5045070000000 1.0
C      1  0.5023660000000  0.4852320000000  0.4186370000000 1.0
C      1  0.4976340000000  0.4852320000000  0.5813630000000 1.0
C      1  0.5209520000000  0.5281360000000  0.4288030000000 1.0
C      1  0.4790480000000  0.5281360000000  0.5711970000000 1.0
C      1  0.4827560000000  0.5563470000000  0.4443780000000 1.0
C      1  0.5172440000000  0.5563470000000  0.5556220000000 1.0
C      1  0.5664320000000  0.5138910000000  0.5347600000000 1.0
C      1  0.4335680000000  0.5138910000000  0.4652400000000 1.0
C      1  0.5570800000000  0.4992300000000  0.4861800000000 1.0
C      1  0.4429200000000  0.4992300000000  0.5138200000000 1.0
C      1  0.5228730000000  0.4719320000000  0.5195750000000 1.0
C      1  0.4771270000000  0.4719320000000  0.4804250000000 1.0
C      1  0.4768440000000  0.5078890000000  0.4446360000000 1.0
C      1  0.5231560000000  0.5078890000000  0.5553640000000 1.0
C      1  0.4893070000000  0.5108050000000  0.5215160000000 1.0
C      1  0.5106930000000  0.5108050000000  0.4784840000000 1.0
C      1  0.4768360000000  0.5374480000000  0.5214330000000 1.0
C      1  0.5231640000000  0.5374480000000  0.4785670000000 1.0
C      1  0.4467520000000  0.5065770000000  0.4414430000000 1.0
C      1  0.5532480000000  0.5065770000000  0.5585570000000 1.0
C      1  0.5240900000000  0.5492000000000  0.5276340000000 1.0
C      1  0.4759100000000  0.5492000000000  0.4723660000000 1.0
C      1  0.5686550000000  0.4720420000000  0.4918720000000 1.0
C      1  0.4313450000000  0.4720420000000  0.5081280000000 1.0
C      1  0.5166020000000  0.4674900000000  0.5706450000000 1.0
C      1  0.4833980000000  0.4674900000000  0.4293550000000 1.0
C      1  0.5176980000000  0.5054270000000  0.5248890000000 1.0
C      1  0.4823020000000  0.5054270000000  0.4751110000000 1.0
C      1  0.4996130000000  0.4551100000000  0.4689750000000 1.0
C      1  0.5003870000000  0.4551100000000  0.5310250000000 1.0
C      1  0.4276640000000  0.4679940000000  0.4806800000000 1.0
C      1  0.5723360000000  0.4679940000000  0.5193200000000 1.0
C      1  0.5612370000000  0.5204460000000  0.5077790000000 1.0
C      1  0.4387630000000  0.5204460000000  0.4922210000000 1.0
C      1  0.5395000000000  0.5339720000000  0.4534760000000 1.0
C      1  0.4605000000000  0.5339720000000  0.5465240000000 1.0
END
