TITL C-38186-4112-74 0.000273300696108385 125000 -359.608295473814 0 0 60 (C1) n - 1
REM
REM in /home/bkarasulu/CARBON/AIRSS/Generating-Clusters/EDIP-Nigel-Params/Higher-Symm/Box-15A/Only-C60/SD-CG/FIRE-HFTN
REM
REM
REM
REM
REM
REM ./C.cell (414f73aa93bd7a1190c7fd0f31ff2f98)
REM
REM compiler GCC version 9.2.1 20190827 (Red Hat 9.2.1-1)
REM options -cpp -mtune=generic -march=x86-64 -g -O0 -fpre-include=/usr/include/finclude/math-vector-fortran.h
REM seed -1788986063 259711094 1710856564 2090054605 -488220110 -1742412587 -1336408924 922031271 1036820075 1948220475 1161433476 2117596324 -1937134501 -839860359 -194765482 329374640 -429940431 -502763510 1446502176 48662919 124572438 256132238 -2016689753 2122545265 991428662 -2123762530 -975982977 13147792 -303032123 907591719 -20020593 843156517 326437754
REM
CELL 1.54180   50.00000   50.00000   50.00000   90.00000   90.00000   90.00000
LATT -1
SFAC C  
C      1  0.4787560000000  0.5541090000000  0.5157650000000 1.0
C      1  0.4778900000000  0.5549630000000  0.4843230000000 1.0
C      1  0.5073610000000  0.5521480000000  0.4748520000000 1.0
C      1  0.5258790000000  0.5513540000000  0.4996740000000 1.0
C      1  0.5086470000000  0.5552630000000  0.5252190000000 1.0
C      1  0.4704860000000  0.4652160000000  0.4371620000000 1.0
C      1  0.5497490000000  0.4656670000000  0.4518610000000 1.0
C      1  0.5603270000000  0.4635320000000  0.5318810000000 1.0
C      1  0.4850730000000  0.4691690000000  0.5685360000000 1.0
C      1  0.4332070000000  0.4641800000000  0.5098410000000 1.0
C      1  0.4554690000000  0.5422300000000  0.4663160000000 1.0
C      1  0.5174820000000  0.5422100000000  0.4475050000000 1.0
C      1  0.5553560000000  0.5419440000000  0.5012690000000 1.0
C      1  0.5161360000000  0.5436360000000  0.5534540000000 1.0
C      1  0.4541360000000  0.5439360000000  0.5316620000000 1.0
C      1  0.4787450000000  0.4568280000000  0.5441950000000 1.0
C      1  0.4532120000000  0.4546600000000  0.4921980000000 1.0
C      1  0.4927990000000  0.4569410000000  0.4521270000000 1.0
C      1  0.5425360000000  0.4565290000000  0.4774240000000 1.0
C      1  0.5340820000000  0.4530000000000  0.5325780000000 1.0
C      1  0.4373150000000  0.4991730000000  0.5450250000000 1.0
C      1  0.4370970000000  0.4979930000000  0.4525110000000 1.0
C      1  0.5253820000000  0.4986810000000  0.4249760000000 1.0
C      1  0.5778470000000  0.4978140000000  0.5013190000000 1.0
C      1  0.5223190000000  0.4999090000000  0.5768910000000 1.0
C      1  0.4767150000000  0.5156580000000  0.4314340000000 1.0
C      1  0.5569400000000  0.5160770000000  0.4569010000000 1.0
C      1  0.5578250000000  0.5147570000000  0.5417620000000 1.0
C      1  0.4787820000000  0.5192000000000  0.5694160000000 1.0
C      1  0.4285580000000  0.5147770000000  0.5006120000000 1.0
C      1  0.4321000000000  0.5389510000000  0.5147640000000 1.0
C      1  0.4640540000000  0.5395750000000  0.4395230000000 1.0
C      1  0.5456400000000  0.5400720000000  0.4473080000000 1.0
C      1  0.5639880000000  0.5385910000000  0.5279180000000 1.0
C      1  0.4937590000000  0.5431120000000  0.5707610000000 1.0
C      1  0.5658530000000  0.5183410000000  0.4853490000000 1.0
C      1  0.5335700000000  0.5189710000000  0.5588800000000 1.0
C      1  0.4558010000000  0.5203820000000  0.5505590000000 1.0
C      1  0.4401020000000  0.5170640000000  0.4734280000000 1.0
C      1  0.5061570000000  0.5175600000000  0.4343550000000 1.0
C      1  0.4744290000000  0.4314390000000  0.4949160000000 1.0
C      1  0.4956190000000  0.4326040000000  0.4717340000000 1.0
C      1  0.5239480000000  0.4323260000000  0.4849900000000 1.0
C      1  0.5196590000000  0.4303440000000  0.5158820000000 1.0
C      1  0.4896760000000  0.4311760000000  0.5212310000000 1.0
C      1  0.4302130000000  0.4910460000000  0.5187710000000 1.0
C      1  0.4601860000000  0.4915640000000  0.4374380000000 1.0
C      1  0.5466630000000  0.4920940000000  0.4424640000000 1.0
C      1  0.5674790000000  0.4905170000000  0.5266740000000 1.0
C      1  0.4944880000000  0.4947120000000  0.5756080000000 1.0
C      1  0.5233840000000  0.5081630000000  0.4905690000000 1.0
C      1  0.5165480000000  0.5125950000000  0.5188820000000 1.0
C      1  0.4881570000000  0.5058610000000  0.5243740000000 1.0
C      1  0.4761120000000  0.5134820000000  0.4985710000000 1.0
C      1  0.4957560000000  0.5094310000000  0.4763890000000 1.0
C      1  0.4960790000000  0.4769880000000  0.4744220000000 1.0
C      1  0.5233200000000  0.4766480000000  0.4890410000000 1.0
C      1  0.5181430000000  0.4740560000000  0.5184650000000 1.0
C      1  0.4883250000000  0.4755420000000  0.5226300000000 1.0
C      1  0.4746850000000  0.4752410000000  0.4954130000000 1.0
END
