TITL C-38187-2739-440 2.49218323843846e-05 125000 -362.390084015176 0 0 60 (D2) n - 1
REM
REM in /home/bkarasulu/CARBON/AIRSS/Generating-Clusters/EDIP-Nigel-Params/Higher-Symm/Box-15A/Only-C60/SD-CG/FIRE-HFTN
REM
REM
REM
REM
REM
REM ./C.cell (414f73aa93bd7a1190c7fd0f31ff2f98)
REM
REM compiler GCC version 9.2.1 20190827 (Red Hat 9.2.1-1)
REM options -cpp -mtune=generic -march=x86-64 -g -O0 -fpre-include=/usr/include/finclude/math-vector-fortran.h
REM seed -1948337592 -1255981920 1747139564 795861231 611521504 1623690745 -1190056899 812822675 -360677991 -672972621 -575602650 941223108 -389505026 566249040 -108193238 -303523031 136141758 1872134106 -435497238 -1410301118 322340312 -1154954998 793673572 -420654736 -1563564832 300371918 1926136578 2051916166 -1377651913 962996403 -144190930 -2053102469 -1299171489
REM
CELL 1.54180   50.00000   50.00000   50.00000   90.00000   90.00000   90.00000
LATT -1
SFAC C  
C      1  0.4492600000000  0.5084700000000  0.4645940000000 1.0
C      1  0.4944880000000  0.4440070000000  0.4605660000000 1.0
C      1  0.5507400000000  0.4915300000000  0.4645940000000 1.0
C      1  0.5055120000000  0.5559930000000  0.4605660000000 1.0
C      1  0.5559930000000  0.5055120000000  0.5409700000000 1.0
C      1  0.5084700000000  0.4492600000000  0.5369420000000 1.0
C      1  0.4440070000000  0.4944880000000  0.5409700000000 1.0
C      1  0.4915300000000  0.5507400000000  0.5369420000000 1.0
C      1  0.4542510000000  0.4512080000000  0.5218390000000 1.0
C      1  0.5554030000000  0.4433760000000  0.5262880000000 1.0
C      1  0.5457490000000  0.5487920000000  0.5218390000000 1.0
C      1  0.4445970000000  0.5566240000000  0.5262880000000 1.0
C      1  0.5566240000000  0.4445970000000  0.4752480000000 1.0
C      1  0.4512080000000  0.4542510000000  0.4796970000000 1.0
C      1  0.4433760000000  0.5554030000000  0.4752480000000 1.0
C      1  0.5487920000000  0.5457490000000  0.4796970000000 1.0
C      1  0.4883340000000  0.4645030000000  0.5518650000000 1.0
C      1  0.5448060000000  0.4818600000000  0.5560720000000 1.0
C      1  0.5116660000000  0.5354970000000  0.5518650000000 1.0
C      1  0.4551940000000  0.5181400000000  0.5560720000000 1.0
C      1  0.5181400000000  0.4551940000000  0.4454640000000 1.0
C      1  0.4645030000000  0.4883340000000  0.4496710000000 1.0
C      1  0.4818600000000  0.5448060000000  0.4454640000000 1.0
C      1  0.5354970000000  0.5116660000000  0.4496710000000 1.0
C      1  0.4664210000000  0.4743950000000  0.5337150000000 1.0
C      1  0.5355240000000  0.4624890000000  0.5345000000000 1.0
C      1  0.5335790000000  0.5256050000000  0.5337150000000 1.0
C      1  0.4644760000000  0.5375110000000  0.5345000000000 1.0
C      1  0.5375110000000  0.4644760000000  0.4670360000000 1.0
C      1  0.4743950000000  0.4664210000000  0.4678210000000 1.0
C      1  0.4624890000000  0.5355240000000  0.4670360000000 1.0
C      1  0.5256050000000  0.5335790000000  0.4678210000000 1.0
C      1  0.4804550000000  0.4969230000000  0.4264000000000 1.0
C      1  0.5114720000000  0.4746550000000  0.4250180000000 1.0
C      1  0.5195450000000  0.5030770000000  0.4264000000000 1.0
C      1  0.4885280000000  0.5253450000000  0.4250180000000 1.0
C      1  0.5253450000000  0.4885280000000  0.5765180000000 1.0
C      1  0.4969230000000  0.4804550000000  0.5751360000000 1.0
C      1  0.4746550000000  0.5114720000000  0.5765180000000 1.0
C      1  0.5030770000000  0.5195450000000  0.5751360000000 1.0
C      1  0.5183150000000  0.5071290000000  0.5144040000000 1.0
C      1  0.4662490000000  0.5187520000000  0.5110430000000 1.0
C      1  0.4816850000000  0.4928710000000  0.5144040000000 1.0
C      1  0.5337510000000  0.4812480000000  0.5110430000000 1.0
C      1  0.4812480000000  0.5337510000000  0.4904930000000 1.0
C      1  0.5071290000000  0.5183150000000  0.4871320000000 1.0
C      1  0.5187520000000  0.4662490000000  0.4904930000000 1.0
C      1  0.4928710000000  0.4816850000000  0.4871320000000 1.0
C      1  0.5003480000000  0.5646080000000  0.5136640000000 1.0
C      1  0.4306870000000  0.5028390000000  0.5154420000000 1.0
C      1  0.4996520000000  0.4353920000000  0.5136640000000 1.0
C      1  0.5693130000000  0.4971610000000  0.5154420000000 1.0
C      1  0.4971610000000  0.5693130000000  0.4860940000000 1.0
C      1  0.5646080000000  0.5003480000000  0.4878720000000 1.0
C      1  0.5028390000000  0.4306870000000  0.4860940000000 1.0
C      1  0.4353920000000  0.4996520000000  0.4878720000000 1.0
C      1  0.5619350000000  0.4380650000000  0.5007680000000 1.0
C      1  0.5590530000000  0.5590530000000  0.5007680000000 1.0
C      1  0.4380650000000  0.5619350000000  0.5007680000000 1.0
C      1  0.4409470000000  0.4409470000000  0.5007680000000 1.0
END
