TITL C-38196-2854-75 6.22519670484976e-06 125000 -355.03597247859 0 0 60 (C1) n - 1
REM
REM in /home/bkarasulu/CARBON/AIRSS/Generating-Clusters/EDIP-Nigel-Params/Higher-Symm/Box-15A/Only-C60/SD-CG/FIRE-HFTN
REM
REM
REM
REM
REM
REM ./C.cell (414f73aa93bd7a1190c7fd0f31ff2f98)
REM
REM compiler GCC version 9.2.1 20190827 (Red Hat 9.2.1-1)
REM options -cpp -mtune=generic -march=x86-64 -g -O0 -fpre-include=/usr/include/finclude/math-vector-fortran.h
REM seed -956566888 -818120437 -1794061013 1529651302 -1868855783 -707868609 -101452871 -837676120 -800598601 -1263287614 -1156415221 455559708 1449121873 -242354069 982734973 1798340380 1699952912 -951803003 -1910752548 583858416 -1786806070 1343568500 187905309 965855125 1722492705 -224429424 1429016447 -1908063662 1607664574 -849156031 -415865666 1996789152 -399988388
REM
CELL 1.54180   50.00000   50.00000   50.00000   90.00000   90.00000   90.00000
LATT -1
SFAC C  
C      1  0.5108690000000  0.5473400000000  0.5080420000000 1.0
C      1  0.5127780000000  0.5108690000000  0.5466760000000 1.0
C      1  0.5111480000000  0.4639820000000  0.5166140000000 1.0
C      1  0.5173630000000  0.4626430000000  0.4634690000000 1.0
C      1  0.5132250000000  0.5154910000000  0.4618210000000 1.0
C      1  0.4525090000000  0.4835330000000  0.5647050000000 1.0
C      1  0.4522740000000  0.4350330000000  0.5059800000000 1.0
C      1  0.4547760000000  0.4768810000000  0.4417420000000 1.0
C      1  0.4553360000000  0.5501380000000  0.4605810000000 1.0
C      1  0.4519050000000  0.5535320000000  0.5358800000000 1.0
C      1  0.5383120000000  0.4752910000000  0.5105320000000 1.0
C      1  0.5465170000000  0.4796480000000  0.4819340000000 1.0
C      1  0.5411290000000  0.5098260000000  0.4753740000000 1.0
C      1  0.5419040000000  0.5241580000000  0.5023870000000 1.0
C      1  0.5435500000000  0.5011540000000  0.5246460000000 1.0
C      1  0.5138440000000  0.4587490000000  0.4169130000000 1.0
C      1  0.5240120000000  0.5562320000000  0.4374010000000 1.0
C      1  0.5136750000000  0.5829700000000  0.5393650000000 1.0
C      1  0.5147710000000  0.4860780000000  0.5871990000000 1.0
C      1  0.5166410000000  0.4164480000000  0.5113640000000 1.0
C      1  0.5867770000000  0.4816820000000  0.5101790000000 1.0
C      1  0.5770000000000  0.4850000000000  0.4835200000000 1.0
C      1  0.5803760000000  0.5133640000000  0.4774680000000 1.0
C      1  0.5724330000000  0.5262670000000  0.5024780000000 1.0
C      1  0.5750830000000  0.5041050000000  0.5234960000000 1.0
C      1  0.5053350000000  0.5765120000000  0.5133480000000 1.0
C      1  0.5071180000000  0.5106640000000  0.5761680000000 1.0
C      1  0.5094190000000  0.4364290000000  0.5295820000000 1.0
C      1  0.5086520000000  0.4442520000000  0.4404480000000 1.0
C      1  0.5118010000000  0.5310700000000  0.4351490000000 1.0
C      1  0.5033470000000  0.4519080000000  0.4879280000000 1.0
C      1  0.5064680000000  0.4874020000000  0.4506210000000 1.0
C      1  0.5106670000000  0.5431630000000  0.4776980000000 1.0
C      1  0.5082350000000  0.5389000000000  0.5369070000000 1.0
C      1  0.5091630000000  0.4806170000000  0.5433940000000 1.0
C      1  0.4848240000000  0.5321580000000  0.4272850000000 1.0
C      1  0.4783820000000  0.5821920000000  0.5083470000000 1.0
C      1  0.4804110000000  0.5177880000000  0.5809280000000 1.0
C      1  0.4837960000000  0.4326430000000  0.5406910000000 1.0
C      1  0.4812390000000  0.4374190000000  0.4429030000000 1.0
C      1  0.5192800000000  0.5651080000000  0.4625490000000 1.0
C      1  0.5120540000000  0.5604070000000  0.5543650000000 1.0
C      1  0.5129780000000  0.4672150000000  0.5678000000000 1.0
C      1  0.5064370000000  0.4236320000000  0.4873300000000 1.0
C      1  0.5084440000000  0.4848440000000  0.4225870000000 1.0
C      1  0.4601630000000  0.5298820000000  0.4408600000000 1.0
C      1  0.4555050000000  0.5658730000000  0.5102740000000 1.0
C      1  0.4560490000000  0.5117810000000  0.5679890000000 1.0
C      1  0.4575000000000  0.4405830000000  0.5337410000000 1.0
C      1  0.4588550000000  0.4510260000000  0.4536050000000 1.0
C      1  0.4543930000000  0.4700950000000  0.5396230000000 1.0
C      1  0.4594300000000  0.4521710000000  0.4839270000000 1.0
C      1  0.4572970000000  0.5028190000000  0.4536020000000 1.0
C      1  0.4559000000000  0.5451160000000  0.4886980000000 1.0
C      1  0.4546820000000  0.5256220000000  0.5411800000000 1.0
C      1  0.4716460000000  0.4837660000000  0.5206080000000 1.0
C      1  0.4678340000000  0.4781930000000  0.4930760000000 1.0
C      1  0.4741580000000  0.5012000000000  0.4772650000000 1.0
C      1  0.4754120000000  0.5241820000000  0.4958670000000 1.0
C      1  0.4749170000000  0.5129560000000  0.5238930000000 1.0
END
