TITL C-38194-9318-572 4.70869278750481e-05 125000 -356.378342274376 0 0 60 (C1) n - 1
REM
REM in /home/bkarasulu/CARBON/AIRSS/Generating-Clusters/EDIP-Nigel-Params/Higher-Symm/Box-15A/Only-C60/SD-CG/FIRE-HFTN
REM
REM
REM
REM
REM
REM ./C.cell (414f73aa93bd7a1190c7fd0f31ff2f98)
REM
REM compiler GCC version 9.2.1 20190827 (Red Hat 9.2.1-1)
REM options -cpp -mtune=generic -march=x86-64 -g -O0 -fpre-include=/usr/include/finclude/math-vector-fortran.h
REM seed 192721387 374230805 -2011378212 1242001561 263337574 -323957857 277706127 1287587426 535911873 82051190 337746937 -1722724278 -1510103906 684060659 2069183091 322309938 1849365830 -1279406418 -891583783 -741804058 -1455699835 -692300273 1737590282 -979990967 1752586155 1002995681 -1471004022 -366436547 -8969925 -1601098889 -200939456 -873840659 1234940995
REM
CELL 1.54180   50.00000   50.00000   50.00000   90.00000   90.00000   90.00000
LATT -1
SFAC C  
C      1  0.5771350000000  0.4664460000000  0.4729420000000 1.0
C      1  0.5370540000000  0.4809410000000  0.4332810000000 1.0
C      1  0.5475610000000  0.4990830000000  0.4509900000000 1.0
C      1  0.4906300000000  0.4967940000000  0.4974610000000 1.0
C      1  0.4923040000000  0.5275660000000  0.4937960000000 1.0
C      1  0.4926860000000  0.4629420000000  0.4156460000000 1.0
C      1  0.5064860000000  0.4988350000000  0.5900400000000 1.0
C      1  0.4683940000000  0.5165990000000  0.4360880000000 1.0
C      1  0.4012230000000  0.5158700000000  0.5052750000000 1.0
C      1  0.4686440000000  0.4716330000000  0.4231070000000 1.0
C      1  0.5057790000000  0.4523950000000  0.4814250000000 1.0
C      1  0.5497030000000  0.5457890000000  0.4696760000000 1.0
C      1  0.5384020000000  0.5263210000000  0.4519890000000 1.0
C      1  0.4185510000000  0.4919450000000  0.5095420000000 1.0
C      1  0.4738090000000  0.5474010000000  0.4867170000000 1.0
C      1  0.5153530000000  0.5666730000000  0.4511120000000 1.0
C      1  0.4519310000000  0.4778020000000  0.5482880000000 1.0
C      1  0.4434660000000  0.5784450000000  0.4631050000000 1.0
C      1  0.5609910000000  0.5521620000000  0.5362760000000 1.0
C      1  0.5102590000000  0.4758000000000  0.4955200000000 1.0
C      1  0.4429240000000  0.4825370000000  0.4624410000000 1.0
C      1  0.4178970000000  0.5261110000000  0.4826440000000 1.0
C      1  0.4443370000000  0.4538070000000  0.4672870000000 1.0
C      1  0.5832670000000  0.4504920000000  0.4933030000000 1.0
C      1  0.5014650000000  0.4287020000000  0.5240450000000 1.0
C      1  0.5691640000000  0.4725510000000  0.5623410000000 1.0
C      1  0.5847450000000  0.4479290000000  0.5196480000000 1.0
C      1  0.5501080000000  0.4904400000000  0.5708420000000 1.0
C      1  0.4916690000000  0.5151690000000  0.5195290000000 1.0
C      1  0.5791130000000  0.5123160000000  0.4844940000000 1.0
C      1  0.5271810000000  0.4811620000000  0.5852380000000 1.0
C      1  0.5452670000000  0.5409530000000  0.5559280000000 1.0
C      1  0.5703600000000  0.5382860000000  0.4878700000000 1.0
C      1  0.4330710000000  0.4419930000000  0.4924810000000 1.0
C      1  0.4383380000000  0.4253570000000  0.4697640000000 1.0
C      1  0.5150430000000  0.5394920000000  0.4412030000000 1.0
C      1  0.5192950000000  0.4549180000000  0.5825440000000 1.0
C      1  0.5179800000000  0.5453530000000  0.5558890000000 1.0
C      1  0.4861450000000  0.5110670000000  0.5758870000000 1.0
C      1  0.4695340000000  0.5701560000000  0.4712850000000 1.0
C      1  0.4473210000000  0.4423150000000  0.5163300000000 1.0
C      1  0.4305070000000  0.4884050000000  0.5344020000000 1.0
C      1  0.5376600000000  0.5712420000000  0.4680030000000 1.0
C      1  0.5698460000000  0.4924320000000  0.4676820000000 1.0
C      1  0.4298160000000  0.5517070000000  0.4863500000000 1.0
C      1  0.5804310000000  0.4567610000000  0.5442460000000 1.0
C      1  0.4910370000000  0.5788320000000  0.4563170000000 1.0
C      1  0.4946130000000  0.5337750000000  0.5623990000000 1.0
C      1  0.4192950000000  0.5752770000000  0.4763930000000 1.0
C      1  0.5539600000000  0.5175790000000  0.5677410000000 1.0
C      1  0.4626990000000  0.4541570000000  0.5359640000000 1.0
C      1  0.4360220000000  0.5005430000000  0.4845020000000 1.0
C      1  0.4670730000000  0.4944370000000  0.5645000000000 1.0
C      1  0.5162820000000  0.4388560000000  0.5031640000000 1.0
C      1  0.4918770000000  0.5283130000000  0.4308560000000 1.0
C      1  0.4579060000000  0.4912460000000  0.4392930000000 1.0
C      1  0.4864610000000  0.4401650000000  0.5442490000000 1.0
C      1  0.5184450000000  0.4673550000000  0.4201660000000 1.0
C      1  0.5725830000000  0.5509430000000  0.5122810000000 1.0
C      1  0.4989010000000  0.4454230000000  0.5682240000000 1.0
END
