TITL C-38195-9455-154 6.96547757956611e-06 125000 -375.169939094183 0 0 60 (C5) n - 1
REM
REM in /home/bkarasulu/CARBON/AIRSS/Generating-Clusters/EDIP-Nigel-Params/Higher-Symm/Box-15A/Only-C60/SD-CG/FIRE-HFTN
REM
REM
REM
REM
REM
REM ./C.cell (414f73aa93bd7a1190c7fd0f31ff2f98)
REM
REM compiler GCC version 9.2.1 20190827 (Red Hat 9.2.1-1)
REM options -cpp -mtune=generic -march=x86-64 -g -O0 -fpre-include=/usr/include/finclude/math-vector-fortran.h
REM seed -208138004 -818486750 1104033942 -1888561160 1716846402 1745118915 1630201972 53555822 1940067141 1366581810 511897482 1062269651 -309933986 917920385 1743131441 1898775310 -274281372 797140811 353076455 -1865177533 -1767540800 -1814960690 -1534661774 -1110536808 -502690484 1732646155 1679092191 -890018478 291619153 -1936546672 223116169 1004358947 -1945305024
REM
CELL 1.54180   50.00000   50.00000   50.00000   90.00000   90.00000   90.00000
LATT -1
SFAC C  
C      1  0.4913380000000  0.5508260000000  0.5580270000000 1.0
C      1  0.4489850000000  0.5074680000000  0.5580270000000 1.0
C      1  0.4771330000000  0.4537900000000  0.5580270000000 1.0
C      1  0.5368820000000  0.4639720000000  0.5580270000000 1.0
C      1  0.5456620000000  0.5239440000000  0.5580270000000 1.0
C      1  0.5127260000000  0.4589340000000  0.4429660000000 1.0
C      1  0.5429880000000  0.4994130000000  0.4429660000000 1.0
C      1  0.5138420000000  0.5407030000000  0.4429660000000 1.0
C      1  0.4655670000000  0.5257430000000  0.4429660000000 1.0
C      1  0.4648770000000  0.4752070000000  0.4429660000000 1.0
C      1  0.5162830000000  0.4458560000000  0.4688230000000 1.0
C      1  0.5565260000000  0.4987540000000  0.4688230000000 1.0
C      1  0.5186520000000  0.5533740000000  0.4688230000000 1.0
C      1  0.4550020000000  0.5342330000000  0.4688230000000 1.0
C      1  0.4535370000000  0.4677830000000  0.4688230000000 1.0
C      1  0.5458340000000  0.5481340000000  0.4802220000000 1.0
C      1  0.4683850000000  0.5584650000000  0.4802220000000 1.0
C      1  0.4346270000000  0.4880000000000  0.4802220000000 1.0
C      1  0.4912120000000  0.4341180000000  0.4802220000000 1.0
C      1  0.5599420000000  0.4712830000000  0.4802220000000 1.0
C      1  0.4968450000000  0.5526280000000  0.4908430000000 1.0
C      1  0.4489730000000  0.5132630000000  0.4908430000000 1.0
C      1  0.4716180000000  0.4555690000000  0.4908430000000 1.0
C      1  0.5334860000000  0.4592770000000  0.4908430000000 1.0
C      1  0.5490770000000  0.5192630000000  0.4908430000000 1.0
C      1  0.4892360000000  0.4780440000000  0.5630800000000 1.0
C      1  0.5175550000000  0.4829780000000  0.5630800000000 1.0
C      1  0.5216130000000  0.5114360000000  0.5630800000000 1.0
C      1  0.4958030000000  0.5240900000000  0.5630800000000 1.0
C      1  0.4757920000000  0.5034520000000  0.5630800000000 1.0
C      1  0.4332660000000  0.5150520000000  0.5378750000000 1.0
C      1  0.4650630000000  0.4411840000000  0.5378750000000 1.0
C      1  0.5451420000000  0.4485970000000  0.5378750000000 1.0
C      1  0.5628360000000  0.5270480000000  0.5378750000000 1.0
C      1  0.4936930000000  0.5681190000000  0.5378750000000 1.0
C      1  0.5697240000000  0.5177310000000  0.5127880000000 1.0
C      1  0.5046830000000  0.5717910000000  0.5127880000000 1.0
C      1  0.4331690000000  0.5266380000000  0.5127880000000 1.0
C      1  0.4540140000000  0.4446720000000  0.5127880000000 1.0
C      1  0.5384100000000  0.4391670000000  0.5127880000000 1.0
C      1  0.4877770000000  0.5393470000000  0.4334160000000 1.0
C      1  0.4588020000000  0.5005340000000  0.4334160000000 1.0
C      1  0.4867610000000  0.4609840000000  0.4334160000000 1.0
C      1  0.5330160000000  0.4753520000000  0.4334160000000 1.0
C      1  0.5336440000000  0.5237830000000  0.4334160000000 1.0
C      1  0.5521990000000  0.5682750000000  0.4987870000000 1.0
C      1  0.4511970000000  0.5707430000000  0.4987870000000 1.0
C      1  0.4176390000000  0.4754460000000  0.4987870000000 1.0
C      1  0.4979010000000  0.4140820000000  0.4987870000000 1.0
C      1  0.5810640000000  0.4714540000000  0.4987870000000 1.0
C      1  0.5849870000000  0.4946500000000  0.5118370000000 1.0
C      1  0.5313510000000  0.5791750000000  0.5118370000000 1.0
C      1  0.4343890000000  0.5542830000000  0.5118370000000 1.0
C      1  0.4280990000000  0.4543740000000  0.5118370000000 1.0
C      1  0.5211740000000  0.4175190000000  0.5118370000000 1.0
C      1  0.5160100000000  0.4813680000000  0.5013380000000 1.0
C      1  0.5226670000000  0.5094690000000  0.5013380000000 1.0
C      1  0.4979990000000  0.5244840000000  0.5013380000000 1.0
C      1  0.4760960000000  0.5056630000000  0.5013380000000 1.0
C      1  0.4872280000000  0.4790160000000  0.5013380000000 1.0
END
