TITL C-38192-7909-331 8.79218054743459e-07 125000 -374.089931203141 0 0 60 (C5) n - 1
REM
REM in /home/bkarasulu/CARBON/AIRSS/Generating-Clusters/EDIP-Nigel-Params/Higher-Symm/Box-15A/Only-C60/SD-CG/FIRE-HFTN
REM
REM
REM
REM
REM
REM ./C.cell (414f73aa93bd7a1190c7fd0f31ff2f98)
REM
REM compiler GCC version 9.2.1 20190827 (Red Hat 9.2.1-1)
REM options -cpp -mtune=generic -march=x86-64 -g -O0 -fpre-include=/usr/include/finclude/math-vector-fortran.h
REM seed -2104605989 63998200 286044187 -1571310461 -2054357653 -1973139579 67223271 552665861 -66220378 -807442738 226050754 1626386425 1534561588 546772107 15946563 -1652857794 -595458231 -2133170025 -1397780932 -169149137 1303245957 142154574 1348111291 2009601631 1732516643 1733104135 2103884565 1999177588 -763571895 -473503174 -2031111977 -1895206332 -1550256548
REM
CELL 1.54180   50.00000   50.00000   50.00000   90.00000   90.00000   90.00000
LATT -1
SFAC C  
C      1  0.5722890000000  0.5007260000000  0.4741090000000 1.0
C      1  0.5722890000000  0.4756000000000  0.4913090000000 1.0
C      1  0.5722890000000  0.4841940000000  0.5205200000000 1.0
C      1  0.5722890000000  0.5146310000000  0.5213730000000 1.0
C      1  0.5722890000000  0.5248480000000  0.4926890000000 1.0
C      1  0.5238470000000  0.4980260000000  0.5701370000000 1.0
C      1  0.5238470000000  0.5660950000000  0.5235510000000 1.0
C      1  0.5238470000000  0.5428230000000  0.4444180000000 1.0
C      1  0.5238470000000  0.4603710000000  0.4420970000000 1.0
C      1  0.5238470000000  0.4326850000000  0.5197960000000 1.0
C      1  0.5315370000000  0.4592560000000  0.5119820000000 1.0
C      1  0.5315370000000  0.4988050000000  0.5424530000000 1.0
C      1  0.5315370000000  0.5400060000000  0.5142550000000 1.0
C      1  0.5315370000000  0.5259200000000  0.4663570000000 1.0
C      1  0.5315370000000  0.4760140000000  0.4649530000000 1.0
C      1  0.4812610000000  0.4266340000000  0.5387910000000 1.0
C      1  0.4812610000000  0.5142210000000  0.5817620000000 1.0
C      1  0.4812610000000  0.5821550000000  0.5117410000000 1.0
C      1  0.4812610000000  0.5365540000000  0.4254940000000 1.0
C      1  0.4812610000000  0.4404370000000  0.4422110000000 1.0
C      1  0.4680950000000  0.4376040000000  0.4662230000000 1.0
C      1  0.4680950000000  0.4485950000000  0.5489050000000 1.0
C      1  0.4680950000000  0.5306260000000  0.5640020000000 1.0
C      1  0.4680950000000  0.5703330000000  0.4906500000000 1.0
C      1  0.4680950000000  0.5128420000000  0.4302200000000 1.0
C      1  0.5011580000000  0.4955750000000  0.5859320000000 1.0
C      1  0.5011580000000  0.5803590000000  0.5307630000000 1.0
C      1  0.5011580000000  0.5540890000000  0.4330810000000 1.0
C      1  0.5011580000000  0.4530710000000  0.4278790000000 1.0
C      1  0.5011580000000  0.4169070000000  0.5223460000000 1.0
C      1  0.4912180000000  0.5757070000000  0.5560190000000 1.0
C      1  0.4912180000000  0.5766720000000  0.4453090000000 1.0
C      1  0.4912180000000  0.4716790000000  0.4101800000000 1.0
C      1  0.4912180000000  0.4058250000000  0.4991790000000 1.0
C      1  0.4912180000000  0.4701180000000  0.5893120000000 1.0
C      1  0.4540420000000  0.4597610000000  0.4781070000000 1.0
C      1  0.4540420000000  0.4667440000000  0.5315050000000 1.0
C      1  0.4540420000000  0.5196860000000  0.5413640000000 1.0
C      1  0.4540420000000  0.5454230000000  0.4940600000000 1.0
C      1  0.4540420000000  0.5083870000000  0.4549650000000 1.0
C      1  0.4741120000000  0.5797530000000  0.4655400000000 1.0
C      1  0.4741120000000  0.4918720000000  0.4135020000000 1.0
C      1  0.4741120000000  0.4152230000000  0.4810010000000 1.0
C      1  0.4741120000000  0.4557330000000  0.5747560000000 1.0
C      1  0.4741120000000  0.5574180000000  0.5652010000000 1.0
C      1  0.4485930000000  0.5296050000000  0.4719760000000 1.0
C      1  0.4485930000000  0.4824960000000  0.4631840000000 1.0
C      1  0.4485930000000  0.4595770000000  0.5052710000000 1.0
C      1  0.4485930000000  0.4925210000000  0.5400740000000 1.0
C      1  0.4485930000000  0.5358010000000  0.5194960000000 1.0
C      1  0.5472480000000  0.4742070000000  0.5334850000000 1.0
C      1  0.5472480000000  0.5238760000000  0.5348780000000 1.0
C      1  0.5472480000000  0.5405490000000  0.4880710000000 1.0
C      1  0.5472480000000  0.5011850000000  0.4577490000000 1.0
C      1  0.5472480000000  0.4601830000000  0.4858170000000 1.0
C      1  0.5066010000000  0.4757750000000  0.5070690000000 1.0
C      1  0.5066010000000  0.4992370000000  0.5252240000000 1.0
C      1  0.5066010000000  0.5237540000000  0.5085200000000 1.0
C      1  0.5066010000000  0.5154440000000  0.4800420000000 1.0
C      1  0.5066010000000  0.4857910000000  0.4791450000000 1.0
END
