TITL C-38195-9455-123 3.62557202407482e-05 125000 -353.797444070545 0 0 60 (S4) n - 1
REM
REM in /home/bkarasulu/CARBON/AIRSS/Generating-Clusters/EDIP-Nigel-Params/Higher-Symm/Box-15A/Only-C60/SD-CG/FIRE-HFTN
REM
REM
REM
REM
REM
REM ./C.cell (414f73aa93bd7a1190c7fd0f31ff2f98)
REM
REM compiler GCC version 9.2.1 20190827 (Red Hat 9.2.1-1)
REM options -cpp -mtune=generic -march=x86-64 -g -O0 -fpre-include=/usr/include/finclude/math-vector-fortran.h
REM seed -476433394 -2027329607 601341843 -298978195 -169009896 -1064751617 2110428164 -17987021 -882884340 -217911101 -1813653148 914914572 -288038434 -1543088230 1755336598 2100137411 173248394 -1610430695 -2137526439 1406195196 2061884080 1988316539 1995520105 -780042612 -1234502316 1059342612 1046253955 1882565413 674288539 848562719 -673985767 1012606883 -1225427493
REM
CELL 1.54180   50.00000   50.00000   50.00000   90.00000   90.00000   90.00000
LATT -1
SFAC C  
C      1  0.4988550000000  0.4519390000000  0.4699340000000 1.0
C      1  0.5480610000000  0.4988550000000  0.5300660000000 1.0
C      1  0.5011450000000  0.5480610000000  0.4699340000000 1.0
C      1  0.4519390000000  0.5011450000000  0.5300660000000 1.0
C      1  0.5282370000000  0.4480550000000  0.4686760000000 1.0
C      1  0.5519450000000  0.5282370000000  0.5313240000000 1.0
C      1  0.4717630000000  0.5519450000000  0.4686760000000 1.0
C      1  0.4480550000000  0.4717630000000  0.5313240000000 1.0
C      1  0.4706310000000  0.4468990000000  0.4610910000000 1.0
C      1  0.5531010000000  0.4706310000000  0.5389090000000 1.0
C      1  0.5293690000000  0.5531010000000  0.4610910000000 1.0
C      1  0.4468990000000  0.5293690000000  0.5389090000000 1.0
C      1  0.4722760000000  0.4913240000000  0.4437080000000 1.0
C      1  0.5086760000000  0.4722760000000  0.5562920000000 1.0
C      1  0.5277240000000  0.5086760000000  0.4437080000000 1.0
C      1  0.4913240000000  0.5277240000000  0.5562920000000 1.0
C      1  0.5253660000000  0.5048890000000  0.4933000000000 1.0
C      1  0.4951110000000  0.5253660000000  0.5067000000000 1.0
C      1  0.4746340000000  0.4951110000000  0.4933000000000 1.0
C      1  0.5048890000000  0.4746340000000  0.5067000000000 1.0
C      1  0.4654590000000  0.4283780000000  0.5238610000000 1.0
C      1  0.5716220000000  0.4654590000000  0.4761390000000 1.0
C      1  0.5345410000000  0.5716220000000  0.5238610000000 1.0
C      1  0.4283780000000  0.5345410000000  0.4761390000000 1.0
C      1  0.5108910000000  0.4900360000000  0.5321410000000 1.0
C      1  0.5099640000000  0.5108910000000  0.4678590000000 1.0
C      1  0.4891090000000  0.5099640000000  0.5321410000000 1.0
C      1  0.4900360000000  0.4891090000000  0.4678590000000 1.0
C      1  0.4676150000000  0.5173280000000  0.4351230000000 1.0
C      1  0.4826720000000  0.4676150000000  0.5648770000000 1.0
C      1  0.5323850000000  0.4826720000000  0.4351230000000 1.0
C      1  0.5173280000000  0.5323850000000  0.5648770000000 1.0
C      1  0.4435630000000  0.5496330000000  0.5182220000000 1.0
C      1  0.4503670000000  0.4435630000000  0.4817780000000 1.0
C      1  0.5564370000000  0.4503670000000  0.5182220000000 1.0
C      1  0.5496330000000  0.5564370000000  0.4817780000000 1.0
C      1  0.5444340000000  0.5483080000000  0.5093240000000 1.0
C      1  0.4516920000000  0.5444340000000  0.4906760000000 1.0
C      1  0.4555660000000  0.4516920000000  0.5093240000000 1.0
C      1  0.5483080000000  0.4555660000000  0.4906760000000 1.0
C      1  0.5492690000000  0.5266490000000  0.4565940000000 1.0
C      1  0.4733510000000  0.5492690000000  0.5434060000000 1.0
C      1  0.4507310000000  0.4733510000000  0.4565940000000 1.0
C      1  0.5266490000000  0.4507310000000  0.5434060000000 1.0
C      1  0.4580120000000  0.4582790000000  0.5558420000000 1.0
C      1  0.5417210000000  0.4580120000000  0.4441580000000 1.0
C      1  0.5419880000000  0.5417210000000  0.5558420000000 1.0
C      1  0.4582790000000  0.5419880000000  0.4441580000000 1.0
C      1  0.5539240000000  0.5127460000000  0.4841280000000 1.0
C      1  0.4872540000000  0.5539240000000  0.5158720000000 1.0
C      1  0.4460760000000  0.4872540000000  0.4841280000000 1.0
C      1  0.5127460000000  0.4460760000000  0.5158720000000 1.0
C      1  0.5695800000000  0.4585560000000  0.4487690000000 1.0
C      1  0.5414440000000  0.5695800000000  0.5512310000000 1.0
C      1  0.4304200000000  0.5414440000000  0.4487690000000 1.0
C      1  0.4585560000000  0.4304200000000  0.5512310000000 1.0
C      1  0.4925920000000  0.4264700000000  0.5177800000000 1.0
C      1  0.5735300000000  0.4925920000000  0.4822200000000 1.0
C      1  0.5074080000000  0.5735300000000  0.5177800000000 1.0
C      1  0.4264700000000  0.5074080000000  0.4822200000000 1.0
END
