TITL C-38189-4514-250 2.62437463956953e-06 125000 -370.110178567118 0 0 60 (C2) n - 1
REM
REM in /home/bkarasulu/CARBON/AIRSS/Generating-Clusters/EDIP-Nigel-Params/Higher-Symm/Box-15A/Only-C60/SD-CG/FIRE-HFTN
REM
REM
REM
REM
REM
REM ./C.cell (414f73aa93bd7a1190c7fd0f31ff2f98)
REM
REM compiler GCC version 9.2.1 20190827 (Red Hat 9.2.1-1)
REM options -cpp -mtune=generic -march=x86-64 -g -O0 -fpre-include=/usr/include/finclude/math-vector-fortran.h
REM seed 1531032875 -443841299 -1446630525 -1355101654 -157722853 308595190 914636874 -1503288774 1494388614 1588928791 600299938 12727952 -1875769256 -10130692 -1644893496 -741257822 726412992 1531148499 -1900957602 -1209285741 943687524 750146073 325452534 -1704644815 1895421663 345585552 439191330 782008272 -2073825157 -29706583 1162248546 -2011342992 1583864920
REM
CELL 1.54180   50.00000   50.00000   50.00000   90.00000   90.00000   90.00000
LATT -1
SFAC C  
C      1  0.5206370000000  0.5666730000000  0.4997260000000 1.0
C      1  0.5160930000000  0.4998350000000  0.5701760000000 1.0
C      1  0.5206370000000  0.4333270000000  0.5002740000000 1.0
C      1  0.5160930000000  0.5001650000000  0.4298240000000 1.0
C      1  0.5000790000000  0.5466550000000  0.4298130000000 1.0
C      1  0.4909060000000  0.5627050000000  0.5398890000000 1.0
C      1  0.5000790000000  0.4533450000000  0.5701870000000 1.0
C      1  0.4909060000000  0.4372950000000  0.4601110000000 1.0
C      1  0.5591650000000  0.4786590000000  0.5054160000000 1.0
C      1  0.5595950000000  0.4942890000000  0.4787030000000 1.0
C      1  0.5591650000000  0.5213410000000  0.4945840000000 1.0
C      1  0.5595950000000  0.5057110000000  0.5212970000000 1.0
C      1  0.4720830000000  0.4333860000000  0.5049650000000 1.0
C      1  0.4680230000000  0.5101960000000  0.4424780000000 1.0
C      1  0.4720830000000  0.5666140000000  0.4950350000000 1.0
C      1  0.4680230000000  0.4898040000000  0.5575220000000 1.0
C      1  0.4784960000000  0.4548290000000  0.5254680000000 1.0
C      1  0.4721960000000  0.4837240000000  0.4583560000000 1.0
C      1  0.4784960000000  0.5451710000000  0.4745320000000 1.0
C      1  0.4721960000000  0.5162760000000  0.5416440000000 1.0
C      1  0.5524610000000  0.4869240000000  0.4510400000000 1.0
C      1  0.5603230000000  0.5502080000000  0.4899430000000 1.0
C      1  0.5524610000000  0.5130760000000  0.5489600000000 1.0
C      1  0.5603230000000  0.4497920000000  0.5100570000000 1.0
C      1  0.4939240000000  0.5191230000000  0.4307990000000 1.0
C      1  0.4949370000000  0.5695270000000  0.5128900000000 1.0
C      1  0.4939240000000  0.4808770000000  0.5692010000000 1.0
C      1  0.4949370000000  0.4304730000000  0.4871100000000 1.0
C      1  0.4893930000000  0.4795520000000  0.5083190000000 1.0
C      1  0.4917590000000  0.4920940000000  0.4793190000000 1.0
C      1  0.4893930000000  0.5204480000000  0.4916810000000 1.0
C      1  0.4917590000000  0.5079060000000  0.5206810000000 1.0
C      1  0.5470060000000  0.4346270000000  0.4891980000000 1.0
C      1  0.5434290000000  0.5077200000000  0.4332860000000 1.0
C      1  0.5470060000000  0.5653730000000  0.5108020000000 1.0
C      1  0.5434290000000  0.4922800000000  0.5667140000000 1.0
C      1  0.5138540000000  0.4716850000000  0.4357060000000 1.0
C      1  0.5231120000000  0.5645860000000  0.4710000000000 1.0
C      1  0.5138540000000  0.5283150000000  0.5642940000000 1.0
C      1  0.5231120000000  0.4354140000000  0.5290000000000 1.0
C      1  0.5390940000000  0.4619570000000  0.4455860000000 1.0
C      1  0.5502580000000  0.5587790000000  0.4642830000000 1.0
C      1  0.5390940000000  0.5380430000000  0.5544140000000 1.0
C      1  0.5502580000000  0.4412210000000  0.5357170000000 1.0
C      1  0.4478560000000  0.5659260000000  0.5087380000000 1.0
C      1  0.4556390000000  0.4674910000000  0.5408880000000 1.0
C      1  0.4478560000000  0.4340740000000  0.4912620000000 1.0
C      1  0.4556390000000  0.5325090000000  0.4591120000000 1.0
C      1  0.5001480000000  0.4454380000000  0.5433190000000 1.0
C      1  0.4880250000000  0.4610200000000  0.4450120000000 1.0
C      1  0.5001480000000  0.5545620000000  0.4566810000000 1.0
C      1  0.4880250000000  0.5389800000000  0.5549880000000 1.0
C      1  0.4470360000000  0.4745080000000  0.4730120000000 1.0
C      1  0.4516650000000  0.5150290000000  0.4994480000000 1.0
C      1  0.4470360000000  0.5254920000000  0.5269880000000 1.0
C      1  0.4516650000000  0.4849710000000  0.5005520000000 1.0
C      1  0.4374350000000  0.4483810000000  0.4710000000000 1.0
C      1  0.4353720000000  0.5248620000000  0.4773890000000 1.0
C      1  0.4374350000000  0.5516190000000  0.5290000000000 1.0
C      1  0.4353720000000  0.4751380000000  0.5226110000000 1.0
END
