TITL C-38187-2739-262 2.58957917314358e-05 125000 -355.1055837706 0 0 60 (C2) n - 1
REM
REM in /home/bkarasulu/CARBON/AIRSS/Generating-Clusters/EDIP-Nigel-Params/Higher-Symm/Box-15A/Only-C60/SD-CG/FIRE-HFTN
REM
REM
REM
REM
REM
REM ./C.cell (414f73aa93bd7a1190c7fd0f31ff2f98)
REM
REM compiler GCC version 9.2.1 20190827 (Red Hat 9.2.1-1)
REM options -cpp -mtune=generic -march=x86-64 -g -O0 -fpre-include=/usr/include/finclude/math-vector-fortran.h
REM seed -887597077 636157390 -1214666932 -1437084180 1320358449 1989941116 -1245107936 264165548 749515113 -1003861556 974480168 -2054741608 -39293315 -735103568 111772878 -1870275207 1740640505 499499253 -1254771333 1333022276 -1669856373 -1430146513 -1762703852 -1333521747 -866782345 1854948366 -2012359065 -1208617505 -503284456 -1144004913 731831034 1875118056 1462518557
REM
CELL 1.54180   50.00000   50.00000   50.00000   90.00000   90.00000   90.00000
LATT -1
SFAC C  
C      1  0.5377280000000  0.4964910000000  0.5589480000000 1.0
C      1  0.4622720000000  0.4964910000000  0.4410520000000 1.0
C      1  0.5696520000000  0.5106550000000  0.5232340000000 1.0
C      1  0.4303480000000  0.5106550000000  0.4767660000000 1.0
C      1  0.5094750000000  0.5535710000000  0.4483810000000 1.0
C      1  0.4905250000000  0.5535710000000  0.5516190000000 1.0
C      1  0.4471020000000  0.5082740000000  0.5536200000000 1.0
C      1  0.5528980000000  0.5082740000000  0.4463800000000 1.0
C      1  0.5377220000000  0.5418840000000  0.5429000000000 1.0
C      1  0.4622780000000  0.5418840000000  0.4571000000000 1.0
C      1  0.4316570000000  0.4687590000000  0.4998240000000 1.0
C      1  0.5683430000000  0.4687590000000  0.5001760000000 1.0
C      1  0.5260510000000  0.5002160000000  0.4387550000000 1.0
C      1  0.4739490000000  0.5002160000000  0.5612450000000 1.0
C      1  0.5183860000000  0.4875490000000  0.5199130000000 1.0
C      1  0.4816140000000  0.4875490000000  0.4800870000000 1.0
C      1  0.4973750000000  0.4572460000000  0.4478080000000 1.0
C      1  0.5026250000000  0.4572460000000  0.5521920000000 1.0
C      1  0.4403700000000  0.5139970000000  0.5256160000000 1.0
C      1  0.5596300000000  0.5139970000000  0.4743840000000 1.0
C      1  0.4674050000000  0.5453930000000  0.5096660000000 1.0
C      1  0.5325950000000  0.5453930000000  0.4903340000000 1.0
C      1  0.5152070000000  0.5572900000000  0.5358980000000 1.0
C      1  0.4847930000000  0.5572900000000  0.4641020000000 1.0
C      1  0.5224530000000  0.4733880000000  0.4478770000000 1.0
C      1  0.4775470000000  0.4733880000000  0.5521230000000 1.0
C      1  0.5283650000000  0.4722390000000  0.5424460000000 1.0
C      1  0.4716350000000  0.4722390000000  0.4575540000000 1.0
C      1  0.4699810000000  0.4849450000000  0.5102890000000 1.0
C      1  0.5300190000000  0.4849450000000  0.4897110000000 1.0
C      1  0.4659480000000  0.5591570000000  0.5369730000000 1.0
C      1  0.5340520000000  0.5591570000000  0.4630270000000 1.0
C      1  0.4911980000000  0.4352390000000  0.5341810000000 1.0
C      1  0.5088020000000  0.4352390000000  0.4658190000000 1.0
C      1  0.4820380000000  0.5173420000000  0.5115620000000 1.0
C      1  0.5179620000000  0.5173420000000  0.4884380000000 1.0
C      1  0.4553460000000  0.4620410000000  0.5387530000000 1.0
C      1  0.5446540000000  0.4620410000000  0.4612470000000 1.0
C      1  0.5470880000000  0.4464940000000  0.5019080000000 1.0
C      1  0.4529120000000  0.4464940000000  0.4980920000000 1.0
C      1  0.4500890000000  0.4550560000000  0.4693900000000 1.0
C      1  0.5499110000000  0.4550560000000  0.5306100000000 1.0
C      1  0.4865530000000  0.5622480000000  0.4935000000000 1.0
C      1  0.5134470000000  0.5622480000000  0.5065000000000 1.0
C      1  0.4292710000000  0.4984230000000  0.5019400000000 1.0
C      1  0.5707290000000  0.4984230000000  0.4980600000000 1.0
C      1  0.4810320000000  0.5088230000000  0.4241650000000 1.0
C      1  0.5189680000000  0.5088230000000  0.5758350000000 1.0
C      1  0.5390860000000  0.4342290000000  0.4657470000000 1.0
C      1  0.4609140000000  0.4342290000000  0.5342530000000 1.0
C      1  0.5015680000000  0.5174000000000  0.4427330000000 1.0
C      1  0.4984320000000  0.5174000000000  0.5572670000000 1.0
C      1  0.4918580000000  0.5148730000000  0.4729880000000 1.0
C      1  0.5081420000000  0.5148730000000  0.5270120000000 1.0
C      1  0.5111330000000  0.4562310000000  0.4897560000000 1.0
C      1  0.4888670000000  0.4562310000000  0.5102440000000 1.0
C      1  0.5600590000000  0.5429490000000  0.4624830000000 1.0
C      1  0.4399410000000  0.5429490000000  0.5375170000000 1.0
C      1  0.5519410000000  0.5175980000000  0.5438840000000 1.0
C      1  0.4480590000000  0.5175980000000  0.4561160000000 1.0
END
