TITL C-38199-1586-185 -9.65631344990168e-06 125000 -360.980841012345 0 0 60 (C1) n - 1
REM
REM in /home/bkarasulu/CARBON/AIRSS/Generating-Clusters/EDIP-Nigel-Params/Higher-Symm/Box-15A/Only-C60/SD-CG/FIRE-HFTN
REM
REM
REM
REM
REM
REM ./C.cell (414f73aa93bd7a1190c7fd0f31ff2f98)
REM
REM compiler GCC version 9.2.1 20190827 (Red Hat 9.2.1-1)
REM options -cpp -mtune=generic -march=x86-64 -g -O0 -fpre-include=/usr/include/finclude/math-vector-fortran.h
REM seed -1667688952 503637296 -1930303285 501026405 -155195770 1850080696 -1297769030 113315281 -1840232632 950356465 700063895 593560480 249717090 -513601684 1082376869 1431668324 -951206180 734035867 -312706945 75012618 -460597089 269156912 324014153 -382317270 -321634584 166254785 143345973 -1805812691 142391571 -735240198 209464612 900767919 -845988734
REM
CELL 1.54180   50.00000   50.00000   50.00000   90.00000   90.00000   90.00000
LATT -1
SFAC C  
C      1  0.4437970000000  0.4849510000000  0.5302550000000 1.0
C      1  0.4410960000000  0.4840360000000  0.4680960000000 1.0
C      1  0.5061710000000  0.4252770000000  0.4839770000000 1.0
C      1  0.5070580000000  0.4252130000000  0.5136650000000 1.0
C      1  0.5606560000000  0.4568710000000  0.5310530000000 1.0
C      1  0.5590320000000  0.4555030000000  0.4764540000000 1.0
C      1  0.4906040000000  0.4906960000000  0.5870020000000 1.0
C      1  0.4891700000000  0.4900760000000  0.4126120000000 1.0
C      1  0.4377100000000  0.5103470000000  0.4840590000000 1.0
C      1  0.4409560000000  0.5102460000000  0.5135380000000 1.0
C      1  0.5382400000000  0.5658350000000  0.5156730000000 1.0
C      1  0.5372360000000  0.5642280000000  0.4864800000000 1.0
C      1  0.4876060000000  0.4693540000000  0.5146990000000 1.0
C      1  0.4848540000000  0.4692280000000  0.4844870000000 1.0
C      1  0.4626440000000  0.4390480000000  0.4604820000000 1.0
C      1  0.4645150000000  0.4398600000000  0.5386660000000 1.0
C      1  0.4535910000000  0.5337280000000  0.5272200000000 1.0
C      1  0.4512310000000  0.5332890000000  0.4698520000000 1.0
C      1  0.5214780000000  0.4472960000000  0.4730850000000 1.0
C      1  0.5241630000000  0.4462480000000  0.5236010000000 1.0
C      1  0.4688310000000  0.4777310000000  0.4271400000000 1.0
C      1  0.4709180000000  0.4789610000000  0.5713500000000 1.0
C      1  0.4997330000000  0.5173350000000  0.4814260000000 1.0
C      1  0.5009440000000  0.5180580000000  0.5145990000000 1.0
C      1  0.5596730000000  0.5529780000000  0.4733450000000 1.0
C      1  0.5610950000000  0.5542230000000  0.5283510000000 1.0
C      1  0.4781350000000  0.5411320000000  0.4818630000000 1.0
C      1  0.4792540000000  0.5424220000000  0.5138300000000 1.0
C      1  0.5245120000000  0.5225470000000  0.4677420000000 1.0
C      1  0.5265150000000  0.5240530000000  0.5258780000000 1.0
C      1  0.4660750000000  0.4963720000000  0.5478360000000 1.0
C      1  0.4633570000000  0.4952510000000  0.4504140000000 1.0
C      1  0.5106970000000  0.5585970000000  0.5569940000000 1.0
C      1  0.5079180000000  0.5579440000000  0.4464610000000 1.0
C      1  0.4813920000000  0.4211620000000  0.4712260000000 1.0
C      1  0.4830480000000  0.4217250000000  0.5279940000000 1.0
C      1  0.4572780000000  0.4604850000000  0.5179640000000 1.0
C      1  0.4552280000000  0.4598540000000  0.4809800000000 1.0
C      1  0.5126510000000  0.5662620000000  0.5301000000000 1.0
C      1  0.5117300000000  0.5681440000000  0.4724380000000 1.0
C      1  0.4705500000000  0.4520200000000  0.5634120000000 1.0
C      1  0.4686950000000  0.4509200000000  0.4355780000000 1.0
C      1  0.5647340000000  0.4807860000000  0.4885590000000 1.0
C      1  0.5650430000000  0.4815400000000  0.5171560000000 1.0
C      1  0.4888150000000  0.5766500000000  0.4881210000000 1.0
C      1  0.4907130000000  0.5787670000000  0.5167460000000 1.0
C      1  0.5519270000000  0.5266580000000  0.4678300000000 1.0
C      1  0.5530450000000  0.5278090000000  0.5329190000000 1.0
C      1  0.4873480000000  0.4938140000000  0.4690200000000 1.0
C      1  0.4902250000000  0.4946770000000  0.5293530000000 1.0
C      1  0.5398750000000  0.4467590000000  0.5463410000000 1.0
C      1  0.5427800000000  0.4480840000000  0.4552930000000 1.0
C      1  0.5072560000000  0.5390460000000  0.5751280000000 1.0
C      1  0.5043000000000  0.5383000000000  0.4281830000000 1.0
C      1  0.5672420000000  0.5044480000000  0.4741890000000 1.0
C      1  0.5695500000000  0.5056690000000  0.5303360000000 1.0
C      1  0.4997130000000  0.5146920000000  0.4159800000000 1.0
C      1  0.5020750000000  0.5149520000000  0.5856590000000 1.0
C      1  0.4592130000000  0.5246120000000  0.5536570000000 1.0
C      1  0.4561100000000  0.5232310000000  0.4436520000000 1.0
END
