TITL C-38196-2854-12 5.07817548192555e-05 125000 -358.833542554873 0 0 60 (C1) n - 1
REM
REM in /home/bkarasulu/CARBON/AIRSS/Generating-Clusters/EDIP-Nigel-Params/Higher-Symm/Box-15A/Only-C60/SD-CG/FIRE-HFTN
REM
REM
REM
REM
REM
REM ./C.cell (414f73aa93bd7a1190c7fd0f31ff2f98)
REM
REM compiler GCC version 9.2.1 20190827 (Red Hat 9.2.1-1)
REM options -cpp -mtune=generic -march=x86-64 -g -O0 -fpre-include=/usr/include/finclude/math-vector-fortran.h
REM seed 1756784861 -1837132391 223110176 -1021907579 -997754119 1929958833 882215548 1741272555 -2137576119 330379442 -1412698220 578249808 -1330348500 -631454698 -571965286 1032246276 1717538272 -1721217673 -2126454472 -1048796786 -569018911 -1094318817 -1993008613 -1485614205 1578207083 -1541426421 794177255 1890680124 31476855 1778428389 34584063 2086024176 -666606670
REM
CELL 1.54180   50.00000   50.00000   50.00000   90.00000   90.00000   90.00000
LATT -1
SFAC C  
C      1  0.4655640000000  0.4476530000000  0.5617490000000 1.0
C      1  0.4436660000000  0.5061330000000  0.4655570000000 1.0
C      1  0.4726900000000  0.5612450000000  0.4456800000000 1.0
C      1  0.4920220000000  0.5803430000000  0.5021150000000 1.0
C      1  0.5473880000000  0.5180690000000  0.5311230000000 1.0
C      1  0.4941430000000  0.5309310000000  0.4950520000000 1.0
C      1  0.5296210000000  0.5751370000000  0.4796870000000 1.0
C      1  0.4593340000000  0.4972620000000  0.5595130000000 1.0
C      1  0.4426840000000  0.5226810000000  0.4901580000000 1.0
C      1  0.4925760000000  0.5564710000000  0.5523580000000 1.0
C      1  0.4571090000000  0.4465060000000  0.5068660000000 1.0
C      1  0.4584810000000  0.4543980000000  0.4783850000000 1.0
C      1  0.4513630000000  0.5507820000000  0.4894840000000 1.0
C      1  0.5007410000000  0.4197480000000  0.5015760000000 1.0
C      1  0.5310770000000  0.5537740000000  0.5583770000000 1.0
C      1  0.5049150000000  0.4394130000000  0.4784410000000 1.0
C      1  0.5151800000000  0.5388380000000  0.4359270000000 1.0
C      1  0.4425770000000  0.4778060000000  0.4696570000000 1.0
C      1  0.4807830000000  0.4281120000000  0.5471900000000 1.0
C      1  0.4690090000000  0.4874570000000  0.4964260000000 1.0
C      1  0.5595870000000  0.4518300000000  0.4895420000000 1.0
C      1  0.4508760000000  0.5603990000000  0.4630310000000 1.0
C      1  0.4892310000000  0.5821500000000  0.4524150000000 1.0
C      1  0.4713400000000  0.5139340000000  0.4317850000000 1.0
C      1  0.5717670000000  0.5135200000000  0.5190830000000 1.0
C      1  0.4440270000000  0.5155960000000  0.4389400000000 1.0
C      1  0.5202520000000  0.4894190000000  0.4960990000000 1.0
C      1  0.5354910000000  0.5321540000000  0.4538930000000 1.0
C      1  0.4534630000000  0.5065790000000  0.5127370000000 1.0
C      1  0.4774590000000  0.5525930000000  0.5053320000000 1.0
C      1  0.5477620000000  0.5324530000000  0.5549540000000 1.0
C      1  0.4703620000000  0.5150070000000  0.5369920000000 1.0
C      1  0.4507710000000  0.4698740000000  0.5521060000000 1.0
C      1  0.5632880000000  0.4811100000000  0.4900500000000 1.0
C      1  0.4856640000000  0.4634950000000  0.4401190000000 1.0
C      1  0.5374760000000  0.4724140000000  0.5433590000000 1.0
C      1  0.5453910000000  0.4491480000000  0.4648750000000 1.0
C      1  0.4947710000000  0.5033420000000  0.4892690000000 1.0
C      1  0.5156290000000  0.4602300000000  0.5580180000000 1.0
C      1  0.5113180000000  0.4623730000000  0.4941950000000 1.0
C      1  0.5496180000000  0.4402210000000  0.5155930000000 1.0
C      1  0.4724510000000  0.5456080000000  0.5353110000000 1.0
C      1  0.5178450000000  0.5783130000000  0.5160150000000 1.0
C      1  0.5592400000000  0.4550820000000  0.5376820000000 1.0
C      1  0.4990980000000  0.5019950000000  0.5404090000000 1.0
C      1  0.5103660000000  0.4314210000000  0.5493820000000 1.0
C      1  0.4810790000000  0.4453940000000  0.4610990000000 1.0
C      1  0.4826780000000  0.4884740000000  0.4306250000000 1.0
C      1  0.4935580000000  0.4796780000000  0.5582040000000 1.0
C      1  0.5389490000000  0.5596080000000  0.4574740000000 1.0
C      1  0.5835930000000  0.4955010000000  0.5031890000000 1.0
C      1  0.5037150000000  0.5882060000000  0.4754470000000 1.0
C      1  0.4757660000000  0.4267490000000  0.5176790000000 1.0
C      1  0.5266920000000  0.4963810000000  0.5272610000000 1.0
C      1  0.4462160000000  0.4649970000000  0.5246560000000 1.0
C      1  0.5150780000000  0.5586400000000  0.5361470000000 1.0
C      1  0.5464290000000  0.4915990000000  0.4687180000000 1.0
C      1  0.5237660000000  0.4235840000000  0.5222080000000 1.0
C      1  0.4869480000000  0.5364730000000  0.4411260000000 1.0
C      1  0.5400670000000  0.4716990000000  0.4496580000000 1.0
END
