TITL C-38195-9455-476 6.72600251764655e-06 125000 -364.083487715746 0 0 60 (C1) n - 1
REM
REM in /home/bkarasulu/CARBON/AIRSS/Generating-Clusters/EDIP-Nigel-Params/Higher-Symm/Box-15A/Only-C60/SD-CG/FIRE-HFTN
REM
REM
REM
REM
REM
REM ./C.cell (414f73aa93bd7a1190c7fd0f31ff2f98)
REM
REM compiler GCC version 9.2.1 20190827 (Red Hat 9.2.1-1)
REM options -cpp -mtune=generic -march=x86-64 -g -O0 -fpre-include=/usr/include/finclude/math-vector-fortran.h
REM seed -641683188 -1567911513 1076369961 -1989500092 -1823335027 1179034458 -1253447526 1781578229 -1074416711 -868761288 1663633103 -1067761400 1344956614 -1290187166 916501199 27160455 2026888534 312608587 1844324045 435335445 1948645847 1950942156 -2145594953 2145016955 886207356 72503925 811947487 4425139 -1833177784 -1068681123 598435104 2057286888 -283330829
REM
CELL 1.54180   50.00000   50.00000   50.00000   90.00000   90.00000   90.00000
LATT -1
SFAC C  
C      1  0.5300890000000  0.4403580000000  0.5485340000000 1.0
C      1  0.5563690000000  0.4420120000000  0.5069610000000 1.0
C      1  0.5409380000000  0.4434060000000  0.4605260000000 1.0
C      1  0.4942280000000  0.4439720000000  0.4434080000000 1.0
C      1  0.4517020000000  0.4429780000000  0.4666990000000 1.0
C      1  0.4483840000000  0.4446620000000  0.5149420000000 1.0
C      1  0.4808880000000  0.4417660000000  0.5513580000000 1.0
C      1  0.5219270000000  0.4501790000000  0.4401740000000 1.0
C      1  0.4667170000000  0.4515640000000  0.4446570000000 1.0
C      1  0.4381260000000  0.4519100000000  0.4895020000000 1.0
C      1  0.4556330000000  0.4502200000000  0.5417690000000 1.0
C      1  0.5061900000000  0.4499620000000  0.5611800000000 1.0
C      1  0.5517610000000  0.4512950000000  0.5331740000000 1.0
C      1  0.5601550000000  0.4507620000000  0.4804600000000 1.0
C      1  0.4946040000000  0.5214200000000  0.4414160000000 1.0
C      1  0.4498460000000  0.5252170000000  0.4661210000000 1.0
C      1  0.4443770000000  0.5218080000000  0.5171400000000 1.0
C      1  0.4779540000000  0.5222570000000  0.5568280000000 1.0
C      1  0.5280880000000  0.5213420000000  0.5471150000000 1.0
C      1  0.5595740000000  0.5237610000000  0.5074670000000 1.0
C      1  0.5421850000000  0.5209830000000  0.4593400000000 1.0
C      1  0.4942690000000  0.4908620000000  0.4392840000000 1.0
C      1  0.4514810000000  0.4950270000000  0.4669070000000 1.0
C      1  0.4428670000000  0.4913060000000  0.5171630000000 1.0
C      1  0.4785700000000  0.4918940000000  0.5565070000000 1.0
C      1  0.5330250000000  0.4925800000000  0.5544220000000 1.0
C      1  0.5562520000000  0.4940770000000  0.5072880000000 1.0
C      1  0.5435810000000  0.4904180000000  0.4577070000000 1.0
C      1  0.4829690000000  0.5633850000000  0.4646710000000 1.0
C      1  0.4618410000000  0.5636620000000  0.4977680000000 1.0
C      1  0.4709420000000  0.5610450000000  0.5270860000000 1.0
C      1  0.5009240000000  0.5603560000000  0.5362140000000 1.0
C      1  0.5308400000000  0.5619340000000  0.5195200000000 1.0
C      1  0.5354130000000  0.5618930000000  0.4863090000000 1.0
C      1  0.5142430000000  0.5611830000000  0.4617250000000 1.0
C      1  0.4894150000000  0.4902690000000  0.5284040000000 1.0
C      1  0.5146460000000  0.4745980000000  0.5245940000000 1.0
C      1  0.5256990000000  0.4932030000000  0.5030030000000 1.0
C      1  0.5228100000000  0.4795720000000  0.4780720000000 1.0
C      1  0.4959590000000  0.4805700000000  0.4681930000000 1.0
C      1  0.4782760000000  0.4965920000000  0.4845350000000 1.0
C      1  0.4706090000000  0.4823660000000  0.5084960000000 1.0
C      1  0.5559410000000  0.4803260000000  0.5359580000000 1.0
C      1  0.5667110000000  0.4797610000000  0.4803390000000 1.0
C      1  0.5241060000000  0.4790730000000  0.4338390000000 1.0
C      1  0.4622490000000  0.4806280000000  0.4399930000000 1.0
C      1  0.4319030000000  0.4808450000000  0.4877870000000 1.0
C      1  0.4508720000000  0.4787310000000  0.5476760000000 1.0
C      1  0.5067990000000  0.4787590000000  0.5670980000000 1.0
C      1  0.4587460000000  0.5364200000000  0.5385570000000 1.0
C      1  0.5039360000000  0.5364210000000  0.5542930000000 1.0
C      1  0.5453750000000  0.5374970000000  0.5295450000000 1.0
C      1  0.5526920000000  0.5373020000000  0.4818760000000 1.0
C      1  0.5196840000000  0.5355470000000  0.4472410000000 1.0
C      1  0.4723510000000  0.5381660000000  0.4518630000000 1.0
C      1  0.4461280000000  0.5383460000000  0.4925370000000 1.0
C      1  0.5007070000000  0.5441470000000  0.4996920000000 1.0
C      1  0.5088620000000  0.4495890000000  0.5137400000000 1.0
C      1  0.4978820000000  0.5770730000000  0.4967910000000 1.0
C      1  0.5013770000000  0.5136320000000  0.4978970000000 1.0
END
