TITL C-38185-7677-588 1.33595192194279e-05 125000 -366.713282365588 0 0 60 (C5) n - 1
REM
REM in /home/bkarasulu/CARBON/AIRSS/Generating-Clusters/EDIP-Nigel-Params/Higher-Symm/Box-15A/Only-C60/SD-CG/FIRE-HFTN
REM
REM
REM
REM
REM
REM ./C.cell (414f73aa93bd7a1190c7fd0f31ff2f98)
REM
REM compiler GCC version 9.2.1 20190827 (Red Hat 9.2.1-1)
REM options -cpp -mtune=generic -march=x86-64 -g -O0 -fpre-include=/usr/include/finclude/math-vector-fortran.h
REM seed -381509938 -213929732 -1709812379 1920055559 -1856649938 1347114302 -1804040792 1662912543 2084867628 2002620887 -489455203 1509909821 608642331 -2121983634 807320415 -1251556952 -537404886 -1696524919 -1093386125 553998503 1683315688 13627149 -530939392 -111168111 -1249937511 -1813187026 -124575824 -41939594 1287754589 832173957 1092281359 -207174437 -1067543070
REM
CELL 1.54180   50.00000   50.00000   50.00000   90.00000   90.00000   90.00000
LATT -1
SFAC C  
C      1  0.5228080000000  0.5388200000000  0.4705090000000 1.0
C      1  0.5228080000000  0.5400430000000  0.5278060000000 1.0
C      1  0.5228080000000  0.4859290000000  0.5466760000000 1.0
C      1  0.5228080000000  0.4512600000000  0.5010410000000 1.0
C      1  0.5228080000000  0.4839480000000  0.4539670000000 1.0
C      1  0.4824930000000  0.5622430000000  0.5531550000000 1.0
C      1  0.4824930000000  0.4686810000000  0.5756220000000 1.0
C      1  0.4824930000000  0.4184010000000  0.4935820000000 1.0
C      1  0.4824930000000  0.4808880000000  0.4204110000000 1.0
C      1  0.4824930000000  0.5697880000000  0.4572290000000 1.0
C      1  0.5160460000000  0.5443480000000  0.4326990000000 1.0
C      1  0.5160460000000  0.5777110000000  0.5213800000000 1.0
C      1  0.5160460000000  0.5036810000000  0.5805140000000 1.0
C      1  0.5160460000000  0.4245640000000  0.5283810000000 1.0
C      1  0.5160460000000  0.4496970000000  0.4370260000000 1.0
C      1  0.4477750000000  0.4634120000000  0.4631090000000 1.0
C      1  0.4477750000000  0.5237800000000  0.4538030000000 1.0
C      1  0.4477750000000  0.5512840000000  0.5083400000000 1.0
C      1  0.4477750000000  0.5079160000000  0.5513510000000 1.0
C      1  0.4477750000000  0.4536080000000  0.5233970000000 1.0
C      1  0.4686360000000  0.5695540000000  0.5069080000000 1.0
C      1  0.4686360000000  0.5149230000000  0.5682850000000 1.0
C      1  0.4686360000000  0.4396690000000  0.5352940000000 1.0
C      1  0.4686360000000  0.4477900000000  0.4535280000000 1.0
C      1  0.4686360000000  0.5280640000000  0.4359850000000 1.0
C      1  0.5646370000000  0.5031920000000  0.4744490000000 1.0
C      1  0.5646370000000  0.5252860000000  0.4951400000000 1.0
C      1  0.5646370000000  0.5124360000000  0.5225470000000 1.0
C      1  0.5646370000000  0.4824000000000  0.5187950000000 1.0
C      1  0.5646370000000  0.4766860000000  0.4890690000000 1.0
C      1  0.4895380000000  0.4953230000000  0.5725760000000 1.0
C      1  0.4895380000000  0.4295310000000  0.5179790000000 1.0
C      1  0.4895380000000  0.4611250000000  0.4385360000000 1.0
C      1  0.4895380000000  0.5464420000000  0.4440340000000 1.0
C      1  0.4895380000000  0.5675780000000  0.5268750000000 1.0
C      1  0.5041200000000  0.4749940000000  0.5009290000000 1.0
C      1  0.5041200000000  0.4913890000000  0.4765050000000 1.0
C      1  0.5041200000000  0.5196840000000  0.4845500000000 1.0
C      1  0.5041200000000  0.5207770000000  0.5139460000000 1.0
C      1  0.5041200000000  0.4931560000000  0.5240690000000 1.0
C      1  0.5444110000000  0.4561290000000  0.4800540000000 1.0
C      1  0.5444110000000  0.5054130000000  0.4521130000000 1.0
C      1  0.5444110000000  0.5472160000000  0.4903500000000 1.0
C      1  0.5444110000000  0.5237680000000  0.5419230000000 1.0
C      1  0.5444110000000  0.4674730000000  0.5355600000000 1.0
C      1  0.4759180000000  0.5414790000000  0.5684320000000 1.0
C      1  0.4759180000000  0.4477350000000  0.5605960000000 1.0
C      1  0.4759180000000  0.4262190000000  0.4690180000000 1.0
C      1  0.4759180000000  0.5066660000000  0.4202560000000 1.0
C      1  0.4759180000000  0.5779010000000  0.4816980000000 1.0
C      1  0.5405000000000  0.4500280000000  0.4517570000000 1.0
C      1  0.5405000000000  0.5304390000000  0.4375660000000 1.0
C      1  0.5405000000000  0.5687840000000  0.5096560000000 1.0
C      1  0.5405000000000  0.5120720000000  0.5684020000000 1.0
C      1  0.5405000000000  0.4386760000000  0.5326180000000 1.0
C      1  0.4431170000000  0.5036780000000  0.5242870000000 1.0
C      1  0.4431170000000  0.4780380000000  0.5110030000000 1.0
C      1  0.4431170000000  0.4827490000000  0.4825130000000 1.0
C      1  0.4431170000000  0.5113000000000  0.4781890000000 1.0
C      1  0.4431170000000  0.5242350000000  0.5040070000000 1.0
END
