TITL C-38192-7909-483 1.76542967131385e-06 125000 -362.045035813375 0 0 60 (C1) n - 1
REM
REM in /home/bkarasulu/CARBON/AIRSS/Generating-Clusters/EDIP-Nigel-Params/Higher-Symm/Box-15A/Only-C60/SD-CG/FIRE-HFTN
REM
REM
REM
REM
REM
REM ./C.cell (414f73aa93bd7a1190c7fd0f31ff2f98)
REM
REM compiler GCC version 9.2.1 20190827 (Red Hat 9.2.1-1)
REM options -cpp -mtune=generic -march=x86-64 -g -O0 -fpre-include=/usr/include/finclude/math-vector-fortran.h
REM seed -139056020 -1097928594 -1566575563 529185064 -120028313 -1298055962 -405601362 -1058404638 157005743 480969804 -1206983518 -2114383732 157857012 -1167226281 -163374555 -950212005 -1630884851 618459162 1676823147 262882329 -108783303 1249868327 275426291 -1680281166 1344873477 -335917336 -2110255098 860427707 -1356046569 1250258196 -1259762133 1417975073 476832919
REM
CELL 1.54180   50.00000   50.00000   50.00000   90.00000   90.00000   90.00000
LATT -1
SFAC C  
C      1  0.4965570000000  0.5103240000000  0.4377970000000 1.0
C      1  0.5040480000000  0.4395200000000  0.4890180000000 1.0
C      1  0.4501140000000  0.4874310000000  0.5183830000000 1.0
C      1  0.5232850000000  0.5223700000000  0.5604630000000 1.0
C      1  0.5187950000000  0.4668330000000  0.4291810000000 1.0
C      1  0.4890880000000  0.4875290000000  0.5685690000000 1.0
C      1  0.4724380000000  0.4337600000000  0.5194770000000 1.0
C      1  0.4780740000000  0.5610880000000  0.4769440000000 1.0
C      1  0.5048890000000  0.5696520000000  0.5191200000000 1.0
C      1  0.5697220000000  0.4648580000000  0.4855430000000 1.0
C      1  0.5680260000000  0.5126040000000  0.5073830000000 1.0
C      1  0.4295520000000  0.5109650000000  0.4867630000000 1.0
C      1  0.4934950000000  0.4822850000000  0.4280710000000 1.0
C      1  0.5023520000000  0.5622660000000  0.4908350000000 1.0
C      1  0.4326880000000  0.5138280000000  0.5166860000000 1.0
C      1  0.5139270000000  0.4954720000000  0.5558820000000 1.0
C      1  0.5224000000000  0.5244010000000  0.4378100000000 1.0
C      1  0.4724310000000  0.5086050000000  0.5752550000000 1.0
C      1  0.4825020000000  0.5644900000000  0.5349590000000 1.0
C      1  0.4763810000000  0.4358910000000  0.4809970000000 1.0
C      1  0.5013950000000  0.4340120000000  0.5174580000000 1.0
C      1  0.5620390000000  0.5272840000000  0.4824810000000 1.0
C      1  0.5699960000000  0.4827800000000  0.5093010000000 1.0
C      1  0.4488540000000  0.4863290000000  0.4860760000000 1.0
C      1  0.4379270000000  0.4628560000000  0.4734140000000 1.0
C      1  0.4744730000000  0.4669640000000  0.4426550000000 1.0
C      1  0.4611310000000  0.4514240000000  0.4620970000000 1.0
C      1  0.5547420000000  0.4752670000000  0.5318930000000 1.0
C      1  0.5482220000000  0.5513240000000  0.4903650000000 1.0
C      1  0.4444900000000  0.5397620000000  0.5207570000000 1.0
C      1  0.5294720000000  0.4736000000000  0.5441590000000 1.0
C      1  0.5231090000000  0.5501230000000  0.4497640000000 1.0
C      1  0.4634300000000  0.5313540000000  0.5645260000000 1.0
C      1  0.5135310000000  0.4511820000000  0.5367760000000 1.0
C      1  0.5266240000000  0.5626040000000  0.4750160000000 1.0
C      1  0.4615540000000  0.5475580000000  0.5421610000000 1.0
C      1  0.4375750000000  0.5347270000000  0.4742050000000 1.0
C      1  0.4723320000000  0.5239680000000  0.4453910000000 1.0
C      1  0.4610220000000  0.5441340000000  0.4624190000000 1.0
C      1  0.5614050000000  0.5267540000000  0.5309510000000 1.0
C      1  0.5522790000000  0.4435320000000  0.4815630000000 1.0
C      1  0.4379820000000  0.4645040000000  0.5320070000000 1.0
C      1  0.5410800000000  0.5397520000000  0.5455560000000 1.0
C      1  0.5211320000000  0.4418010000000  0.4444450000000 1.0
C      1  0.4768860000000  0.4644860000000  0.5580490000000 1.0
C      1  0.5284310000000  0.5614860000000  0.5323740000000 1.0
C      1  0.5275520000000  0.4336200000000  0.4720840000000 1.0
C      1  0.4604840000000  0.4500940000000  0.5401760000000 1.0
C      1  0.4764580000000  0.5219190000000  0.5091470000000 1.0
C      1  0.5390200000000  0.4855890000000  0.4777600000000 1.0
C      1  0.5253330000000  0.5246140000000  0.5073010000000 1.0
C      1  0.5022030000000  0.5271700000000  0.5281700000000 1.0
C      1  0.4879700000000  0.4801600000000  0.4816470000000 1.0
C      1  0.5131450000000  0.5211440000000  0.4785600000000 1.0
C      1  0.5008300000000  0.4774050000000  0.5106190000000 1.0
C      1  0.5145770000000  0.4742990000000  0.4649720000000 1.0
C      1  0.5278220000000  0.4934950000000  0.5051630000000 1.0
C      1  0.4844630000000  0.5114560000000  0.4802490000000 1.0
C      1  0.4809600000000  0.4948330000000  0.5263650000000 1.0
C      1  0.5473060000000  0.5104610000000  0.4627910000000 1.0
END
