TITL C-38195-9455-443 2.5323165640157e-06 125000 -353.303518781076 0 0 60 (Ci) n - 1
REM
REM in /home/bkarasulu/CARBON/AIRSS/Generating-Clusters/EDIP-Nigel-Params/Higher-Symm/Box-15A/Only-C60/SD-CG/FIRE-HFTN
REM
REM
REM
REM
REM
REM ./C.cell (414f73aa93bd7a1190c7fd0f31ff2f98)
REM
REM compiler GCC version 9.2.1 20190827 (Red Hat 9.2.1-1)
REM options -cpp -mtune=generic -march=x86-64 -g -O0 -fpre-include=/usr/include/finclude/math-vector-fortran.h
REM seed -1353322181 831469841 2050355495 -862969192 -49602469 520480192 2120643269 1597378192 124240431 858237122 -756580423 252153685 -1002513924 2018247492 -1907173051 1641330349 1971086159 -276401578 896967099 -90003844 321057956 470126622 472093445 -804486160 630337597 -1125325991 -1686951055 -957043043 -506712429 1979554590 711931428 -1440233421 -1458977902
REM
CELL 1.54180   50.00000   50.00000   50.00000   90.00000   90.00000   90.00000
LATT -1
SFAC C  
C      1  0.4879300000000  0.5670290000000  0.4871970000000 1.0
C      1  0.5129520000000  0.5435110000000  0.4538690000000 1.0
C      1  0.4875740000000  0.5080670000000  0.4339250000000 1.0
C      1  0.5136290000000  0.4697330000000  0.4452550000000 1.0
C      1  0.4863180000000  0.4423290000000  0.4736040000000 1.0
C      1  0.5120700000000  0.4329710000000  0.5128030000000 1.0
C      1  0.4870480000000  0.4564890000000  0.5461310000000 1.0
C      1  0.5124260000000  0.4919330000000  0.5660750000000 1.0
C      1  0.4863710000000  0.5302670000000  0.5547450000000 1.0
C      1  0.5136820000000  0.5576710000000  0.5263960000000 1.0
C      1  0.5318040000000  0.5281110000000  0.4990270000000 1.0
C      1  0.4691530000000  0.5192630000000  0.4848850000000 1.0
C      1  0.5318940000000  0.5093600000000  0.4742390000000 1.0
C      1  0.4685570000000  0.4899760000000  0.4759700000000 1.0
C      1  0.5308270000000  0.4801720000000  0.4844880000000 1.0
C      1  0.4681960000000  0.4718890000000  0.5009730000000 1.0
C      1  0.5308470000000  0.4807370000000  0.5151150000000 1.0
C      1  0.4681060000000  0.4906400000000  0.5257610000000 1.0
C      1  0.5314430000000  0.5100240000000  0.5240300000000 1.0
C      1  0.4691730000000  0.5198280000000  0.5155120000000 1.0
C      1  0.5336380000000  0.4726680000000  0.5604560000000 1.0
C      1  0.4644990000000  0.5144630000000  0.5655810000000 1.0
C      1  0.5346980000000  0.5494830000000  0.5447300000000 1.0
C      1  0.4688780000000  0.5641830000000  0.5099000000000 1.0
C      1  0.5352320000000  0.5586480000000  0.4648620000000 1.0
C      1  0.4663620000000  0.5273320000000  0.4395440000000 1.0
C      1  0.5355010000000  0.4855370000000  0.4344190000000 1.0
C      1  0.4653020000000  0.4505170000000  0.4552700000000 1.0
C      1  0.5311220000000  0.4358170000000  0.4901000000000 1.0
C      1  0.4647680000000  0.4413520000000  0.5351380000000 1.0
C      1  0.4857030000000  0.5510440000000  0.5328100000000 1.0
C      1  0.5157370000000  0.5635830000000  0.4973000000000 1.0
C      1  0.4858350000000  0.5477190000000  0.4646490000000 1.0
C      1  0.5149730000000  0.5173670000000  0.4401070000000 1.0
C      1  0.4860500000000  0.4798600000000  0.4430510000000 1.0
C      1  0.5142970000000  0.4489560000000  0.4671900000000 1.0
C      1  0.4842630000000  0.4364170000000  0.5027000000000 1.0
C      1  0.5141650000000  0.4522810000000  0.5353510000000 1.0
C      1  0.4850270000000  0.4826330000000  0.5598930000000 1.0
C      1  0.5139500000000  0.5201400000000  0.5569490000000 1.0
C      1  0.4408970000000  0.4860520000000  0.4654650000000 1.0
C      1  0.5581380000000  0.4693140000000  0.4792110000000 1.0
C      1  0.4402780000000  0.4612120000000  0.5018330000000 1.0
C      1  0.5579630000000  0.4715040000000  0.5232250000000 1.0
C      1  0.4400350000000  0.4893090000000  0.5358880000000 1.0
C      1  0.5591030000000  0.5139480000000  0.5345350000000 1.0
C      1  0.4418620000000  0.5306860000000  0.5207890000000 1.0
C      1  0.5597220000000  0.5387880000000  0.4981670000000 1.0
C      1  0.4420370000000  0.5284960000000  0.4767750000000 1.0
C      1  0.5599650000000  0.5106910000000  0.4641120000000 1.0
C      1  0.5582890000000  0.4454160000000  0.4953280000000 1.0
C      1  0.4389660000000  0.4522330000000  0.5293220000000 1.0
C      1  0.5595510000000  0.4800140000000  0.5507230000000 1.0
C      1  0.4387300000000  0.5122960000000  0.5534830000000 1.0
C      1  0.5610250000000  0.5427250000000  0.5358420000000 1.0
C      1  0.4417110000000  0.5545840000000  0.5046720000000 1.0
C      1  0.5610340000000  0.5477670000000  0.4706780000000 1.0
C      1  0.4404490000000  0.5199860000000  0.4492770000000 1.0
C      1  0.5612700000000  0.4877040000000  0.4465170000000 1.0
C      1  0.4389750000000  0.4572750000000  0.4641580000000 1.0
END
