TITL C-38189-4514-450 2.0090871330773e-05 125000 -355.189683315471 0 0 60 (Ci) n - 1
REM
REM in /home/bkarasulu/CARBON/AIRSS/Generating-Clusters/EDIP-Nigel-Params/Higher-Symm/Box-15A/Only-C60/SD-CG/FIRE-HFTN
REM
REM
REM
REM
REM
REM ./C.cell (414f73aa93bd7a1190c7fd0f31ff2f98)
REM
REM compiler GCC version 9.2.1 20190827 (Red Hat 9.2.1-1)
REM options -cpp -mtune=generic -march=x86-64 -g -O0 -fpre-include=/usr/include/finclude/math-vector-fortran.h
REM seed 1644251130 -854049664 -1923548815 786261017 -355118 -1946237054 -1767361425 662400762 1813925848 -420145765 1917948296 -1733373596 887785039 473582500 -1352199144 -1048111728 -1936233498 1966353488 -922831688 -324645205 -875736245 1491323299 1015498421 657034486 -1479748582 -209765566 -913275792 -1150018041 838148001 725817329 -1906587562 -589374263 -429488071
REM
CELL 1.54180   50.00000   50.00000   50.00000   90.00000   90.00000   90.00000
LATT -1
SFAC C  
C      1  0.5614910000000  0.5410300000000  0.4844520000000 1.0
C      1  0.4385090000000  0.4589700000000  0.5155480000000 1.0
C      1  0.4656740000000  0.4833330000000  0.5562690000000 1.0
C      1  0.5343260000000  0.5166670000000  0.4437310000000 1.0
C      1  0.5034890000000  0.4551090000000  0.4471520000000 1.0
C      1  0.4965110000000  0.5448910000000  0.5528480000000 1.0
C      1  0.5414850000000  0.5625200000000  0.4865650000000 1.0
C      1  0.4585150000000  0.4374800000000  0.5134350000000 1.0
C      1  0.5124530000000  0.4973270000000  0.4367810000000 1.0
C      1  0.4875470000000  0.5026730000000  0.5632190000000 1.0
C      1  0.5026560000000  0.4963340000000  0.5368140000000 1.0
C      1  0.4973440000000  0.5036660000000  0.4631860000000 1.0
C      1  0.5081750000000  0.4680880000000  0.4751710000000 1.0
C      1  0.4918250000000  0.5319120000000  0.5248290000000 1.0
C      1  0.4852020000000  0.4597840000000  0.5523880000000 1.0
C      1  0.5147980000000  0.5402160000000  0.4476120000000 1.0
C      1  0.5409800000000  0.5374910000000  0.5230590000000 1.0
C      1  0.4590200000000  0.4625090000000  0.4769410000000 1.0
C      1  0.4795500000000  0.4376250000000  0.5334850000000 1.0
C      1  0.5204500000000  0.5623750000000  0.4665150000000 1.0
C      1  0.5513600000000  0.4809070000000  0.5457230000000 1.0
C      1  0.4486400000000  0.5190930000000  0.4542770000000 1.0
C      1  0.5444450000000  0.5102880000000  0.4721600000000 1.0
C      1  0.4555550000000  0.4897120000000  0.5278400000000 1.0
C      1  0.4143900000000  0.5019010000000  0.5119460000000 1.0
C      1  0.5856100000000  0.4980990000000  0.4880540000000 1.0
C      1  0.4803160000000  0.5584930000000  0.5193630000000 1.0
C      1  0.5196840000000  0.4415070000000  0.4806370000000 1.0
C      1  0.4670450000000  0.5534540000000  0.4952380000000 1.0
C      1  0.5329550000000  0.4465460000000  0.5047620000000 1.0
C      1  0.4817390000000  0.4904790000000  0.5139830000000 1.0
C      1  0.5182610000000  0.5095210000000  0.4860170000000 1.0
C      1  0.4411280000000  0.4912330000000  0.4491070000000 1.0
C      1  0.5588720000000  0.5087670000000  0.5508930000000 1.0
C      1  0.4581750000000  0.4182300000000  0.4927200000000 1.0
C      1  0.5418250000000  0.5817700000000  0.5072800000000 1.0
C      1  0.5756770000000  0.5215260000000  0.5306110000000 1.0
C      1  0.4243230000000  0.4784740000000  0.4693890000000 1.0
C      1  0.5685940000000  0.4687160000000  0.5268840000000 1.0
C      1  0.4314060000000  0.5312840000000  0.4731160000000 1.0
C      1  0.4834140000000  0.4724650000000  0.4907640000000 1.0
C      1  0.5165860000000  0.5275350000000  0.5092360000000 1.0
C      1  0.4837220000000  0.5533010000000  0.4704080000000 1.0
C      1  0.5162780000000  0.4466990000000  0.5295920000000 1.0
C      1  0.5215770000000  0.4721990000000  0.5458200000000 1.0
C      1  0.4784230000000  0.5278010000000  0.4541800000000 1.0
C      1  0.5758290000000  0.5212330000000  0.5014490000000 1.0
C      1  0.4241710000000  0.4787670000000  0.4985510000000 1.0
C      1  0.4596200000000  0.4739790000000  0.4366340000000 1.0
C      1  0.5403800000000  0.5260210000000  0.5633660000000 1.0
C      1  0.4383940000000  0.5149170000000  0.5197290000000 1.0
C      1  0.5616060000000  0.4850830000000  0.4802710000000 1.0
C      1  0.5174050000000  0.4711650000000  0.4280680000000 1.0
C      1  0.4825950000000  0.5288350000000  0.5719320000000 1.0
C      1  0.4735840000000  0.4494180000000  0.4432120000000 1.0
C      1  0.5264160000000  0.5505820000000  0.5567880000000 1.0
C      1  0.4472970000000  0.5318190000000  0.4965240000000 1.0
C      1  0.5527030000000  0.4681810000000  0.5034760000000 1.0
C      1  0.4602200000000  0.4334950000000  0.4692250000000 1.0
C      1  0.5397800000000  0.5665050000000  0.5307750000000 1.0
END
