TITL C-38193-7935-500 4.84178604941374e-06 125000 -372.273857421542 0 0 60 (Cs) n - 1
REM
REM in /home/bkarasulu/CARBON/AIRSS/Generating-Clusters/EDIP-Nigel-Params/Higher-Symm/Box-15A/Only-C60/SD-CG/FIRE-HFTN
REM
REM
REM
REM
REM
REM ./C.cell (414f73aa93bd7a1190c7fd0f31ff2f98)
REM
REM compiler GCC version 9.2.1 20190827 (Red Hat 9.2.1-1)
REM options -cpp -mtune=generic -march=x86-64 -g -O0 -fpre-include=/usr/include/finclude/math-vector-fortran.h
REM seed 72801058 -304118368 -1722871457 -1110586181 1002081331 385553946 654264076 -638382684 -219657262 1794044476 -1530497719 -296327532 872470878 -1635592648 2056666776 -280453023 -837006480 -1863791121 -1772750846 -1474522628 -1661143090 -2089376341 1307805490 -130485672 1028648579 1107232373 -386689514 152559430 326287693 -2079030379 1197819101 -42483130 199913017
REM
CELL 1.54180   50.00000   50.00000   50.00000   90.00000   90.00000   90.00000
LATT -1
SFAC C  
C      1  0.4809220000000  0.4511390000000  0.5628360000000 1.0
C      1  0.4430910000000  0.5017260000000  0.5642370000000 1.0
C      1  0.4857960000000  0.5490790000000  0.5595550000000 1.0
C      1  0.5459340000000  0.5279560000000  0.5617030000000 1.0
C      1  0.5434750000000  0.4662020000000  0.5641810000000 1.0
C      1  0.5190780000000  0.4511390000000  0.5628360000000 1.0
C      1  0.5569090000000  0.5017260000000  0.5642370000000 1.0
C      1  0.5142040000000  0.5490790000000  0.5595550000000 1.0
C      1  0.4540660000000  0.5279560000000  0.5617030000000 1.0
C      1  0.4565250000000  0.4662020000000  0.5641810000000 1.0
C      1  0.4691980000000  0.5518020000000  0.4859290000000 1.0
C      1  0.5584550000000  0.5441520000000  0.4886150000000 1.0
C      1  0.5700240000000  0.4621120000000  0.4932130000000 1.0
C      1  0.4854340000000  0.4424520000000  0.4880170000000 1.0
C      1  0.4177980000000  0.4886460000000  0.4923730000000 1.0
C      1  0.5308020000000  0.5518020000000  0.4859290000000 1.0
C      1  0.4415450000000  0.5441520000000  0.4886150000000 1.0
C      1  0.4299760000000  0.4621120000000  0.4932130000000 1.0
C      1  0.5145660000000  0.4424520000000  0.4880170000000 1.0
C      1  0.5822020000000  0.4886460000000  0.4923730000000 1.0
C      1  0.4479400000000  0.5428840000000  0.5374640000000 1.0
C      1  0.5274960000000  0.5582240000000  0.5351240000000 1.0
C      1  0.5739000000000  0.4907390000000  0.5428180000000 1.0
C      1  0.5144740000000  0.4355060000000  0.5385120000000 1.0
C      1  0.4369900000000  0.4635130000000  0.5425370000000 1.0
C      1  0.5520600000000  0.5428840000000  0.5374640000000 1.0
C      1  0.4725040000000  0.5582240000000  0.5351240000000 1.0
C      1  0.4261000000000  0.4907390000000  0.5428180000000 1.0
C      1  0.4855260000000  0.4355060000000  0.5385120000000 1.0
C      1  0.5630100000000  0.4635130000000  0.5425370000000 1.0
C      1  0.5143200000000  0.4662880000000  0.4433660000000 1.0
C      1  0.4705820000000  0.4822460000000  0.4262060000000 1.0
C      1  0.4520250000000  0.5269960000000  0.4313930000000 1.0
C      1  0.5141820000000  0.5434510000000  0.4380990000000 1.0
C      1  0.5499340000000  0.4987210000000  0.4359690000000 1.0
C      1  0.4856800000000  0.4662880000000  0.4433660000000 1.0
C      1  0.5294180000000  0.4822460000000  0.4262060000000 1.0
C      1  0.5479750000000  0.5269960000000  0.4313930000000 1.0
C      1  0.4858180000000  0.5434510000000  0.4380990000000 1.0
C      1  0.4500660000000  0.4987210000000  0.4359690000000 1.0
C      1  0.5145240000000  0.5596180000000  0.5087720000000 1.0
C      1  0.5746000000000  0.5039850000000  0.5159140000000 1.0
C      1  0.5284570000000  0.4417030000000  0.5135630000000 1.0
C      1  0.4473750000000  0.4571160000000  0.5160660000000 1.0
C      1  0.4364520000000  0.5307470000000  0.5135820000000 1.0
C      1  0.4854760000000  0.5596180000000  0.5087720000000 1.0
C      1  0.4254000000000  0.5039850000000  0.5159140000000 1.0
C      1  0.4715430000000  0.4417030000000  0.5135630000000 1.0
C      1  0.5526250000000  0.4571160000000  0.5160660000000 1.0
C      1  0.5635480000000  0.5307470000000  0.5135820000000 1.0
C      1  0.4435080000000  0.4625660000000  0.4674340000000 1.0
C      1  0.4432740000000  0.5471150000000  0.4504840000000 1.0
C      1  0.5300180000000  0.5577240000000  0.4575000000000 1.0
C      1  0.5658670000000  0.4882270000000  0.4575710000000 1.0
C      1  0.5278150000000  0.4573640000000  0.4669680000000 1.0
C      1  0.5564920000000  0.4625660000000  0.4674340000000 1.0
C      1  0.5567260000000  0.5471150000000  0.4504840000000 1.0
C      1  0.4699820000000  0.5577240000000  0.4575000000000 1.0
C      1  0.4341330000000  0.4882270000000  0.4575710000000 1.0
C      1  0.4721850000000  0.4573640000000  0.4669680000000 1.0
END
