TITL C-38187-2739-590 -6.39707305288291e-06 125000 -363.213459235202 0 0 60 (D5) n - 1
REM
REM in /home/bkarasulu/CARBON/AIRSS/Generating-Clusters/EDIP-Nigel-Params/Higher-Symm/Box-15A/Only-C60/SD-CG/FIRE-HFTN
REM
REM
REM
REM
REM
REM ./C.cell (414f73aa93bd7a1190c7fd0f31ff2f98)
REM
REM compiler GCC version 9.2.1 20190827 (Red Hat 9.2.1-1)
REM options -cpp -mtune=generic -march=x86-64 -g -O0 -fpre-include=/usr/include/finclude/math-vector-fortran.h
REM seed 743633683 -1615719323 -1435143584 -332801903 198953922 -589045923 1554713549 -1190832344 -2134391239 1288018760 1186681379 -2054803331 441003823 -710656666 564129231 123690014 1338432718 1942410598 65117110 235473732 1155122664 778601260 -406564521 1656038912 583452033 -1650341282 -46902850 1846821214 971518349 -923309978 -1982933159 -1670987076 -1557920981
REM
CELL 1.54180   50.00000   50.00000   50.00000   90.00000   90.00000   90.00000
LATT -1
SFAC C  
C      1  0.5004070000000  0.4879770000000  0.5350690000000 1.0
C      1  0.5334780000000  0.4879770000000  0.5104500000000 1.0
C      1  0.5202840000000  0.4879770000000  0.4713890000000 1.0
C      1  0.4790580000000  0.4879770000000  0.4718680000000 1.0
C      1  0.4667730000000  0.4879770000000  0.5112240000000 1.0
C      1  0.5004070000000  0.5120230000000  0.4649310000000 1.0
C      1  0.5334780000000  0.5120230000000  0.4895500000000 1.0
C      1  0.5202840000000  0.5120230000000  0.5286110000000 1.0
C      1  0.4790580000000  0.5120230000000  0.5281320000000 1.0
C      1  0.4667730000000  0.5120230000000  0.4887760000000 1.0
C      1  0.4993900000000  0.4492910000000  0.4755120000000 1.0
C      1  0.4765220000000  0.4492910000000  0.4930130000000 1.0
C      1  0.4861000000000  0.4492910000000  0.5201700000000 1.0
C      1  0.5148870000000  0.4492910000000  0.5194520000000 1.0
C      1  0.5231010000000  0.4492910000000  0.4918520000000 1.0
C      1  0.4993900000000  0.5507090000000  0.5244880000000 1.0
C      1  0.4765220000000  0.5507090000000  0.5069870000000 1.0
C      1  0.4861000000000  0.5507090000000  0.4798300000000 1.0
C      1  0.5148870000000  0.5507090000000  0.4805480000000 1.0
C      1  0.5231010000000  0.5507090000000  0.5081480000000 1.0
C      1  0.5392390000000  0.5165680000000  0.5523090000000 1.0
C      1  0.5618740000000  0.5165680000000  0.4788460000000 1.0
C      1  0.4990020000000  0.5165680000000  0.4346180000000 1.0
C      1  0.4375090000000  0.5165680000000  0.4807450000000 1.0
C      1  0.4623770000000  0.5165680000000  0.5534820000000 1.0
C      1  0.5392390000000  0.4834320000000  0.4476910000000 1.0
C      1  0.5618740000000  0.4834320000000  0.5211540000000 1.0
C      1  0.4990020000000  0.4834320000000  0.5653820000000 1.0
C      1  0.4375090000000  0.4834320000000  0.5192550000000 1.0
C      1  0.4623770000000  0.4834320000000  0.4465180000000 1.0
C      1  0.5541790000000  0.4698980000000  0.5460670000000 1.0
C      1  0.5605540000000  0.4698980000000  0.4627080000000 1.0
C      1  0.4832460000000  0.4698980000000  0.4308860000000 1.0
C      1  0.4290910000000  0.4698980000000  0.4945770000000 1.0
C      1  0.4729300000000  0.4698980000000  0.5657630000000 1.0
C      1  0.5541790000000  0.5301020000000  0.4539330000000 1.0
C      1  0.5605540000000  0.5301020000000  0.5372920000000 1.0
C      1  0.4832460000000  0.5301020000000  0.5691140000000 1.0
C      1  0.4290910000000  0.5301020000000  0.5054230000000 1.0
C      1  0.4729300000000  0.5301020000000  0.4342370000000 1.0
C      1  0.5485260000000  0.5081340000000  0.4370980000000 1.0
C      1  0.4551720000000  0.5081340000000  0.4344110000000 1.0
C      1  0.4237690000000  0.5081340000000  0.5223660000000 1.0
C      1  0.4977140000000  0.5081340000000  0.5794110000000 1.0
C      1  0.5748190000000  0.5081340000000  0.5267130000000 1.0
C      1  0.5485260000000  0.4918660000000  0.5629020000000 1.0
C      1  0.4551720000000  0.4918660000000  0.5655890000000 1.0
C      1  0.4237690000000  0.4918660000000  0.4776340000000 1.0
C      1  0.4977140000000  0.4918660000000  0.4205890000000 1.0
C      1  0.5748190000000  0.4918660000000  0.4732870000000 1.0
C      1  0.5485670000000  0.5473440000000  0.5188720000000 1.0
C      1  0.5329560000000  0.5473440000000  0.4596410000000 1.0
C      1  0.4718010000000  0.5473440000000  0.4561850000000 1.0
C      1  0.4496160000000  0.5473440000000  0.5132800000000 1.0
C      1  0.4970600000000  0.5473440000000  0.5520220000000 1.0
C      1  0.5485670000000  0.4526560000000  0.4811280000000 1.0
C      1  0.5329560000000  0.4526560000000  0.5403590000000 1.0
C      1  0.4718010000000  0.4526560000000  0.5438150000000 1.0
C      1  0.4496160000000  0.4526560000000  0.4867200000000 1.0
C      1  0.4970600000000  0.4526560000000  0.4479780000000 1.0
END
