TITL C-38199-1586-113 -2.2671328019694e-05 125000 -364.010246286464 0 0 60 (D2) n - 1
REM
REM in /home/bkarasulu/CARBON/AIRSS/Generating-Clusters/EDIP-Nigel-Params/Higher-Symm/Box-15A/Only-C60/SD-CG/FIRE-HFTN
REM
REM
REM
REM
REM
REM ./C.cell (414f73aa93bd7a1190c7fd0f31ff2f98)
REM
REM compiler GCC version 9.2.1 20190827 (Red Hat 9.2.1-1)
REM options -cpp -mtune=generic -march=x86-64 -g -O0 -fpre-include=/usr/include/finclude/math-vector-fortran.h
REM seed 482812312 -632593897 182750475 743763947 1422988993 -2060761367 -996234595 -782940327 -31334115 804821009 870351891 2138063355 747289829 -230666219 867513135 1013072267 -1187353873 -1912832344 53044231 -1745626296 -2022132030 -1327607414 1582200837 -1496136111 2011719961 -1450962652 1066032307 -491743029 1249042165 -1933908239 265143615 577869455 -1636583770
REM
CELL 1.54180   50.00000   50.00000   50.00000   90.00000   90.00000   90.00000
LATT -1
SFAC C  
C      1  0.4843690000000  0.4827660000000  0.5511990000000 1.0
C      1  0.5156310000000  0.4827660000000  0.4488010000000 1.0
C      1  0.5156310000000  0.5172340000000  0.5511990000000 1.0
C      1  0.4843690000000  0.5172340000000  0.4488010000000 1.0
C      1  0.5617990000000  0.5191260000000  0.5505830000000 1.0
C      1  0.4382010000000  0.5191260000000  0.4494170000000 1.0
C      1  0.4382010000000  0.4808740000000  0.5505830000000 1.0
C      1  0.5617990000000  0.4808740000000  0.4494170000000 1.0
C      1  0.5132740000000  0.4441690000000  0.5361880000000 1.0
C      1  0.4867260000000  0.4441690000000  0.4638120000000 1.0
C      1  0.4867260000000  0.5558310000000  0.5361880000000 1.0
C      1  0.5132740000000  0.5558310000000  0.4638120000000 1.0
C      1  0.5448390000000  0.5279030000000  0.5013360000000 1.0
C      1  0.4551610000000  0.5279030000000  0.4986640000000 1.0
C      1  0.4551610000000  0.4720970000000  0.5013360000000 1.0
C      1  0.5448390000000  0.4720970000000  0.4986640000000 1.0
C      1  0.4337210000000  0.5073320000000  0.5533000000000 1.0
C      1  0.5662790000000  0.5073320000000  0.4467000000000 1.0
C      1  0.5662790000000  0.4926680000000  0.5533000000000 1.0
C      1  0.4337210000000  0.4926680000000  0.4467000000000 1.0
C      1  0.4729680000000  0.4647540000000  0.4483580000000 1.0
C      1  0.5270320000000  0.4647540000000  0.5516420000000 1.0
C      1  0.5270320000000  0.5352460000000  0.4483580000000 1.0
C      1  0.4729680000000  0.5352460000000  0.5516420000000 1.0
C      1  0.5564410000000  0.5325370000000  0.4535590000000 1.0
C      1  0.4435590000000  0.5325370000000  0.5464410000000 1.0
C      1  0.4435590000000  0.4674630000000  0.4535590000000 1.0
C      1  0.5564410000000  0.4674630000000  0.5464410000000 1.0
C      1  0.4667570000000  0.4539760000000  0.5209200000000 1.0
C      1  0.5332430000000  0.4539760000000  0.4790800000000 1.0
C      1  0.5332430000000  0.5460240000000  0.5209200000000 1.0
C      1  0.4667570000000  0.5460240000000  0.4790800000000 1.0
C      1  0.5180820000000  0.4678130000000  0.5793820000000 1.0
C      1  0.4819180000000  0.4678130000000  0.4206180000000 1.0
C      1  0.4819180000000  0.5321870000000  0.5793820000000 1.0
C      1  0.5180820000000  0.5321870000000  0.4206180000000 1.0
C      1  0.4963020000000  0.4856220000000  0.5786990000000 1.0
C      1  0.5036980000000  0.4856220000000  0.4213010000000 1.0
C      1  0.5036980000000  0.5143780000000  0.5786990000000 1.0
C      1  0.4963020000000  0.5143780000000  0.4213010000000 1.0
C      1  0.5389930000000  0.4646990000000  0.4519100000000 1.0
C      1  0.4610070000000  0.4646990000000  0.5480900000000 1.0
C      1  0.4610070000000  0.5353010000000  0.4519100000000 1.0
C      1  0.5389930000000  0.5353010000000  0.5480900000000 1.0
C      1  0.4955440000000  0.5508310000000  0.4856060000000 1.0
C      1  0.5044560000000  0.5508310000000  0.5143940000000 1.0
C      1  0.5044560000000  0.4491690000000  0.4856060000000 1.0
C      1  0.4955440000000  0.4491690000000  0.5143940000000 1.0
C      1  0.4396480000000  0.4614570000000  0.4804970000000 1.0
C      1  0.5603520000000  0.4614570000000  0.5195030000000 1.0
C      1  0.5603520000000  0.5385430000000  0.4804970000000 1.0
C      1  0.4396480000000  0.5385430000000  0.5195030000000 1.0
C      1  0.5193150000000  0.5105480000000  0.4636430000000 1.0
C      1  0.4806850000000  0.5105480000000  0.5363570000000 1.0
C      1  0.4806850000000  0.4894520000000  0.4636430000000 1.0
C      1  0.5193150000000  0.4894520000000  0.5363570000000 1.0
C      1  0.4816450000000  0.5142220000000  0.5061470000000 1.0
C      1  0.5183550000000  0.5142220000000  0.4938530000000 1.0
C      1  0.5183550000000  0.4857780000000  0.5061470000000 1.0
C      1  0.4816450000000  0.4857780000000  0.4938530000000 1.0
END
