TITL C-38193-7935-79 1.94971697755715e-05 125000 -354.662413869233 0 0 60 (S4) n - 1
REM
REM in /home/bkarasulu/CARBON/AIRSS/Generating-Clusters/EDIP-Nigel-Params/Higher-Symm/Box-15A/Only-C60/SD-CG/FIRE-HFTN
REM
REM
REM
REM
REM
REM ./C.cell (414f73aa93bd7a1190c7fd0f31ff2f98)
REM
REM compiler GCC version 9.2.1 20190827 (Red Hat 9.2.1-1)
REM options -cpp -mtune=generic -march=x86-64 -g -O0 -fpre-include=/usr/include/finclude/math-vector-fortran.h
REM seed 798023971 -927917360 -1703700168 -1162794556 -1518640993 751583932 -1482919503 -1445616489 862716014 1064716851 -304656568 1523828126 1535069749 -10249841 -490182896 608686904 800746980 363260906 -328081741 -927855994 -1331039053 -370191169 -727710765 -225473818 -2108512324 5053511 -1232072638 1828452779 1399527842 -673350110 1550240640 -419693745 178318546
REM
CELL 1.54180   50.00000   50.00000   50.00000   90.00000   90.00000   90.00000
LATT -1
SFAC C  
C      1  0.5664260000000  0.4720660000000  0.5684110000000 1.0
C      1  0.4335740000000  0.4315890000000  0.4720660000000 1.0
C      1  0.5664260000000  0.5279340000000  0.4315890000000 1.0
C      1  0.4335740000000  0.5684110000000  0.5279340000000 1.0
C      1  0.5389510000000  0.5507990000000  0.4579550000000 1.0
C      1  0.4610490000000  0.5420450000000  0.5507990000000 1.0
C      1  0.5389510000000  0.4492010000000  0.5420450000000 1.0
C      1  0.4610490000000  0.4579550000000  0.4492010000000 1.0
C      1  0.4619560000000  0.4860040000000  0.5158930000000 1.0
C      1  0.5380440000000  0.4841070000000  0.4860040000000 1.0
C      1  0.4619560000000  0.5139960000000  0.4841070000000 1.0
C      1  0.5380440000000  0.5158930000000  0.5139960000000 1.0
C      1  0.4939000000000  0.4578650000000  0.5452290000000 1.0
C      1  0.5061000000000  0.4547710000000  0.4578650000000 1.0
C      1  0.4939000000000  0.5421350000000  0.4547710000000 1.0
C      1  0.5061000000000  0.5452290000000  0.5421350000000 1.0
C      1  0.4512070000000  0.4100030000000  0.4682990000000 1.0
C      1  0.5487930000000  0.5317010000000  0.4100030000000 1.0
C      1  0.4512070000000  0.5899970000000  0.5317010000000 1.0
C      1  0.5487930000000  0.4682990000000  0.5899970000000 1.0
C      1  0.5114580000000  0.4985110000000  0.4783110000000 1.0
C      1  0.4885420000000  0.5216890000000  0.4985110000000 1.0
C      1  0.5114580000000  0.5014890000000  0.5216890000000 1.0
C      1  0.4885420000000  0.4783110000000  0.5014890000000 1.0
C      1  0.5658020000000  0.5492790000000  0.4499000000000 1.0
C      1  0.4341980000000  0.5501000000000  0.5492790000000 1.0
C      1  0.5658020000000  0.4507210000000  0.5501000000000 1.0
C      1  0.4341980000000  0.4499000000000  0.4507210000000 1.0
C      1  0.5306780000000  0.5476860000000  0.4848220000000 1.0
C      1  0.4693220000000  0.5151780000000  0.5476860000000 1.0
C      1  0.5306780000000  0.4523140000000  0.5151780000000 1.0
C      1  0.4693220000000  0.4848220000000  0.4523140000000 1.0
C      1  0.5624820000000  0.4868480000000  0.4664040000000 1.0
C      1  0.4375180000000  0.5335960000000  0.4868480000000 1.0
C      1  0.5624820000000  0.5131520000000  0.5335960000000 1.0
C      1  0.4375180000000  0.4664040000000  0.5131520000000 1.0
C      1  0.5649830000000  0.5034290000000  0.4444010000000 1.0
C      1  0.4350170000000  0.5555990000000  0.5034290000000 1.0
C      1  0.5649830000000  0.4965710000000  0.5555990000000 1.0
C      1  0.4350170000000  0.4444010000000  0.4965710000000 1.0
C      1  0.5310340000000  0.5504620000000  0.5289860000000 1.0
C      1  0.4689660000000  0.4710140000000  0.5504620000000 1.0
C      1  0.5310340000000  0.4495380000000  0.4710140000000 1.0
C      1  0.4689660000000  0.5289860000000  0.4495380000000 1.0
C      1  0.5181010000000  0.4558670000000  0.5606780000000 1.0
C      1  0.4818990000000  0.4393220000000  0.4558670000000 1.0
C      1  0.5181010000000  0.5441330000000  0.4393220000000 1.0
C      1  0.4818990000000  0.5606780000000  0.5441330000000 1.0
C      1  0.4765550000000  0.4117930000000  0.4581370000000 1.0
C      1  0.5234450000000  0.5418630000000  0.4117930000000 1.0
C      1  0.4765550000000  0.5882070000000  0.5418630000000 1.0
C      1  0.5234450000000  0.4581370000000  0.5882070000000 1.0
C      1  0.5029260000000  0.5416020000000  0.4821040000000 1.0
C      1  0.4970740000000  0.5178960000000  0.5416020000000 1.0
C      1  0.5029260000000  0.4583980000000  0.5178960000000 1.0
C      1  0.4970740000000  0.4821040000000  0.4583980000000 1.0
C      1  0.5557170000000  0.5405730000000  0.5385520000000 1.0
C      1  0.4442830000000  0.4614480000000  0.5405730000000 1.0
C      1  0.5557170000000  0.4594270000000  0.4614480000000 1.0
C      1  0.4442830000000  0.5385520000000  0.4594270000000 1.0
END
