TITL C-38193-7935-563 2.73136308697155e-05 125000 -366.094766059271 0 0 60 (C1) n - 1
REM
REM in /home/bkarasulu/CARBON/AIRSS/Generating-Clusters/EDIP-Nigel-Params/Higher-Symm/Box-15A/Only-C60/SD-CG/FIRE-HFTN
REM
REM
REM
REM
REM
REM ./C.cell (414f73aa93bd7a1190c7fd0f31ff2f98)
REM
REM compiler GCC version 9.2.1 20190827 (Red Hat 9.2.1-1)
REM options -cpp -mtune=generic -march=x86-64 -g -O0 -fpre-include=/usr/include/finclude/math-vector-fortran.h
REM seed 1344929944 -507517037 1844958398 -52786106 -1244859893 -2117027716 -287478418 -52031944 2071893555 -1831354413 1001278421 -264312265 -537905656 1658455930 -557923589 -843893232 600811404 -1126845942 707207261 -1447369005 -342992856 -1529691073 567512782 2091644376 -1491257094 1832658925 1394102948 -175956131 829521399 42734965 1742123792 -483195808 1052369845
REM
CELL 1.54180   50.00000   50.00000   50.00000   90.00000   90.00000   90.00000
LATT -1
SFAC C  
C      1  0.4888560000000  0.4496400000000  0.5417090000000 1.0
C      1  0.4623870000000  0.4511340000000  0.5298150000000 1.0
C      1  0.4576720000000  0.4391890000000  0.5050080000000 1.0
C      1  0.4605150000000  0.4490000000000  0.4788170000000 1.0
C      1  0.4741510000000  0.4329370000000  0.4604630000000 1.0
C      1  0.5003080000000  0.4427360000000  0.4598220000000 1.0
C      1  0.5226440000000  0.4261660000000  0.4627260000000 1.0
C      1  0.5370910000000  0.4375160000000  0.4839050000000 1.0
C      1  0.5410760000000  0.4218530000000  0.5067040000000 1.0
C      1  0.5287110000000  0.4358710000000  0.5274290000000 1.0
C      1  0.5053960000000  0.4269830000000  0.5402520000000 1.0
C      1  0.5487390000000  0.5552150000000  0.5214940000000 1.0
C      1  0.5479400000000  0.5572680000000  0.5498060000000 1.0
C      1  0.5226940000000  0.5512750000000  0.5632810000000 1.0
C      1  0.4844620000000  0.5463570000000  0.5657090000000 1.0
C      1  0.4602580000000  0.5457090000000  0.5522730000000 1.0
C      1  0.4374710000000  0.5487130000000  0.4971130000000 1.0
C      1  0.4451150000000  0.5456550000000  0.4705180000000 1.0
C      1  0.4674320000000  0.5479750000000  0.4404300000000 1.0
C      1  0.4949540000000  0.5502650000000  0.4320470000000 1.0
C      1  0.5315660000000  0.5539770000000  0.4426450000000 1.0
C      1  0.5493560000000  0.5580430000000  0.4635560000000 1.0
C      1  0.5610730000000  0.5101110000000  0.5472220000000 1.0
C      1  0.5345380000000  0.5038140000000  0.5564190000000 1.0
C      1  0.4830770000000  0.4969090000000  0.5592340000000 1.0
C      1  0.4560940000000  0.4978120000000  0.5490780000000 1.0
C      1  0.4254200000000  0.5010860000000  0.5009220000000 1.0
C      1  0.4363910000000  0.4952140000000  0.4736220000000 1.0
C      1  0.4701530000000  0.4984230000000  0.4268090000000 1.0
C      1  0.4906150000000  0.5050170000000  0.4080720000000 1.0
C      1  0.5438990000000  0.5063070000000  0.4514170000000 1.0
C      1  0.5681190000000  0.5143090000000  0.4630770000000 1.0
C      1  0.5611920000000  0.5063580000000  0.5176290000000 1.0
C      1  0.4636460000000  0.4791080000000  0.4746770000000 1.0
C      1  0.4808550000000  0.4854690000000  0.4508670000000 1.0
C      1  0.5058680000000  0.4693430000000  0.4495440000000 1.0
C      1  0.5314170000000  0.4812610000000  0.4605810000000 1.0
C      1  0.5440970000000  0.4661820000000  0.4832690000000 1.0
C      1  0.5488340000000  0.4793390000000  0.5103140000000 1.0
C      1  0.5399600000000  0.4620730000000  0.5332350000000 1.0
C      1  0.5270010000000  0.4760640000000  0.5560330000000 1.0
C      1  0.4980230000000  0.4718350000000  0.5580560000000 1.0
C      1  0.4469120000000  0.4752960000000  0.5333760000000 1.0
C      1  0.4239610000000  0.4787510000000  0.5180010000000 1.0
C      1  0.5218650000000  0.5237870000000  0.5732590000000 1.0
C      1  0.4931380000000  0.5200630000000  0.5741220000000 1.0
C      1  0.4464400000000  0.5242620000000  0.5406760000000 1.0
C      1  0.4360770000000  0.5257770000000  0.5131410000000 1.0
C      1  0.4367370000000  0.5207910000000  0.4575830000000 1.0
C      1  0.4531470000000  0.5225940000000  0.4331440000000 1.0
C      1  0.5052270000000  0.5248910000000  0.4223750000000 1.0
C      1  0.5320080000000  0.5261530000000  0.4332110000000 1.0
C      1  0.5618370000000  0.5373300000000  0.4776570000000 1.0
C      1  0.5551450000000  0.5328520000000  0.5051400000000 1.0
C      1  0.5665800000000  0.5367280000000  0.5552720000000 1.0
C      1  0.5134970000000  0.5865930000000  0.5077000000000 1.0
C      1  0.4979760000000  0.5374630000000  0.5062340000000 1.0
C      1  0.4800340000000  0.4902710000000  0.4953160000000 1.0
C      1  0.4943450000000  0.5114790000000  0.5028660000000 1.0
C      1  0.5023240000000  0.5635860000000  0.5061750000000 1.0
END
