TITL C-38193-7935-150 2.76936023398555e-06 125000 -366.03603794127 0 0 60 (C1) n - 1
REM
REM in /home/bkarasulu/CARBON/AIRSS/Generating-Clusters/EDIP-Nigel-Params/Higher-Symm/Box-15A/Only-C60/SD-CG/FIRE-HFTN
REM
REM
REM
REM
REM
REM ./C.cell (414f73aa93bd7a1190c7fd0f31ff2f98)
REM
REM compiler GCC version 9.2.1 20190827 (Red Hat 9.2.1-1)
REM options -cpp -mtune=generic -march=x86-64 -g -O0 -fpre-include=/usr/include/finclude/math-vector-fortran.h
REM seed -1913464017 -797821509 222889385 1823089149 -413402742 -30633252 -1558195191 567374244 717796685 -1247439458 -701731297 1512555505 -1668896662 -957371044 141958593 -2018049294 -82882037 1819777570 1339766284 -527816098 2109771649 164200992 2124202102 -1720096751 -853805964 1493511508 -1322839317 -1978052895 1677453511 -1148594469 1501431664 -1598309030 269554118
REM
CELL 1.54180   50.00000   50.00000   50.00000   90.00000   90.00000   90.00000
LATT -1
SFAC C  
C      1  0.4854760000000  0.4638950000000  0.5604540000000 1.0
C      1  0.4500410000000  0.4697050000000  0.5225060000000 1.0
C      1  0.4470240000000  0.4661870000000  0.4705650000000 1.0
C      1  0.4854130000000  0.4659330000000  0.4377640000000 1.0
C      1  0.5339330000000  0.4681810000000  0.4546180000000 1.0
C      1  0.5553510000000  0.4670120000000  0.5019260000000 1.0
C      1  0.5356140000000  0.4637670000000  0.5493760000000 1.0
C      1  0.4917600000000  0.4276470000000  0.4649660000000 1.0
C      1  0.5198630000000  0.4299430000000  0.4724780000000 1.0
C      1  0.5320730000000  0.4291920000000  0.4990560000000 1.0
C      1  0.5190300000000  0.4263540000000  0.5247970000000 1.0
C      1  0.4904360000000  0.4272630000000  0.5307580000000 1.0
C      1  0.4681660000000  0.4306060000000  0.5120360000000 1.0
C      1  0.4680800000000  0.4289900000000  0.4827260000000 1.0
C      1  0.5290680000000  0.5643050000000  0.5597620000000 1.0
C      1  0.4742200000000  0.5630510000000  0.5544880000000 1.0
C      1  0.4418340000000  0.5495560000000  0.4947610000000 1.0
C      1  0.4588670000000  0.5608890000000  0.4442650000000 1.0
C      1  0.5106600000000  0.5575830000000  0.4418520000000 1.0
C      1  0.5300460000000  0.5434790000000  0.4798050000000 1.0
C      1  0.5539510000000  0.5563280000000  0.5159040000000 1.0
C      1  0.5357960000000  0.4356230000000  0.5456250000000 1.0
C      1  0.4844180000000  0.4358780000000  0.5570120000000 1.0
C      1  0.4444550000000  0.4418070000000  0.5231340000000 1.0
C      1  0.4437720000000  0.4380460000000  0.4712740000000 1.0
C      1  0.4879120000000  0.4376420000000  0.4387020000000 1.0
C      1  0.5356820000000  0.4400340000000  0.4513000000000 1.0
C      1  0.5585740000000  0.4387650000000  0.5016850000000 1.0
C      1  0.5493160000000  0.4780220000000  0.4764030000000 1.0
C      1  0.5449510000000  0.4803140000000  0.5267740000000 1.0
C      1  0.5120470000000  0.4731750000000  0.5617570000000 1.0
C      1  0.4671610000000  0.4775340000000  0.5438130000000 1.0
C      1  0.4607410000000  0.4780420000000  0.4953000000000 1.0
C      1  0.4599850000000  0.4742800000000  0.4467280000000 1.0
C      1  0.5084190000000  0.4818070000000  0.4476120000000 1.0
C      1  0.4609690000000  0.5342140000000  0.4490640000000 1.0
C      1  0.5101460000000  0.5310180000000  0.4351700000000 1.0
C      1  0.5230680000000  0.5171970000000  0.4776800000000 1.0
C      1  0.5537740000000  0.5296390000000  0.5206450000000 1.0
C      1  0.5252830000000  0.5379650000000  0.5647070000000 1.0
C      1  0.4736710000000  0.5361890000000  0.5557500000000 1.0
C      1  0.4402120000000  0.5228950000000  0.4971590000000 1.0
C      1  0.4652640000000  0.5643850000000  0.4922560000000 1.0
C      1  0.4728450000000  0.5736990000000  0.4654910000000 1.0
C      1  0.5024850000000  0.5742020000000  0.4633420000000 1.0
C      1  0.5142050000000  0.5645830000000  0.4902670000000 1.0
C      1  0.5331750000000  0.5750240000000  0.5121550000000 1.0
C      1  0.5180440000000  0.5779890000000  0.5376060000000 1.0
C      1  0.4902810000000  0.5701990000000  0.5324740000000 1.0
C      1  0.4876900000000  0.5165650000000  0.5415240000000 1.0
C      1  0.4652080000000  0.5094110000000  0.4924570000000 1.0
C      1  0.4749470000000  0.5151280000000  0.4640650000000 1.0
C      1  0.5040700000000  0.5110500000000  0.4555420000000 1.0
C      1  0.5142020000000  0.5075730000000  0.5033710000000 1.0
C      1  0.5342890000000  0.5089560000000  0.5259870000000 1.0
C      1  0.5167300000000  0.5155640000000  0.5499930000000 1.0
C      1  0.5092320000000  0.4801990000000  0.5002770000000 1.0
C      1  0.4881900000000  0.5219710000000  0.5114750000000 1.0
C      1  0.4867290000000  0.4670620000000  0.4950790000000 1.0
C      1  0.4893490000000  0.5546840000000  0.5067570000000 1.0
END
