TITL C-38191-7580-338 0.00072797687047417 125000 -354.128727714208 0 0 60 (C1) n - 1
REM
REM in /home/bkarasulu/CARBON/AIRSS/Generating-Clusters/EDIP-Nigel-Params/Higher-Symm/Box-15A/Only-C60/SD-CG/FIRE-HFTN
REM
REM
REM
REM
REM
REM ./C.cell (414f73aa93bd7a1190c7fd0f31ff2f98)
REM
REM compiler GCC version 9.2.1 20190827 (Red Hat 9.2.1-1)
REM options -cpp -mtune=generic -march=x86-64 -g -O0 -fpre-include=/usr/include/finclude/math-vector-fortran.h
REM seed 1429923591 201955593 -1226281066 -415989649 1490918610 -1846558992 1033381715 938542462 1790187319 1960353708 2037101066 -368575420 408869375 -1145562887 1009995640 -2052692389 -396912928 -145272478 1234368192 -450961005 -251515731 -717544886 -148132929 -1586242381 -1840774130 -609658965 -1751526525 -759743439 -152150143 1073153373 -919343058 -2083499415 -526314949
REM
CELL 1.54180   50.00000   50.00000   50.00000   90.00000   90.00000   90.00000
LATT -1
SFAC C  
C      1  0.5380100000000  0.4740080000000  0.5132840000000 1.0
C      1  0.5114210000000  0.5255030000000  0.4605320000000 1.0
C      1  0.4602130000000  0.4736070000000  0.4883590000000 1.0
C      1  0.4866280000000  0.5269410000000  0.5387650000000 1.0
C      1  0.5816390000000  0.5085100000000  0.4967370000000 1.0
C      1  0.4961910000000  0.4910120000000  0.4178930000000 1.0
C      1  0.4177600000000  0.5091470000000  0.5041510000000 1.0
C      1  0.5035190000000  0.4912770000000  0.5824460000000 1.0
C      1  0.4692980000000  0.5215060000000  0.5619930000000 1.0
C      1  0.5609700000000  0.4789850000000  0.5310910000000 1.0
C      1  0.5299380000000  0.5210390000000  0.4381950000000 1.0
C      1  0.4375710000000  0.4783570000000  0.4702840000000 1.0
C      1  0.4515870000000  0.4582600000000  0.5102840000000 1.0
C      1  0.5085080000000  0.5424310000000  0.5473580000000 1.0
C      1  0.5471320000000  0.4585260000000  0.4915820000000 1.0
C      1  0.4897650000000  0.5408530000000  0.4513320000000 1.0
C      1  0.5238310000000  0.4875620000000  0.5590600000000 1.0
C      1  0.5587260000000  0.5132400000000  0.4755100000000 1.0
C      1  0.4748830000000  0.4861980000000  0.4410400000000 1.0
C      1  0.4413330000000  0.5128790000000  0.5246770000000 1.0
C      1  0.5508430000000  0.4974680000000  0.5513920000000 1.0
C      1  0.5505510000000  0.5030240000000  0.4486640000000 1.0
C      1  0.4480420000000  0.4963080000000  0.4497390000000 1.0
C      1  0.4494480000000  0.5028970000000  0.5516430000000 1.0
C      1  0.5208720000000  0.5003580000000  0.5079760000000 1.0
C      1  0.5075120000000  0.4997430000000  0.4785100000000 1.0
C      1  0.4783700000000  0.4994110000000  0.4918390000000 1.0
C      1  0.4915000000000  0.5008970000000  0.5208820000000 1.0
C      1  0.5052100000000  0.4473300000000  0.4814820000000 1.0
C      1  0.4900840000000  0.5534880000000  0.4979770000000 1.0
C      1  0.4980260000000  0.4464570000000  0.5097500000000 1.0
C      1  0.5183460000000  0.5526890000000  0.5051470000000 1.0
C      1  0.4444410000000  0.5246970000000  0.4614460000000 1.0
C      1  0.4621510000000  0.4748820000000  0.5552330000000 1.0
C      1  0.5545650000000  0.5258840000000  0.5403820000000 1.0
C      1  0.5400300000000  0.4743540000000  0.4452690000000 1.0
C      1  0.4857810000000  0.4391310000000  0.4630710000000 1.0
C      1  0.4668830000000  0.5570550000000  0.5135600000000 1.0
C      1  0.5134800000000  0.4432980000000  0.5331720000000 1.0
C      1  0.5368220000000  0.5605500000000  0.4856510000000 1.0
C      1  0.5523680000000  0.4572610000000  0.4649130000000 1.0
C      1  0.4627750000000  0.5429950000000  0.4484600000000 1.0
C      1  0.4494850000000  0.4558520000000  0.5373580000000 1.0
C      1  0.5352050000000  0.5435130000000  0.5523470000000 1.0
C      1  0.5744430000000  0.5356220000000  0.5093090000000 1.0
C      1  0.5089710000000  0.4641570000000  0.4253880000000 1.0
C      1  0.4250950000000  0.5361140000000  0.4915830000000 1.0
C      1  0.4905210000000  0.4643040000000  0.5751230000000 1.0
C      1  0.5150350000000  0.5115130000000  0.4164010000000 1.0
C      1  0.4162430000000  0.4886040000000  0.4853670000000 1.0
C      1  0.4847390000000  0.5118090000000  0.5832750000000 1.0
C      1  0.5824960000000  0.4881350000000  0.5156450000000 1.0
C      1  0.4661480000000  0.5262070000000  0.4849000000000 1.0
C      1  0.4850210000000  0.4740710000000  0.5332020000000 1.0
C      1  0.5340060000000  0.5275840000000  0.5148700000000 1.0
C      1  0.5145790000000  0.4725120000000  0.4657150000000 1.0
C      1  0.5594080000000  0.5438930000000  0.4829980000000 1.0
C      1  0.4828400000000  0.4556820000000  0.4404510000000 1.0
C      1  0.4420770000000  0.5434120000000  0.5171640000000 1.0
C      1  0.5166680000000  0.4569980000000  0.5581670000000 1.0
END
