TITL C-38198-1686-72 0.618221173526086 125000 -356.246201812939 0 0 60 (C1) n - 1
REM
REM in /home/bkarasulu/CARBON/AIRSS/Generating-Clusters/EDIP-Nigel-Params/Higher-Symm/Box-15A/Only-C60/SD-CG/FIRE-HFTN
REM
REM
REM
REM
REM
REM ./C.cell (414f73aa93bd7a1190c7fd0f31ff2f98)
REM
REM compiler GCC version 9.2.1 20190827 (Red Hat 9.2.1-1)
REM options -cpp -mtune=generic -march=x86-64 -g -O0 -fpre-include=/usr/include/finclude/math-vector-fortran.h
REM seed -443354183 1648918753 -2019574950 -575712607 1408077898 -1313207270 1100776173 -1032036471 -1218540219 598534214 1215818635 740255602 -1916561257 1216714250 -1493601584 -785952541 1212698873 1052162197 -2098827874 903304744 -1396223406 1339386849 -1966811187 -2113092176 -833085639 1254310526 745845051 -1670797688 -147368485 -1324181630 -384844010 -1128881408 -1272451033
REM
CELL 1.54180   50.00000   50.00000   50.00000   90.00000   90.00000   90.00000
LATT -1
SFAC C  
C      1  0.4932950000000  0.5524620000000  0.4225670000000 1.0
C      1  0.4751840000000  0.4643470000000  0.5045510000000 1.0
C      1  0.4500370000000  0.5436800000000  0.4533030000000 1.0
C      1  0.4399390000000  0.5672620000000  0.5174340000000 1.0
C      1  0.5549070000000  0.4234490000000  0.5250750000000 1.0
C      1  0.4803800000000  0.3891500000000  0.4882580000000 1.0
C      1  0.5067200000000  0.5456330000000  0.5327170000000 1.0
C      1  0.5162630000000  0.5141060000000  0.5674410000000 1.0
C      1  0.5112010000000  0.5947490000000  0.5365950000000 1.0
C      1  0.5495810000000  0.5257060000000  0.4833490000000 1.0
C      1  0.4706760000000  0.4782250000000  0.4308230000000 1.0
C      1  0.5120970000000  0.5710640000000  0.5180250000000 1.0
C      1  0.5050640000000  0.3972810000000  0.4968930000000 1.0
C      1  0.4312210000000  0.5086810000000  0.4821970000000 1.0
C      1  0.4468750000000  0.4637020000000  0.5044220000000 1.0
C      1  0.5357560000000  0.4365100000000  0.5080030000000 1.0
C      1  0.5573080000000  0.3960240000000  0.5262590000000 1.0
C      1  0.4992270000000  0.5324250000000  0.4046600000000 1.0
C      1  0.4206870000000  0.5292400000000  0.4975300000000 1.0
C      1  0.4382110000000  0.5617980000000  0.4706930000000 1.0
C      1  0.4593620000000  0.4968200000000  0.4443320000000 1.0
C      1  0.5500440000000  0.5238390000000  0.5356250000000 1.0
C      1  0.4772650000000  0.4955090000000  0.5442010000000 1.0
C      1  0.4685410000000  0.5520910000000  0.4347000000000 1.0
C      1  0.4902910000000  0.4433620000000  0.4944700000000 1.0
C      1  0.5351840000000  0.5688500000000  0.5012710000000 1.0
C      1  0.5158970000000  0.5120220000000  0.4009770000000 1.0
C      1  0.5242460000000  0.3784230000000  0.5025240000000 1.0
C      1  0.4656460000000  0.5204320000000  0.5398390000000 1.0
C      1  0.5591110000000  0.4625040000000  0.5573070000000 1.0
C      1  0.4892170000000  0.4489780000000  0.5485890000000 1.0
C      1  0.5266880000000  0.5330820000000  0.5497450000000 1.0
C      1  0.5468390000000  0.3736290000000  0.5160370000000 1.0
C      1  0.5106590000000  0.4252870000000  0.4991170000000 1.0
C      1  0.4850180000000  0.6045720000000  0.4994520000000 1.0
C      1  0.4895340000000  0.6120580000000  0.5268430000000 1.0
C      1  0.4712950000000  0.4676460000000  0.5346700000000 1.0
C      1  0.5547250000000  0.4855070000000  0.5140950000000 1.0
C      1  0.5464860000000  0.5126680000000  0.5088990000000 1.0
C      1  0.5606460000000  0.4871890000000  0.5422900000000 1.0
C      1  0.5683990000000  0.4403850000000  0.5425630000000 1.0
C      1  0.4861710000000  0.5759550000000  0.5017650000000 1.0
C      1  0.5145500000000  0.5632040000000  0.4364020000000 1.0
C      1  0.5411000000000  0.5528550000000  0.4795300000000 1.0
C      1  0.5487380000000  0.4995610000000  0.4369450000000 1.0
C      1  0.4320870000000  0.4831990000000  0.4924540000000 1.0
C      1  0.4785030000000  0.5451060000000  0.5393690000000 1.0
C      1  0.4568820000000  0.3799630000000  0.4803600000000 1.0
C      1  0.5074760000000  0.4655000000000  0.5621760000000 1.0
C      1  0.4339350000000  0.3719290000000  0.4724390000000 1.0
C      1  0.4730450000000  0.5938430000000  0.5429210000000 1.0
C      1  0.4271830000000  0.5561330000000  0.4955840000000 1.0
C      1  0.4484140000000  0.5160450000000  0.4605120000000 1.0
C      1  0.4672330000000  0.5697630000000  0.5258740000000 1.0
C      1  0.5394960000000  0.4638670000000  0.5057050000000 1.0
C      1  0.5337210000000  0.4589730000000  0.5685990000000 1.0
C      1  0.5353220000000  0.4995640000000  0.4140880000000 1.0
C      1  0.4995790000000  0.4927990000000  0.5615050000000 1.0
C      1  0.5342060000000  0.5615920000000  0.4543320000000 1.0
C      1  0.5526350000000  0.5098000000000  0.4611020000000 1.0
END
