TITL C-38197-8510-468 -0.000297147571628376 125000 -345.351341385662 0 0 60 (C3) n - 1
REM
REM in /home/bkarasulu/CARBON/AIRSS/Generating-Clusters/EDIP-Nigel-Params/Higher-Symm/Box-15A/Only-C60/SD-CG/FIRE-HFTN
REM
REM
REM
REM
REM
REM ./C.cell (414f73aa93bd7a1190c7fd0f31ff2f98)
REM
REM compiler GCC version 9.2.1 20190827 (Red Hat 9.2.1-1)
REM options -cpp -mtune=generic -march=x86-64 -g -O0 -fpre-include=/usr/include/finclude/math-vector-fortran.h
REM seed -1842617017 402356946 1913895626 -460240694 1286409083 -1474919133 -328048926 -496100576 -1413938648 -2018918982 -558623204 -197976959 -1049094524 371165535 449936716 -643893195 -1518544941 49505623 1449864214 1954358995 -451836907 1330062437 -1892999427 -663206699 -2004963402 -488868608 928047034 -13665230 288822859 2062819276 -2034276469 -1971944665 -1572953849
REM
CELL 1.54180   50.00000   50.00000   50.00000   90.00000   90.00000   90.00000
LATT -1
SFAC C  
C      1  0.5014630000000  0.4227080000000  0.5653220000000 1.0
C      1  0.5014630000000  0.5952170000000  0.5342760000000 1.0
C      1  0.5014630000000  0.4820750000000  0.4004020000000 1.0
C      1  0.4611560000000  0.4693990000000  0.4255220000000 1.0
C      1  0.4611560000000  0.4508010000000  0.5637400000000 1.0
C      1  0.4611560000000  0.5798000000000  0.5107370000000 1.0
C      1  0.5367230000000  0.4799660000000  0.5304200000000 1.0
C      1  0.5367230000000  0.5363620000000  0.5021400000000 1.0
C      1  0.5367230000000  0.4836720000000  0.4674400000000 1.0
C      1  0.5567440000000  0.5442030000000  0.5178780000000 1.0
C      1  0.5567440000000  0.4933810000000  0.4527800000000 1.0
C      1  0.5567430000000  0.4624160000000  0.5293420000000 1.0
C      1  0.4889610000000  0.5466380000000  0.4957360000000 1.0
C      1  0.4889610000000  0.4729880000000  0.4617430000000 1.0
C      1  0.4889610000000  0.4803740000000  0.5425220000000 1.0
C      1  0.5160240000000  0.4214510000000  0.5416930000000 1.0
C      1  0.5160250000000  0.5753820000000  0.5471790000000 1.0
C      1  0.5160250000000  0.5031670000000  0.4111280000000 1.0
C      1  0.4472350000000  0.4971510000000  0.5630310000000 1.0
C      1  0.4472350000000  0.5560110000000  0.4709520000000 1.0
C      1  0.4472350000000  0.4468380000000  0.4660170000000 1.0
C      1  0.4690690000000  0.4538260000000  0.4500640000000 1.0
C      1  0.4690690000000  0.4798420000000  0.5649560000000 1.0
C      1  0.4690690000000  0.5663330000000  0.4849800000000 1.0
C      1  0.5066710000000  0.5140780000000  0.4374990000000 1.0
C      1  0.5066710000000  0.4388340000000  0.5190580000000 1.0
C      1  0.5066710000000  0.5470880000000  0.5434420000000 1.0
C      1  0.4835680000000  0.4564780000000  0.5260840000000 1.0
C      1  0.4835680000000  0.5443500000000  0.5246490000000 1.0
C      1  0.4835680000000  0.4991720000000  0.4492670000000 1.0
C      1  0.5162360000000  0.4906450000000  0.5454790000000 1.0
C      1  0.5162360000000  0.5440630000000  0.4853620000000 1.0
C      1  0.5162360000000  0.4652920000000  0.4691590000000 1.0
C      1  0.4292880000000  0.5025580000000  0.5439970000000 1.0
C      1  0.4292880000000  0.5368240000000  0.4757860000000 1.0
C      1  0.4292880000000  0.4606180000000  0.4802170000000 1.0
C      1  0.5890190000000  0.5671560000000  0.5431180000000 1.0
C      1  0.5890190000000  0.5037630000000  0.4202820000000 1.0
C      1  0.5890190000000  0.4290810000000  0.5366000000000 1.0
C      1  0.4796510000000  0.5993910000000  0.5190260000000 1.0
C      1  0.4796510000000  0.4667810000000  0.4044120000000 1.0
C      1  0.4796510000000  0.4338280000000  0.5765620000000 1.0
C      1  0.4599740000000  0.4969080000000  0.4335940000000 1.0
C      1  0.4599740000000  0.4440370000000  0.5358810000000 1.0
C      1  0.4599740000000  0.5590550000000  0.5305250000000 1.0
C      1  0.4275170000000  0.4873290000000  0.4877650000000 1.0
C      1  0.4275170000000  0.4957400000000  0.5170910000000 1.0
C      1  0.4275170000000  0.5169310000000  0.4951440000000 1.0
C      1  0.5637370000000  0.4366930000000  0.5361040000000 1.0
C      1  0.5637370000000  0.5629200000000  0.5367730000000 1.0
C      1  0.5637370000000  0.5003860000000  0.4271230000000 1.0
C      1  0.5022310000000  0.5428930000000  0.4373720000000 1.0
C      1  0.5022310000000  0.4243160000000  0.4941670000000 1.0
C      1  0.5022310000000  0.5327910000000  0.5684610000000 1.0
C      1  0.5212300000000  0.5149430000000  0.5592630000000 1.0
C      1  0.5212300000000  0.5438520000000  0.4574270000000 1.0
C      1  0.5212300000000  0.4412050000000  0.4833100000000 1.0
C      1  0.5435050000000  0.5026860000000  0.4085560000000 1.0
C      1  0.5435050000000  0.4194640000000  0.5433960000000 1.0
C      1  0.5435050000000  0.5778500000000  0.5480480000000 1.0
END
