TITL C-38184-643-512 2.29620649860301e-06 125000 -375.016031631503 0 0 60 (C3) n - 1
REM
REM in /home/bkarasulu/CARBON/AIRSS/Generating-Clusters/EDIP-Nigel-Params/Higher-Symm/Box-15A/Only-C60/SD-CG/FIRE-HFTN
REM
REM
REM
REM
REM
REM ./C.cell (414f73aa93bd7a1190c7fd0f31ff2f98)
REM
REM compiler GCC version 9.2.1 20190827 (Red Hat 9.2.1-1)
REM options -cpp -mtune=generic -march=x86-64 -g -O0 -fpre-include=/usr/include/finclude/math-vector-fortran.h
REM seed 2041321981 -867433541 -1169867736 1454050553 676806724 -412810393 754895582 -1354228792 2031278637 1428516821 -873863392 1717288278 -1710464861 645056105 -1980110989 -229739880 1233393029 1250308519 215302624 1132735397 -298701973 -621002833 816317763 936064619 -132247541 610233775 -709580952 314132942 -1545549782 -1331753657 -674350290 -140741966 1486627371
REM
CELL 1.54180   50.00000   50.00000   50.00000   90.00000   90.00000   90.00000
LATT -1
SFAC C  
C      1  0.5142750000000  0.4272590000000  0.5033100000000 1.0
C      1  0.5142750000000  0.5335050000000  0.4353490000000 1.0
C      1  0.5142750000000  0.5392370000000  0.5613410000000 1.0
C      1  0.4414650000000  0.5206430000000  0.4794970000000 1.0
C      1  0.4414650000000  0.5074340000000  0.5281290000000 1.0
C      1  0.4414650000000  0.4719230000000  0.4923740000000 1.0
C      1  0.5035730000000  0.4970730000000  0.5773790000000 1.0
C      1  0.5035730000000  0.4344520000000  0.4587750000000 1.0
C      1  0.5035730000000  0.5684760000000  0.4638460000000 1.0
C      1  0.5604250000000  0.5209090000000  0.4409230000000 1.0
C      1  0.5604250000000  0.5407080000000  0.5476460000000 1.0
C      1  0.5604250000000  0.4383830000000  0.5114310000000 1.0
C      1  0.4845890000000  0.5073460000000  0.5364160000000 1.0
C      1  0.4845890000000  0.4647890000000  0.4881530000000 1.0
C      1  0.4845890000000  0.5278650000000  0.4754300000000 1.0
C      1  0.5073180000000  0.4837680000000  0.4824750000000 1.0
C      1  0.5073180000000  0.5232930000000  0.4947050000000 1.0
C      1  0.5073180000000  0.4929390000000  0.5228190000000 1.0
C      1  0.5013070000000  0.4635630000000  0.5333680000000 1.0
C      1  0.5013070000000  0.4893210000000  0.4517610000000 1.0
C      1  0.5013070000000  0.5471160000000  0.5148710000000 1.0
C      1  0.5335950000000  0.5308480000000  0.4797950000000 1.0
C      1  0.5335950000000  0.5020740000000  0.5368170000000 1.0
C      1  0.5335950000000  0.4670780000000  0.4833880000000 1.0
C      1  0.4546380000000  0.4570060000000  0.5367460000000 1.0
C      1  0.4546380000000  0.4896740000000  0.4443930000000 1.0
C      1  0.4546380000000  0.5533200000000  0.5188610000000 1.0
C      1  0.4785330000000  0.4714880000000  0.4420980000000 1.0
C      1  0.4785330000000  0.5644010000000  0.5042590000000 1.0
C      1  0.4785330000000  0.4641110000000  0.5536440000000 1.0
C      1  0.5277310000000  0.4869380000000  0.4375290000000 1.0
C      1  0.5277310000000  0.5606330000000  0.5199240000000 1.0
C      1  0.5277310000000  0.4524290000000  0.5425470000000 1.0
C      1  0.5464900000000  0.4816700000000  0.4603680000000 1.0
C      1  0.5464900000000  0.5434870000000  0.5039420000000 1.0
C      1  0.5464900000000  0.4748430000000  0.5356900000000 1.0
C      1  0.4792040000000  0.5583830000000  0.4749620000000 1.0
C      1  0.4792040000000  0.4924920000000  0.5630810000000 1.0
C      1  0.4792040000000  0.4491240000000  0.4619580000000 1.0
C      1  0.4511800000000  0.5375330000000  0.4572310000000 1.0
C      1  0.4511800000000  0.5182720000000  0.5538890000000 1.0
C      1  0.4511800000000  0.4441950000000  0.4888800000000 1.0
C      1  0.4631760000000  0.5179990000000  0.4365860000000 1.0
C      1  0.4631760000000  0.5459180000000  0.5472950000000 1.0
C      1  0.4631760000000  0.4360820000000  0.5161190000000 1.0
C      1  0.5544840000000  0.4662760000000  0.5078230000000 1.0
C      1  0.5544840000000  0.5100870000000  0.4668820000000 1.0
C      1  0.5544830000000  0.5236370000000  0.5252940000000 1.0
C      1  0.5359020000000  0.5560150000000  0.5487730000000 1.0
C      1  0.5359030000000  0.4297540000000  0.5241240000000 1.0
C      1  0.5359030000000  0.5142310000000  0.4271030000000 1.0
C      1  0.4916750000000  0.4461660000000  0.5108560000000 1.0
C      1  0.4916750000000  0.5175160000000  0.4479500000000 1.0
C      1  0.4916750000000  0.5363180000000  0.5411940000000 1.0
C      1  0.5242450000000  0.4379800000000  0.4774710000000 1.0
C      1  0.5242450000000  0.5505200000000  0.4575540000000 1.0
C      1  0.5242450000000  0.5114990000000  0.5649750000000 1.0
C      1  0.4461960000000  0.4798480000000  0.5197750000000 1.0
C      1  0.4461960000000  0.4929500000000  0.4726600000000 1.0
C      1  0.4461960000000  0.5272020000000  0.5075640000000 1.0
END
