TITL C-38196-2854-79 9.60446698299363e-06 125000 -357.701036354121 0 0 60 (C2) n - 1
REM
REM in /home/bkarasulu/CARBON/AIRSS/Generating-Clusters/EDIP-Nigel-Params/Higher-Symm/Box-15A/Only-C60/SD-CG/FIRE-HFTN
REM
REM
REM
REM
REM
REM ./C.cell (414f73aa93bd7a1190c7fd0f31ff2f98)
REM
REM compiler GCC version 9.2.1 20190827 (Red Hat 9.2.1-1)
REM options -cpp -mtune=generic -march=x86-64 -g -O0 -fpre-include=/usr/include/finclude/math-vector-fortran.h
REM seed 1605852688 514257875 -1715411377 -1740501901 1279609889 1424754056 231105687 1184090401 -125659537 881389613 -474172946 -997306343 622673627 405197538 -816755569 1930923365 -1775997277 677372667 -347593362 900571318 -402411135 2027477304 -1852715558 -1893699535 -379892960 -369129804 -1350836828 119718756 847081662 1053726864 378912185 -1696371423 1880880975
REM
CELL 1.54180   50.00000   50.00000   50.00000   90.00000   90.00000   90.00000
LATT -1
SFAC C  
C      1  0.4809450000000  0.4824140000000  0.5162660000000 1.0
C      1  0.5190550000000  0.5175860000000  0.5162660000000 1.0
C      1  0.5194850000000  0.4861430000000  0.5130410000000 1.0
C      1  0.4805150000000  0.5138570000000  0.5130410000000 1.0
C      1  0.5124050000000  0.5631310000000  0.5656330000000 1.0
C      1  0.4875950000000  0.4368690000000  0.5656330000000 1.0
C      1  0.4856960000000  0.5652260000000  0.5632370000000 1.0
C      1  0.5143040000000  0.4347740000000  0.5632370000000 1.0
C      1  0.4321240000000  0.4792860000000  0.4814690000000 1.0
C      1  0.5678760000000  0.5207140000000  0.4814690000000 1.0
C      1  0.5717740000000  0.4822390000000  0.4806820000000 1.0
C      1  0.4282260000000  0.5177610000000  0.4806820000000 1.0
C      1  0.5522490000000  0.5439440000000  0.5473690000000 1.0
C      1  0.4477510000000  0.4560560000000  0.5473690000000 1.0
C      1  0.4476600000000  0.5412070000000  0.5445720000000 1.0
C      1  0.5523400000000  0.4587930000000  0.5445720000000 1.0
C      1  0.4879140000000  0.4297250000000  0.4904030000000 1.0
C      1  0.5120860000000  0.5702750000000  0.4904030000000 1.0
C      1  0.5152670000000  0.4324920000000  0.4896970000000 1.0
C      1  0.4847330000000  0.5675080000000  0.4896970000000 1.0
C      1  0.4716870000000  0.5416560000000  0.5582760000000 1.0
C      1  0.5283130000000  0.4583440000000  0.5582760000000 1.0
C      1  0.5290900000000  0.5411590000000  0.5623220000000 1.0
C      1  0.4709100000000  0.4588410000000  0.5623220000000 1.0
C      1  0.4845980000000  0.4842560000000  0.5600180000000 1.0
C      1  0.5154020000000  0.5157440000000  0.5600180000000 1.0
C      1  0.5146290000000  0.4835370000000  0.5616430000000 1.0
C      1  0.4853710000000  0.5164630000000  0.5616430000000 1.0
C      1  0.5307290000000  0.4696330000000  0.4619350000000 1.0
C      1  0.4692710000000  0.5303670000000  0.4619350000000 1.0
C      1  0.4744380000000  0.4736490000000  0.4576100000000 1.0
C      1  0.5255620000000  0.5263510000000  0.4576100000000 1.0
C      1  0.4858590000000  0.5360160000000  0.4369080000000 1.0
C      1  0.5141410000000  0.4639840000000  0.4369080000000 1.0
C      1  0.5059260000000  0.5139510000000  0.4361620000000 1.0
C      1  0.4940740000000  0.4860490000000  0.4361620000000 1.0
C      1  0.5244530000000  0.5541230000000  0.4486620000000 1.0
C      1  0.4755470000000  0.4458770000000  0.4486620000000 1.0
C      1  0.5001570000000  0.5605130000000  0.4370790000000 1.0
C      1  0.4998430000000  0.4394870000000  0.4370790000000 1.0
C      1  0.5576210000000  0.5425100000000  0.4986210000000 1.0
C      1  0.4423790000000  0.4574900000000  0.4986210000000 1.0
C      1  0.4405060000000  0.5400880000000  0.4961250000000 1.0
C      1  0.5594940000000  0.4599120000000  0.4961250000000 1.0
C      1  0.5127120000000  0.5267390000000  0.4860020000000 1.0
C      1  0.4872880000000  0.4732610000000  0.4860020000000 1.0
C      1  0.4859760000000  0.5171730000000  0.4830950000000 1.0
C      1  0.5140240000000  0.4828270000000  0.4830950000000 1.0
C      1  0.5558620000000  0.4858580000000  0.4567500000000 1.0
C      1  0.4441380000000  0.5141420000000  0.4567500000000 1.0
C      1  0.4464640000000  0.4848310000000  0.4571550000000 1.0
C      1  0.5535360000000  0.5151690000000  0.4571550000000 1.0
C      1  0.5386710000000  0.5621860000000  0.4876480000000 1.0
C      1  0.4613290000000  0.4378140000000  0.4876480000000 1.0
C      1  0.4619250000000  0.5544510000000  0.4782530000000 1.0
C      1  0.5380750000000  0.4455490000000  0.4782530000000 1.0
C      1  0.4535280000000  0.5282990000000  0.5200700000000 1.0
C      1  0.5464720000000  0.4717010000000  0.5200700000000 1.0
C      1  0.5470480000000  0.5299670000000  0.5232980000000 1.0
C      1  0.4529520000000  0.4700330000000  0.5232980000000 1.0
END
