TITL C-38195-9455-449 -7.65213996941428e-08 125000 -387.437124566223 0 0 60 (D3d) n - 1
REM
REM in /home/bkarasulu/CARBON/AIRSS/Generating-Clusters/EDIP-Nigel-Params/Higher-Symm/Box-15A/Only-C60/SD-CG/FIRE-HFTN
REM
REM
REM
REM
REM
REM ./C.cell (414f73aa93bd7a1190c7fd0f31ff2f98)
REM
REM compiler GCC version 9.2.1 20190827 (Red Hat 9.2.1-1)
REM options -cpp -mtune=generic -march=x86-64 -g -O0 -fpre-include=/usr/include/finclude/math-vector-fortran.h
REM seed 1993649112 -939256208 -272042071 435668858 -11207528 1520437723 611159043 919256956 994979223 -1900259836 1670861959 -1872952741 239797964 -1801951400 -1550094225 -2134416541 1729841644 -1940683529 1697761749 837053384 654683802 -775247985 1719665861 679181255 620103332 -1298022291 985230479 1591288857 1574887330 -124891681 -8666704 1769206440 -1230268156
REM
CELL 1.54180   50.00000   50.00000   50.00000   90.00000   90.00000   90.00000
LATT -1
SFAC C  
C      1  0.4452760000000  0.4965490000000  0.4691530000000 1.0
C      1  0.4452840000000  0.4716440000000  0.4873420000000 1.0
C      1  0.4452920000000  0.4749890000000  0.5184290000000 1.0
C      1  0.4452920000000  0.5031940000000  0.5309030000000 1.0
C      1  0.4452840000000  0.5284430000000  0.5124630000000 1.0
C      1  0.4452760000000  0.5251440000000  0.4817990000000 1.0
C      1  0.5547080000000  0.4968060000000  0.4690970000000 1.0
C      1  0.5547160000000  0.4715570000000  0.4875370000000 1.0
C      1  0.5547240000000  0.4748560000000  0.5182010000000 1.0
C      1  0.5547240000000  0.5034510000000  0.5308470000000 1.0
C      1  0.5547160000000  0.5283560000000  0.5126580000000 1.0
C      1  0.5547080000000  0.5250110000000  0.4815710000000 1.0
C      1  0.4867650000000  0.5175970000000  0.4602110000000 1.0
C      1  0.4847640000000  0.4692420000000  0.4578910000000 1.0
C      1  0.4867840000000  0.4567380000000  0.5046590000000 1.0
C      1  0.4847870000000  0.4789060000000  0.5476960000000 1.0
C      1  0.4867840000000  0.5256600000000  0.5351410000000 1.0
C      1  0.4847640000000  0.5518470000000  0.4944250000000 1.0
C      1  0.5152130000000  0.5210940000000  0.4523040000000 1.0
C      1  0.5132160000000  0.4743400000000  0.4648590000000 1.0
C      1  0.5152360000000  0.4481530000000  0.5055750000000 1.0
C      1  0.5132350000000  0.4824030000000  0.5397890000000 1.0
C      1  0.5152360000000  0.5307580000000  0.5421090000000 1.0
C      1  0.5132160000000  0.5432620000000  0.4953410000000 1.0
C      1  0.5296370000000  0.5388050000000  0.4714910000000 1.0
C      1  0.5296370000000  0.4949840000000  0.4521100000000 1.0
C      1  0.5296500000000  0.4559200000000  0.4806400000000 1.0
C      1  0.5296620000000  0.4610470000000  0.5282800000000 1.0
C      1  0.5296620000000  0.5052850000000  0.5478460000000 1.0
C      1  0.5296500000000  0.5439800000000  0.5195860000000 1.0
C      1  0.4703380000000  0.5389530000000  0.4717200000000 1.0
C      1  0.4703380000000  0.4947150000000  0.4521540000000 1.0
C      1  0.4703500000000  0.4560200000000  0.4804140000000 1.0
C      1  0.4703630000000  0.4611950000000  0.5285090000000 1.0
C      1  0.4703630000000  0.5050160000000  0.5478900000000 1.0
C      1  0.4703500000000  0.5440800000000  0.5193600000000 1.0
C      1  0.5937020000000  0.5479580000000  0.4948160000000 1.0
C      1  0.5938490000000  0.5195600000000  0.4557740000000 1.0
C      1  0.5937020000000  0.4715690000000  0.4610310000000 1.0
C      1  0.5938700000000  0.4519580000000  0.5051460000000 1.0
C      1  0.5937230000000  0.4805050000000  0.5440780000000 1.0
C      1  0.5938700000000  0.5285160000000  0.5390050000000 1.0
C      1  0.4061300000000  0.5480420000000  0.4948540000000 1.0
C      1  0.4062770000000  0.5194950000000  0.4559220000000 1.0
C      1  0.4061300000000  0.4714840000000  0.4609950000000 1.0
C      1  0.4062980000000  0.4520420000000  0.5051840000000 1.0
C      1  0.4061510000000  0.4804400000000  0.5442260000000 1.0
C      1  0.4062980000000  0.5284310000000  0.5389690000000 1.0
C      1  0.4196910000000  0.4628490000000  0.5272240000000 1.0
C      1  0.4196910000000  0.5048550000000  0.5458020000000 1.0
C      1  0.4196790000000  0.5421190000000  0.5185860000000 1.0
C      1  0.4196680000000  0.5372050000000  0.4729190000000 1.0
C      1  0.4196670000000  0.4950040000000  0.4542540000000 1.0
C      1  0.4196790000000  0.4579120000000  0.4813440000000 1.0
C      1  0.5803320000000  0.4627950000000  0.5270810000000 1.0
C      1  0.5803330000000  0.5049960000000  0.5457460000000 1.0
C      1  0.5803210000000  0.5420880000000  0.5186560000000 1.0
C      1  0.5803090000000  0.5371510000000  0.4727760000000 1.0
C      1  0.5803090000000  0.4951450000000  0.4541980000000 1.0
C      1  0.5803210000000  0.4578810000000  0.4814140000000 1.0
END
