TITL C-38198-1686-95 1.11961282109851e-06 125000 -360.318210327861 0 0 60 (C2) n - 1
REM
REM in /home/bkarasulu/CARBON/AIRSS/Generating-Clusters/EDIP-Nigel-Params/Higher-Symm/Box-15A/Only-C60/SD-CG/FIRE-HFTN
REM
REM
REM
REM
REM
REM ./C.cell (414f73aa93bd7a1190c7fd0f31ff2f98)
REM
REM compiler GCC version 9.2.1 20190827 (Red Hat 9.2.1-1)
REM options -cpp -mtune=generic -march=x86-64 -g -O0 -fpre-include=/usr/include/finclude/math-vector-fortran.h
REM seed -382403731 2021827474 -1994197045 -2422901 1876108728 -2052978183 2060575122 1796909047 -667448874 -536319016 1886267568 1214611007 -966444870 1809310188 149861189 -1758470890 -1343331928 -433893698 882386471 -573626399 1209235411 31427866 -1151786068 2142014279 -1494783069 2052978426 908200508 -217216776 -1193887399 -1896920618 1102447273 1960418540 -1909235535
REM
CELL 1.54180   50.00000   50.00000   50.00000   90.00000   90.00000   90.00000
LATT -1
SFAC C  
C      1  0.4871360000000  0.4868750000000  0.4742900000000 1.0
C      1  0.4825650000000  0.4882010000000  0.5234630000000 1.0
C      1  0.4844270000000  0.5300970000000  0.4970560000000 1.0
C      1  0.5128640000000  0.4868740000000  0.5257100000000 1.0
C      1  0.5174340000000  0.4882010000000  0.4765360000000 1.0
C      1  0.5155730000000  0.5300970000000  0.5029450000000 1.0
C      1  0.5235870000000  0.5148220000000  0.5320040000000 1.0
C      1  0.5261120000000  0.5163830000000  0.4789180000000 1.0
C      1  0.5273970000000  0.4744560000000  0.5015730000000 1.0
C      1  0.4764140000000  0.5148230000000  0.4679960000000 1.0
C      1  0.4738880000000  0.5163830000000  0.5210820000000 1.0
C      1  0.4726030000000  0.4744570000000  0.4984260000000 1.0
C      1  0.4704140000000  0.5351350000000  0.5438130000000 1.0
C      1  0.4886900000000  0.5292510000000  0.4439950000000 1.0
C      1  0.4725920000000  0.4446040000000  0.5047200000000 1.0
C      1  0.5295870000000  0.5351350000000  0.4561870000000 1.0
C      1  0.5113100000000  0.5292500000000  0.5560050000000 1.0
C      1  0.5274070000000  0.4446030000000  0.4952790000000 1.0
C      1  0.5219220000000  0.4719990000000  0.4505900000000 1.0
C      1  0.5213480000000  0.4687060000000  0.5594150000000 1.0
C      1  0.5268640000000  0.5573830000000  0.5047310000000 1.0
C      1  0.4780780000000  0.4719990000000  0.5494100000000 1.0
C      1  0.4786520000000  0.4687070000000  0.4405850000000 1.0
C      1  0.4731360000000  0.5573830000000  0.4952690000000 1.0
C      1  0.4991630000000  0.4504170000000  0.5466870000000 1.0
C      1  0.5187650000000  0.5680540000000  0.5293890000000 1.0
C      1  0.5102990000000  0.4876310000000  0.4281480000000 1.0
C      1  0.5008370000000  0.4504180000000  0.4533120000000 1.0
C      1  0.4812360000000  0.5680550000000  0.4706120000000 1.0
C      1  0.4897010000000  0.4876300000000  0.5718520000000 1.0
C      1  0.4995100000000  0.5547220000000  0.4537530000000 1.0
C      1  0.5015690000000  0.4374660000000  0.4798690000000 1.0
C      1  0.4894260000000  0.5158360000000  0.5700280000000 1.0
C      1  0.5004900000000  0.5547220000000  0.5462480000000 1.0
C      1  0.4984300000000  0.4374660000000  0.5201300000000 1.0
C      1  0.5105750000000  0.5158360000000  0.4299720000000 1.0
C      1  0.4277270000000  0.4864020000000  0.5350700000000 1.0
C      1  0.4348240000000  0.5239290000000  0.5021360000000 1.0
C      1  0.4360300000000  0.4758410000000  0.4860860000000 1.0
C      1  0.5722720000000  0.4864020000000  0.4649300000000 1.0
C      1  0.5651760000000  0.5239280000000  0.4978640000000 1.0
C      1  0.5639700000000  0.4758400000000  0.5139140000000 1.0
C      1  0.5695830000000  0.5151990000000  0.4703660000000 1.0
C      1  0.5729240000000  0.4661490000000  0.4871500000000 1.0
C      1  0.5695550000000  0.5048190000000  0.5199440000000 1.0
C      1  0.4304170000000  0.5152000000000  0.5296340000000 1.0
C      1  0.4270760000000  0.4661500000000  0.5128500000000 1.0
C      1  0.4304450000000  0.5048210000000  0.4800560000000 1.0
C      1  0.5481520000000  0.4783910000000  0.5494140000000 1.0
C      1  0.5551110000000  0.5535050000000  0.4947200000000 1.0
C      1  0.5495340000000  0.4611350000000  0.4504830000000 1.0
C      1  0.4518480000000  0.4783930000000  0.4505860000000 1.0
C      1  0.4448890000000  0.5535050000000  0.5052810000000 1.0
C      1  0.4504660000000  0.4611350000000  0.5495160000000 1.0
C      1  0.4489910000000  0.5068960000000  0.4577610000000 1.0
C      1  0.4468040000000  0.4457600000000  0.5235980000000 1.0
C      1  0.4448960000000  0.5499360000000  0.5360890000000 1.0
C      1  0.5510090000000  0.5068950000000  0.5422390000000 1.0
C      1  0.5531950000000  0.4457590000000  0.4764020000000 1.0
C      1  0.5551050000000  0.5499350000000  0.4639120000000 1.0
END
