TITL C-38195-9455-490 0.00199642295508633 125000 -354.052188043766 0 0 60 (C1) n - 1
REM
REM in /home/bkarasulu/CARBON/AIRSS/Generating-Clusters/EDIP-Nigel-Params/Higher-Symm/Box-15A/Only-C60/SD-CG/FIRE-HFTN
REM
REM
REM
REM
REM
REM ./C.cell (414f73aa93bd7a1190c7fd0f31ff2f98)
REM
REM compiler GCC version 9.2.1 20190827 (Red Hat 9.2.1-1)
REM options -cpp -mtune=generic -march=x86-64 -g -O0 -fpre-include=/usr/include/finclude/math-vector-fortran.h
REM seed 35919387 1286404396 -1120761530 1817366188 -1154128356 -1096002544 -1582778228 355373587 1345187047 -689840774 1306001168 171628426 -1244663605 -2113969658 1590962780 -1309706011 -19512120 2053385452 -509028710 -1067757611 -1834166755 1152439089 -610375287 393287758 -1306178216 -756437720 87925144 2002578180 -1874243942 638392065 -811875597 1409575542 2121141616
REM
CELL 1.54180   50.00000   50.00000   50.00000   90.00000   90.00000   90.00000
LATT -1
SFAC C  
C      1  0.4941510000000  0.4236140000000  0.4784420000000 1.0
C      1  0.4659590000000  0.4309080000000  0.4828260000000 1.0
C      1  0.4298710000000  0.4748570000000  0.5007270000000 1.0
C      1  0.4264200000000  0.5178530000000  0.4813610000000 1.0
C      1  0.4391900000000  0.5420250000000  0.4910140000000 1.0
C      1  0.4752270000000  0.5798810000000  0.4923710000000 1.0
C      1  0.5281910000000  0.5749660000000  0.4979150000000 1.0
C      1  0.5597280000000  0.5434540000000  0.4788200000000 1.0
C      1  0.5702110000000  0.5173360000000  0.4882090000000 1.0
C      1  0.5727190000000  0.4673920000000  0.4888180000000 1.0
C      1  0.5368340000000  0.4313460000000  0.4979640000000 1.0
C      1  0.5760260000000  0.5189420000000  0.5167170000000 1.0
C      1  0.5738100000000  0.4737770000000  0.5155000000000 1.0
C      1  0.5485770000000  0.4378830000000  0.5235180000000 1.0
C      1  0.5085060000000  0.4244960000000  0.5049840000000 1.0
C      1  0.4621980000000  0.4338600000000  0.5107130000000 1.0
C      1  0.4324020000000  0.4625720000000  0.5263210000000 1.0
C      1  0.4242270000000  0.5024620000000  0.5052560000000 1.0
C      1  0.4352900000000  0.5430280000000  0.5195920000000 1.0
C      1  0.4700290000000  0.5770010000000  0.5192680000000 1.0
C      1  0.5173400000000  0.5801590000000  0.5241960000000 1.0
C      1  0.5510850000000  0.5561440000000  0.5043170000000 1.0
C      1  0.4664120000000  0.4563500000000  0.4683180000000 1.0
C      1  0.4517120000000  0.4782330000000  0.4805570000000 1.0
C      1  0.4496170000000  0.5051330000000  0.4682180000000 1.0
C      1  0.4664970000000  0.5359700000000  0.4805210000000 1.0
C      1  0.4847650000000  0.5584010000000  0.4760020000000 1.0
C      1  0.5135100000000  0.5538430000000  0.4813840000000 1.0
C      1  0.5329260000000  0.5361640000000  0.4674300000000 1.0
C      1  0.5450060000000  0.5022380000000  0.4786040000000 1.0
C      1  0.5500420000000  0.4734440000000  0.4731980000000 1.0
C      1  0.5289990000000  0.4537480000000  0.4789130000000 1.0
C      1  0.5034420000000  0.4482820000000  0.4647960000000 1.0
C      1  0.5453550000000  0.4867850000000  0.5684520000000 1.0
C      1  0.5301090000000  0.4651220000000  0.5607960000000 1.0
C      1  0.5063130000000  0.4615020000000  0.5742750000000 1.0
C      1  0.4806040000000  0.4680230000000  0.5771050000000 1.0
C      1  0.4590690000000  0.4796550000000  0.5644000000000 1.0
C      1  0.4534090000000  0.5057900000000  0.5709460000000 1.0
C      1  0.4611830000000  0.5298630000000  0.5600800000000 1.0
C      1  0.4845050000000  0.5407440000000  0.5701750000000 1.0
C      1  0.5097330000000  0.5467800000000  0.5607030000000 1.0
C      1  0.5311380000000  0.5313460000000  0.5690330000000 1.0
C      1  0.5482360000000  0.5122990000000  0.5584060000000 1.0
C      1  0.5033750000000  0.4505070000000  0.5198700000000 1.0
C      1  0.4758000000000  0.4511420000000  0.5281170000000 1.0
C      1  0.4580080000000  0.4742160000000  0.5351820000000 1.0
C      1  0.4605180000000  0.5016340000000  0.5174830000000 1.0
C      1  0.4596220000000  0.5306770000000  0.5302580000000 1.0
C      1  0.4813700000000  0.5500860000000  0.5189030000000 1.0
C      1  0.5100890000000  0.5520630000000  0.5314080000000 1.0
C      1  0.5323830000000  0.5355680000000  0.5175140000000 1.0
C      1  0.5495890000000  0.5129370000000  0.5284770000000 1.0
C      1  0.5459040000000  0.4839990000000  0.5158120000000 1.0
C      1  0.5304960000000  0.4602740000000  0.5312250000000 1.0
C      1  0.5088060000000  0.4990090000000  0.4271150000000 1.0
C      1  0.5087100000000  0.5020690000000  0.4535940000000 1.0
C      1  0.5114020000000  0.4969930000000  0.4017530000000 1.0
C      1  0.5010820000000  0.5016460000000  0.4795280000000 1.0
C      1  0.4840420000000  0.5008160000000  0.5006470000000 1.0
END
