TITL C-38193-7935-490 3.01844307670873e-06 125000 -363.896500532298 0 0 60 (Cs) n - 1
REM
REM in /home/bkarasulu/CARBON/AIRSS/Generating-Clusters/EDIP-Nigel-Params/Higher-Symm/Box-15A/Only-C60/SD-CG/FIRE-HFTN
REM
REM
REM
REM
REM
REM ./C.cell (414f73aa93bd7a1190c7fd0f31ff2f98)
REM
REM compiler GCC version 9.2.1 20190827 (Red Hat 9.2.1-1)
REM options -cpp -mtune=generic -march=x86-64 -g -O0 -fpre-include=/usr/include/finclude/math-vector-fortran.h
REM seed -2058192752 483452768 -1987406352 241590361 -1222863941 -2114505908 911553630 -1857237110 687997254 -1634708207 -1773974921 1257250142 -1964045856 -777003851 -364806543 -1652292063 486017878 1396214448 1680621423 1781474332 -516823193 1632510922 -1116246043 1862207559 -2029819010 -1116448453 -1247902103 -954323872 609390066 -1011969033 -523649132 766820953 1519859494
REM
CELL 1.54180   50.00000   50.00000   50.00000   90.00000   90.00000   90.00000
LATT -1
SFAC C  
C      1  0.5460440000000  0.5253860000000  0.5246720000000 1.0
C      1  0.5460440000000  0.4746140000000  0.5246720000000 1.0
C      1  0.5301150000000  0.5138350000000  0.5043170000000 1.0
C      1  0.5301150000000  0.4861650000000  0.5043170000000 1.0
C      1  0.5146010000000  0.5281040000000  0.4837290000000 1.0
C      1  0.5146010000000  0.4718960000000  0.4837290000000 1.0
C      1  0.4784760000000  0.4847820000000  0.4356530000000 1.0
C      1  0.4784760000000  0.5152180000000  0.4356530000000 1.0
C      1  0.4501240000000  0.5570710000000  0.5065260000000 1.0
C      1  0.4501240000000  0.4429290000000  0.5065260000000 1.0
C      1  0.4646290000000  0.4858460000000  0.5290730000000 1.0
C      1  0.4646290000000  0.5141540000000  0.5290730000000 1.0
C      1  0.4856220000000  0.5290560000000  0.4934060000000 1.0
C      1  0.4856220000000  0.4709440000000  0.4934060000000 1.0
C      1  0.5191520000000  0.5625670000000  0.4689590000000 1.0
C      1  0.5191520000000  0.4374330000000  0.4689590000000 1.0
C      1  0.5046870000000  0.4708070000000  0.4363740000000 1.0
C      1  0.5046870000000  0.5291930000000  0.4363740000000 1.0
C      1  0.5236700000000  0.5164100000000  0.4561170000000 1.0
C      1  0.5236700000000  0.4835900000000  0.4561170000000 1.0
C      1  0.4592200000000  0.4834650000000  0.4809650000000 1.0
C      1  0.4592200000000  0.5165350000000  0.4809650000000 1.0
C      1  0.4757280000000  0.5194700000000  0.5556650000000 1.0
C      1  0.4757280000000  0.4805300000000  0.5556650000000 1.0
C      1  0.4777180000000  0.5487300000000  0.5528950000000 1.0
C      1  0.4777180000000  0.4512700000000  0.5528950000000 1.0
C      1  0.5041450000000  0.5594710000000  0.5464080000000 1.0
C      1  0.5041450000000  0.4405290000000  0.5464080000000 1.0
C      1  0.4574250000000  0.5575540000000  0.5344060000000 1.0
C      1  0.4574250000000  0.4424460000000  0.5344060000000 1.0
C      1  0.4356990000000  0.5187120000000  0.5241220000000 1.0
C      1  0.4356990000000  0.4812880000000  0.5241220000000 1.0
C      1  0.4717200000000  0.5573880000000  0.4589090000000 1.0
C      1  0.4717200000000  0.4426120000000  0.4589090000000 1.0
C      1  0.5515680000000  0.5652580000000  0.5455310000000 1.0
C      1  0.5515680000000  0.4347420000000  0.5455310000000 1.0
C      1  0.5299200000000  0.4495180000000  0.5572510000000 1.0
C      1  0.5299200000000  0.5504820000000  0.5572510000000 1.0
C      1  0.4937580000000  0.5773980000000  0.5017120000000 1.0
C      1  0.4937580000000  0.4226020000000  0.5017120000000 1.0
C      1  0.5034740000000  0.4205430000000  0.5269020000000 1.0
C      1  0.5034740000000  0.5794570000000  0.5269020000000 1.0
C      1  0.4755000000000  0.5580350000000  0.4901170000000 1.0
C      1  0.4755000000000  0.4419650000000  0.4901170000000 1.0
C      1  0.5587500000000  0.4412530000000  0.4931350000000 1.0
C      1  0.5587500000000  0.5587470000000  0.4931350000000 1.0
C      1  0.5500450000000  0.4708340000000  0.4541400000000 1.0
C      1  0.5500450000000  0.5291660000000  0.4541400000000 1.0
C      1  0.5537980000000  0.4475460000000  0.5202450000000 1.0
C      1  0.5537980000000  0.5524540000000  0.5202450000000 1.0
C      1  0.5464870000000  0.5537310000000  0.4682720000000 1.0
C      1  0.5464870000000  0.4462690000000  0.4682720000000 1.0
C      1  0.4593250000000  0.4701440000000  0.4532320000000 1.0
C      1  0.4593250000000  0.5298560000000  0.4532320000000 1.0
C      1  0.4997700000000  0.4432190000000  0.4474670000000 1.0
C      1  0.4997700000000  0.5567810000000  0.4474670000000 1.0
C      1  0.5414070000000  0.5147590000000  0.5515870000000 1.0
C      1  0.5414070000000  0.4852410000000  0.5515870000000 1.0
C      1  0.4374230000000  0.4689010000000  0.4982130000000 1.0
C      1  0.4374230000000  0.5310990000000  0.4982130000000 1.0
END
