TITL C-38195-9455-431 1.91758278097669e-07 125000 -355.854241998328 0 0 60 (C1) n - 1
REM
REM in /home/bkarasulu/CARBON/AIRSS/Generating-Clusters/EDIP-Nigel-Params/Higher-Symm/Box-15A/Only-C60/SD-CG/FIRE-HFTN
REM
REM
REM
REM
REM
REM ./C.cell (414f73aa93bd7a1190c7fd0f31ff2f98)
REM
REM compiler GCC version 9.2.1 20190827 (Red Hat 9.2.1-1)
REM options -cpp -mtune=generic -march=x86-64 -g -O0 -fpre-include=/usr/include/finclude/math-vector-fortran.h
REM seed 177584491 11527323 -652211168 -614677521 -322399953 927732319 2106769097 -52159595 -1284133924 220652440 959215373 1902595100 301467846 1121207094 1767658696 816666387 -2040745671 -1037596556 1984789026 -1635661164 739118596 -809705809 529893697 -1084346584 -859575192 -1117837049 -746805730 -182132188 1321299020 -921814684 955818270 1058834442 586717433
REM
CELL 1.54180   50.00000   50.00000   50.00000   90.00000   90.00000   90.00000
LATT -1
SFAC C  
C      1  0.4327210000000  0.5135540000000  0.4539840000000 1.0
C      1  0.5060160000000  0.4389100000000  0.4394420000000 1.0
C      1  0.4459690000000  0.4318490000000  0.5181080000000 1.0
C      1  0.5665360000000  0.4866010000000  0.4530840000000 1.0
C      1  0.4359480000000  0.4806320000000  0.5528580000000 1.0
C      1  0.5556360000000  0.5066170000000  0.5680120000000 1.0
C      1  0.4808270000000  0.5539950000000  0.4321560000000 1.0
C      1  0.5145530000000  0.5474490000000  0.5632040000000 1.0
C      1  0.4857160000000  0.4500710000000  0.5698280000000 1.0
C      1  0.5502650000000  0.5685080000000  0.5069740000000 1.0
C      1  0.4370080000000  0.5581880000000  0.4953940000000 1.0
C      1  0.5453550000000  0.4322820000000  0.4827480000000 1.0
C      1  0.4429740000000  0.5062720000000  0.5582860000000 1.0
C      1  0.5125250000000  0.4467600000000  0.5671460000000 1.0
C      1  0.4387900000000  0.4413140000000  0.4935130000000 1.0
C      1  0.5610560000000  0.4801700000000  0.5643010000000 1.0
C      1  0.4333850000000  0.4859290000000  0.4547070000000 1.0
C      1  0.5659290000000  0.5135590000000  0.4516590000000 1.0
C      1  0.4870620000000  0.5446070000000  0.5643520000000 1.0
C      1  0.5063690000000  0.5628350000000  0.4354510000000 1.0
C      1  0.4814050000000  0.4477730000000  0.4322550000000 1.0
C      1  0.5488290000000  0.5702210000000  0.4793020000000 1.0
C      1  0.4477580000000  0.5676430000000  0.5186600000000 1.0
C      1  0.5453980000000  0.4302270000000  0.5101640000000 1.0
C      1  0.5253690000000  0.5345210000000  0.5392480000000 1.0
C      1  0.5275970000000  0.5543000000000  0.5164520000000 1.0
C      1  0.5509900000000  0.5191660000000  0.5433550000000 1.0
C      1  0.4785270000000  0.4702380000000  0.5507280000000 1.0
C      1  0.5203050000000  0.4610710000000  0.4490620000000 1.0
C      1  0.4776820000000  0.5274510000000  0.4410980000000 1.0
C      1  0.4716830000000  0.4439930000000  0.5233780000000 1.0
C      1  0.5337010000000  0.4582840000000  0.4759710000000 1.0
C      1  0.4586740000000  0.5489400000000  0.4799490000000 1.0
C      1  0.4479630000000  0.4744670000000  0.5274670000000 1.0
C      1  0.5553960000000  0.4789230000000  0.4776850000000 1.0
C      1  0.4583640000000  0.5234510000000  0.4641800000000 1.0
C      1  0.5210790000000  0.5410240000000  0.4455260000000 1.0
C      1  0.5348260000000  0.5451760000000  0.4722730000000 1.0
C      1  0.5551570000000  0.5233600000000  0.4756230000000 1.0
C      1  0.4785620000000  0.4743130000000  0.4413800000000 1.0
C      1  0.5227050000000  0.4666940000000  0.5489280000000 1.0
C      1  0.4791260000000  0.5344030000000  0.5379730000000 1.0
C      1  0.4614230000000  0.4524360000000  0.4811230000000 1.0
C      1  0.5303430000000  0.4529940000000  0.5205250000000 1.0
C      1  0.4746560000000  0.5588860000000  0.5201850000000 1.0
C      1  0.4596270000000  0.4776900000000  0.4648770000000 1.0
C      1  0.5582590000000  0.4756540000000  0.5361040000000 1.0
C      1  0.4543940000000  0.5175430000000  0.5353400000000 1.0
C      1  0.4857480000000  0.4489210000000  0.4980110000000 1.0
C      1  0.4660280000000  0.5009530000000  0.4839590000000 1.0
C      1  0.5045840000000  0.4863250000000  0.4461390000000 1.0
C      1  0.5127740000000  0.5442500000000  0.4936070000000 1.0
C      1  0.4847030000000  0.5541730000000  0.4934410000000 1.0
C      1  0.5124430000000  0.4621550000000  0.4980520000000 1.0
C      1  0.5492640000000  0.5019530000000  0.4942930000000 1.0
C      1  0.4529990000000  0.4993630000000  0.5115420000000 1.0
C      1  0.5584380000000  0.5009390000000  0.5219300000000 1.0
C      1  0.5039480000000  0.5164260000000  0.4461360000000 1.0
C      1  0.5028040000000  0.5151160000000  0.5325540000000 1.0
C      1  0.5018320000000  0.4884860000000  0.5463180000000 1.0
END
