TITL C-38196-2854-66 -1.86896939898618e-06 125000 -365.651457565981 0 0 60 (C1) n - 1
REM
REM in /home/bkarasulu/CARBON/AIRSS/Generating-Clusters/EDIP-Nigel-Params/Higher-Symm/Box-15A/Only-C60/SD-CG/FIRE-HFTN
REM
REM
REM
REM
REM
REM ./C.cell (414f73aa93bd7a1190c7fd0f31ff2f98)
REM
REM compiler GCC version 9.2.1 20190827 (Red Hat 9.2.1-1)
REM options -cpp -mtune=generic -march=x86-64 -g -O0 -fpre-include=/usr/include/finclude/math-vector-fortran.h
REM seed 1664524843 -1607024442 2091257288 1551089047 -1721908602 346829448 669035863 -2125556274 139724325 -1154094142 1100361515 1761402166 5371448 -760389326 1074289365 891459416 1302943388 195751369 896926864 -1446700988 1280089378 -387978509 -1533647239 60253990 537520936 -791974537 1651503212 -1435941290 -981125248 2587164 -1100024049 -721152684 -718390966
REM
CELL 1.54180   50.00000   50.00000   50.00000   90.00000   90.00000   90.00000
LATT -1
SFAC C  
C      1  0.5532550000000  0.4506220000000  0.4854280000000 1.0
C      1  0.4831430000000  0.5502290000000  0.4486070000000 1.0
C      1  0.4533360000000  0.4855900000000  0.5511140000000 1.0
C      1  0.4458710000000  0.5524880000000  0.4840300000000 1.0
C      1  0.4463090000000  0.4474530000000  0.5171160000000 1.0
C      1  0.5523780000000  0.5475670000000  0.5143460000000 1.0
C      1  0.5161800000000  0.4482750000000  0.4501150000000 1.0
C      1  0.5165220000000  0.5548540000000  0.5531670000000 1.0
C      1  0.4828050000000  0.4456640000000  0.5506100000000 1.0
C      1  0.5500010000000  0.5097480000000  0.5484560000000 1.0
C      1  0.5487890000000  0.4869180000000  0.4528030000000 1.0
C      1  0.4468530000000  0.5136050000000  0.4470170000000 1.0
C      1  0.4723900000000  0.5582220000000  0.4738700000000 1.0
C      1  0.5597610000000  0.4780470000000  0.4779360000000 1.0
C      1  0.4718340000000  0.4683520000000  0.5636650000000 1.0
C      1  0.5330370000000  0.4379430000000  0.4701310000000 1.0
C      1  0.4669280000000  0.4337320000000  0.5306830000000 1.0
C      1  0.5325440000000  0.5599590000000  0.5304800000000 1.0
C      1  0.4370400000000  0.5265910000000  0.4718790000000 1.0
C      1  0.5563470000000  0.5185130000000  0.5204390000000 1.0
C      1  0.4427390000000  0.4747290000000  0.5265650000000 1.0
C      1  0.5169750000000  0.5253190000000  0.5613140000000 1.0
C      1  0.4686390000000  0.5289150000000  0.4363430000000 1.0
C      1  0.5247570000000  0.4745000000000  0.4427210000000 1.0
C      1  0.5253040000000  0.5604220000000  0.4745750000000 1.0
C      1  0.4784670000000  0.5294740000000  0.5612080000000 1.0
C      1  0.5617160000000  0.4652230000000  0.5311950000000 1.0
C      1  0.4751850000000  0.4395620000000  0.4789150000000 1.0
C      1  0.4772730000000  0.5603300000000  0.5221440000000 1.0
C      1  0.5212580000000  0.4444110000000  0.5189470000000 1.0
C      1  0.5226060000000  0.4705150000000  0.5579260000000 1.0
C      1  0.5230290000000  0.5247350000000  0.4397120000000 1.0
C      1  0.4726150000000  0.4692850000000  0.4402910000000 1.0
C      1  0.4424770000000  0.5274320000000  0.5269230000000 1.0
C      1  0.4406320000000  0.4724300000000  0.4755930000000 1.0
C      1  0.5615920000000  0.5316510000000  0.4684080000000 1.0
C      1  0.5521980000000  0.5531830000000  0.4843080000000 1.0
C      1  0.5490780000000  0.4801690000000  0.5514070000000 1.0
C      1  0.4867500000000  0.5548480000000  0.5491420000000 1.0
C      1  0.4477100000000  0.4461780000000  0.4871150000000 1.0
C      1  0.5495630000000  0.4463690000000  0.5142190000000 1.0
C      1  0.4499910000000  0.5525530000000  0.5143620000000 1.0
C      1  0.4565370000000  0.5150130000000  0.5492420000000 1.0
C      1  0.5486880000000  0.5156970000000  0.4490150000000 1.0
C      1  0.4513180000000  0.4840170000000  0.4513900000000 1.0
C      1  0.5118680000000  0.4466170000000  0.5462140000000 1.0
C      1  0.4866760000000  0.4484920000000  0.4535670000000 1.0
C      1  0.5128710000000  0.5497030000000  0.4497980000000 1.0
C      1  0.5233260000000  0.4789800000000  0.5014500000000 1.0
C      1  0.4777500000000  0.4771950000000  0.4857640000000 1.0
C      1  0.5058690000000  0.4821450000000  0.4755380000000 1.0
C      1  0.5417370000000  0.5057820000000  0.4972670000000 1.0
C      1  0.4770060000000  0.4870320000000  0.5142780000000 1.0
C      1  0.4744990000000  0.5163740000000  0.5089740000000 1.0
C      1  0.5022810000000  0.5115350000000  0.4692650000000 1.0
C      1  0.5056700000000  0.4848690000000  0.5263640000000 1.0
C      1  0.5007230000000  0.5309970000000  0.5145170000000 1.0
C      1  0.4744350000000  0.5198910000000  0.4794180000000 1.0
C      1  0.5183080000000  0.5263070000000  0.4896440000000 1.0
C      1  0.5145600000000  0.5127500000000  0.5330730000000 1.0
END
