TITL C-38192-7909-560 2.08218389726422e-06 125000 -363.6822816585 0 0 60 (Ci) n - 1
REM
REM in /home/bkarasulu/CARBON/AIRSS/Generating-Clusters/EDIP-Nigel-Params/Higher-Symm/Box-15A/Only-C60/SD-CG/FIRE-HFTN
REM
REM
REM
REM
REM
REM ./C.cell (414f73aa93bd7a1190c7fd0f31ff2f98)
REM
REM compiler GCC version 9.2.1 20190827 (Red Hat 9.2.1-1)
REM options -cpp -mtune=generic -march=x86-64 -g -O0 -fpre-include=/usr/include/finclude/math-vector-fortran.h
REM seed -907578838 561646583 1381467549 420695697 1116651513 1070315911 -1097990817 2129861480 1929540097 1492813540 803484772 -1476784839 -362816196 694792747 -1775765273 -1759438122 501055178 1894381419 -738876763 -199033462 1958398389 1571052954 -2094373480 2084194240 -4044041 -322675189 -401231920 1298911119 986850382 1624212294 -632973984 1247582520 -1217311344
REM
CELL 1.54180   50.00000   50.00000   50.00000   90.00000   90.00000   90.00000
LATT -1
SFAC C  
C      1  0.5391660000000  0.4476550000000  0.4440130000000 1.0
C      1  0.4608340000000  0.5523450000000  0.5559870000000 1.0
C      1  0.5407600000000  0.5334820000000  0.4604040000000 1.0
C      1  0.4592400000000  0.4665180000000  0.5395960000000 1.0
C      1  0.5763800000000  0.5162580000000  0.5294460000000 1.0
C      1  0.4236200000000  0.4837420000000  0.4705540000000 1.0
C      1  0.4679810000000  0.5481950000000  0.4793570000000 1.0
C      1  0.5320190000000  0.4518050000000  0.5206430000000 1.0
C      1  0.4990950000000  0.5602420000000  0.4602660000000 1.0
C      1  0.5009050000000  0.4397580000000  0.5397340000000 1.0
C      1  0.4774620000000  0.5087020000000  0.5659780000000 1.0
C      1  0.5225380000000  0.4912980000000  0.4340220000000 1.0
C      1  0.4875410000000  0.4464980000000  0.4896940000000 1.0
C      1  0.5124590000000  0.5535020000000  0.5103060000000 1.0
C      1  0.4595750000000  0.4386180000000  0.4955990000000 1.0
C      1  0.5404250000000  0.5613820000000  0.5044010000000 1.0
C      1  0.5564540000000  0.5338160000000  0.5391680000000 1.0
C      1  0.4435460000000  0.4661840000000  0.4608320000000 1.0
C      1  0.5560990000000  0.5592120000000  0.5273940000000 1.0
C      1  0.4439010000000  0.4407880000000  0.4726060000000 1.0
C      1  0.4919270000000  0.5641210000000  0.4888200000000 1.0
C      1  0.5080730000000  0.4358790000000  0.5111800000000 1.0
C      1  0.5259740000000  0.4958460000000  0.5542400000000 1.0
C      1  0.4740260000000  0.5041540000000  0.4457600000000 1.0
C      1  0.4421100000000  0.5345700000000  0.5173830000000 1.0
C      1  0.5578900000000  0.4654300000000  0.4826170000000 1.0
C      1  0.4945790000000  0.5113790000000  0.5273440000000 1.0
C      1  0.5054210000000  0.4886210000000  0.4726560000000 1.0
C      1  0.5361260000000  0.4875180000000  0.4788150000000 1.0
C      1  0.4638740000000  0.5124820000000  0.5211850000000 1.0
C      1  0.4612850000000  0.4973380000000  0.4950880000000 1.0
C      1  0.5387150000000  0.5026620000000  0.5049120000000 1.0
C      1  0.4504740000000  0.4944420000000  0.5429160000000 1.0
C      1  0.5495260000000  0.5055580000000  0.4570840000000 1.0
C      1  0.4498710000000  0.4526190000000  0.5175670000000 1.0
C      1  0.5501290000000  0.5473810000000  0.4824330000000 1.0
C      1  0.4324590000000  0.4879060000000  0.4978940000000 1.0
C      1  0.5675410000000  0.5120940000000  0.5021060000000 1.0
C      1  0.5115900000000  0.5337480000000  0.4563990000000 1.0
C      1  0.4884100000000  0.4662520000000  0.5436010000000 1.0
C      1  0.4694980000000  0.4750690000000  0.4500050000000 1.0
C      1  0.5305020000000  0.5249310000000  0.5499950000000 1.0
C      1  0.5001160000000  0.5179890000000  0.4792210000000 1.0
C      1  0.4998840000000  0.4820110000000  0.5207790000000 1.0
C      1  0.5017200000000  0.5126010000000  0.4353590000000 1.0
C      1  0.4982800000000  0.4873990000000  0.5646410000000 1.0
C      1  0.4832430000000  0.5368540000000  0.5613340000000 1.0
C      1  0.5167570000000  0.4631460000000  0.4386660000000 1.0
C      1  0.4629160000000  0.5187140000000  0.4718640000000 1.0
C      1  0.5370840000000  0.4812860000000  0.5281360000000 1.0
C      1  0.4218510000000  0.4959300000000  0.5347590000000 1.0
C      1  0.5781490000000  0.5040700000000  0.4652410000000 1.0
C      1  0.4872250000000  0.4766690000000  0.4941680000000 1.0
C      1  0.5127750000000  0.5233310000000  0.5058320000000 1.0
C      1  0.5081430000000  0.5440430000000  0.5475360000000 1.0
C      1  0.4918570000000  0.4559570000000  0.4524640000000 1.0
C      1  0.4397260000000  0.5517110000000  0.5393340000000 1.0
C      1  0.5602740000000  0.4482890000000  0.4606660000000 1.0
C      1  0.5800760000000  0.4858120000000  0.4877490000000 1.0
C      1  0.4199240000000  0.5141880000000  0.5122510000000 1.0
END
