TITL C-38187-2739-632 -3.45724041551499e-05 125000 -358.938277664443 0 0 60 (C1) n - 1
REM
REM in /home/bkarasulu/CARBON/AIRSS/Generating-Clusters/EDIP-Nigel-Params/Higher-Symm/Box-15A/Only-C60/SD-CG/FIRE-HFTN
REM
REM
REM
REM
REM
REM ./C.cell (414f73aa93bd7a1190c7fd0f31ff2f98)
REM
REM compiler GCC version 9.2.1 20190827 (Red Hat 9.2.1-1)
REM options -cpp -mtune=generic -march=x86-64 -g -O0 -fpre-include=/usr/include/finclude/math-vector-fortran.h
REM seed -502587271 2118747993 1275668763 -1300586255 192899356 -1663240296 562603037 -835779716 1118517591 611547104 -1647492128 347722145 -1653316806 339919342 -1754942949 -562884893 913672395 -476119304 1516283769 -1203762454 -1531749461 -836117893 -1728626127 -974208600 712136566 -1190270090 69300510 1205580848 579049865 -1890265056 -380384522 -1406429390 2061564437
REM
CELL 1.54180   50.00000   50.00000   50.00000   90.00000   90.00000   90.00000
LATT -1
SFAC C  
C      1  0.5067670000000  0.4506300000000  0.5587970000000 1.0
C      1  0.4627850000000  0.5014890000000  0.4355060000000 1.0
C      1  0.4527360000000  0.4696980000000  0.5402890000000 1.0
C      1  0.5681060000000  0.5103780000000  0.4817350000000 1.0
C      1  0.4466560000000  0.5407960000000  0.4928540000000 1.0
C      1  0.5007630000000  0.5220750000000  0.5091800000000 1.0
C      1  0.5449350000000  0.4421000000000  0.5220410000000 1.0
C      1  0.4608580000000  0.5308720000000  0.4431830000000 1.0
C      1  0.4646630000000  0.4453080000000  0.4820420000000 1.0
C      1  0.4726600000000  0.5589450000000  0.5291480000000 1.0
C      1  0.4608090000000  0.5210030000000  0.4742710000000 1.0
C      1  0.5341850000000  0.5047480000000  0.5400650000000 1.0
C      1  0.4132340000000  0.4825500000000  0.5220370000000 1.0
C      1  0.5460410000000  0.5323400000000  0.5412280000000 1.0
C      1  0.4613120000000  0.4879660000000  0.5182590000000 1.0
C      1  0.4251380000000  0.4665310000000  0.5402960000000 1.0
C      1  0.5055780000000  0.4741390000000  0.4413120000000 1.0
C      1  0.4385460000000  0.5319780000000  0.5419320000000 1.0
C      1  0.4336210000000  0.4975810000000  0.5095180000000 1.0
C      1  0.5325040000000  0.5257880000000  0.4395820000000 1.0
C      1  0.5774950000000  0.4901940000000  0.5283730000000 1.0
C      1  0.5470470000000  0.4691830000000  0.4561430000000 1.0
C      1  0.4320130000000  0.5264160000000  0.5147640000000 1.0
C      1  0.5546550000000  0.4551790000000  0.4988230000000 1.0
C      1  0.5557360000000  0.4844700000000  0.5447550000000 1.0
C      1  0.4662280000000  0.5348240000000  0.5420210000000 1.0
C      1  0.5261530000000  0.5042960000000  0.5109240000000 1.0
C      1  0.5065470000000  0.5230740000000  0.4278940000000 1.0
C      1  0.5145070000000  0.5549740000000  0.5149560000000 1.0
C      1  0.5001760000000  0.5447180000000  0.4672890000000 1.0
C      1  0.5418210000000  0.4484360000000  0.4743450000000 1.0
C      1  0.5035220000000  0.4734760000000  0.4796630000000 1.0
C      1  0.5457180000000  0.5291310000000  0.4879380000000 1.0
C      1  0.5616070000000  0.4913990000000  0.4622210000000 1.0
C      1  0.5224050000000  0.4754080000000  0.5036770000000 1.0
C      1  0.4875360000000  0.5693570000000  0.4829790000000 1.0
C      1  0.5405640000000  0.5475820000000  0.5623970000000 1.0
C      1  0.5008560000000  0.4693310000000  0.5248510000000 1.0
C      1  0.5422240000000  0.5454270000000  0.5146530000000 1.0
C      1  0.5187330000000  0.4297100000000  0.5147480000000 1.0
C      1  0.5130450000000  0.5831190000000  0.5090760000000 1.0
C      1  0.4928970000000  0.4499610000000  0.4460820000000 1.0
C      1  0.4490300000000  0.4601890000000  0.4629780000000 1.0
C      1  0.5815530000000  0.5008510000000  0.5040420000000 1.0
C      1  0.4503960000000  0.4881630000000  0.4588720000000 1.0
C      1  0.4887520000000  0.4335340000000  0.4686300000000 1.0
C      1  0.5018600000000  0.5942820000000  0.4866680000000 1.0
C      1  0.4661830000000  0.4714220000000  0.5644760000000 1.0
C      1  0.5151900000000  0.4364810000000  0.4847210000000 1.0
C      1  0.4920630000000  0.4972930000000  0.4310430000000 1.0
C      1  0.5482040000000  0.4575110000000  0.5453840000000 1.0
C      1  0.4749620000000  0.4725770000000  0.4916500000000 1.0
C      1  0.4648430000000  0.5626960000000  0.5021640000000 1.0
C      1  0.4936800000000  0.4748630000000  0.5677750000000 1.0
C      1  0.5028470000000  0.4985080000000  0.5506350000000 1.0
C      1  0.4812610000000  0.5111630000000  0.5307160000000 1.0
C      1  0.5300790000000  0.5395100000000  0.4642030000000 1.0
C      1  0.4878550000000  0.5434750000000  0.4392220000000 1.0
C      1  0.4981030000000  0.4397120000000  0.5331930000000 1.0
C      1  0.4897580000000  0.5211920000000  0.4817830000000 1.0
END
