TITL C-38192-7909-567 3.53988678161228e-05 125000 -362.146368199065 0 0 60 (C1) n - 1
REM
REM in /home/bkarasulu/CARBON/AIRSS/Generating-Clusters/EDIP-Nigel-Params/Higher-Symm/Box-15A/Only-C60/SD-CG/FIRE-HFTN
REM
REM
REM
REM
REM
REM ./C.cell (414f73aa93bd7a1190c7fd0f31ff2f98)
REM
REM compiler GCC version 9.2.1 20190827 (Red Hat 9.2.1-1)
REM options -cpp -mtune=generic -march=x86-64 -g -O0 -fpre-include=/usr/include/finclude/math-vector-fortran.h
REM seed 172256272 1958267188 -905784575 1586948952 -1940263305 1241242448 407957384 416272956 -1798647777 -1458339521 896640716 1402878746 782245658 315418855 -234722643 612860508 1504430470 -409137179 -1239900924 -1750377082 -2094352115 -491236459 1320022961 1330853215 -592266011 -1989859510 -1304757910 52352661 -1334471402 -1548186448 -992005568 -524635106 -1702483613
REM
CELL 1.54180   50.00000   50.00000   50.00000   90.00000   90.00000   90.00000
LATT -1
SFAC C  
C      1  0.5230050000000  0.6002340000000  0.4836850000000 1.0
C      1  0.5250770000000  0.5874680000000  0.5094260000000 1.0
C      1  0.4548180000000  0.4401810000000  0.5501710000000 1.0
C      1  0.4541690000000  0.4423450000000  0.4494340000000 1.0
C      1  0.4766690000000  0.4582390000000  0.5547350000000 1.0
C      1  0.4761350000000  0.4604120000000  0.4456250000000 1.0
C      1  0.5424630000000  0.5020340000000  0.5498610000000 1.0
C      1  0.5422620000000  0.5026910000000  0.4515150000000 1.0
C      1  0.4470260000000  0.4948540000000  0.5633030000000 1.0
C      1  0.4469250000000  0.4976280000000  0.4386100000000 1.0
C      1  0.4680660000000  0.4799060000000  0.5739030000000 1.0
C      1  0.4676730000000  0.4828190000000  0.4272840000000 1.0
C      1  0.5274690000000  0.5876560000000  0.4593340000000 1.0
C      1  0.5135920000000  0.5957950000000  0.5345110000000 1.0
C      1  0.5162750000000  0.4818990000000  0.5901950000000 1.0
C      1  0.5156770000000  0.4847130000000  0.4104430000000 1.0
C      1  0.4897780000000  0.4955650000000  0.5852750000000 1.0
C      1  0.4894200000000  0.4985450000000  0.4160880000000 1.0
C      1  0.4359100000000  0.4605680000000  0.4854970000000 1.0
C      1  0.4363050000000  0.4596240000000  0.5149120000000 1.0
C      1  0.5376560000000  0.4884350000000  0.5735240000000 1.0
C      1  0.5372440000000  0.4902860000000  0.4272280000000 1.0
C      1  0.5490710000000  0.5411060000000  0.5297770000000 1.0
C      1  0.5492010000000  0.5410640000000  0.4727460000000 1.0
C      1  0.4455060000000  0.5050060000000  0.4654590000000 1.0
C      1  0.4454090000000  0.5030070000000  0.5366710000000 1.0
C      1  0.4767590000000  0.5324980000000  0.5142980000000 1.0
C      1  0.4739440000000  0.5422870000000  0.4868910000000 1.0
C      1  0.4827890000000  0.4715020000000  0.5284370000000 1.0
C      1  0.4822400000000  0.4726040000000  0.4723810000000 1.0
C      1  0.5570110000000  0.5258070000000  0.5516310000000 1.0
C      1  0.5576560000000  0.5259980000000  0.4508950000000 1.0
C      1  0.4568030000000  0.4823780000000  0.5182500000000 1.0
C      1  0.4565980000000  0.4834390000000  0.4831790000000 1.0
C      1  0.5220460000000  0.5030070000000  0.4725650000000 1.0
C      1  0.5227260000000  0.5022750000000  0.5284020000000 1.0
C      1  0.5274140000000  0.4545200000000  0.4739220000000 1.0
C      1  0.5282120000000  0.4536500000000  0.5259000000000 1.0
C      1  0.4537420000000  0.5304690000000  0.4720090000000 1.0
C      1  0.4543770000000  0.5282840000000  0.5303860000000 1.0
C      1  0.4994420000000  0.4432520000000  0.5637460000000 1.0
C      1  0.4989250000000  0.4456960000000  0.4362450000000 1.0
C      1  0.4998000000000  0.5471480000000  0.4734500000000 1.0
C      1  0.4997790000000  0.5455160000000  0.5270690000000 1.0
C      1  0.5241040000000  0.5303120000000  0.5168200000000 1.0
C      1  0.5236150000000  0.5307430000000  0.4847240000000 1.0
C      1  0.5682730000000  0.5543120000000  0.5149220000000 1.0
C      1  0.5679050000000  0.5541650000000  0.4882710000000 1.0
C      1  0.5107280000000  0.4765850000000  0.5167560000000 1.0
C      1  0.5102430000000  0.4771470000000  0.4838050000000 1.0
C      1  0.4372980000000  0.4361240000000  0.5300810000000 1.0
C      1  0.4364050000000  0.4378380000000  0.4691790000000 1.0
C      1  0.5040880000000  0.5029930000000  0.3913830000000 1.0
C      1  0.5045710000000  0.4992740000000  0.6100200000000 1.0
C      1  0.4994930000000  0.5745820000000  0.5204500000000 1.0
C      1  0.5036110000000  0.5740590000000  0.4631650000000 1.0
C      1  0.5217820000000  0.4405710000000  0.5492760000000 1.0
C      1  0.5214530000000  0.4418240000000  0.4501930000000 1.0
C      1  0.5530350000000  0.4489670000000  0.5143270000000 1.0
C      1  0.5503320000000  0.4480950000000  0.4877600000000 1.0
END
