TITL C-38186-4112-118 0.00089665869370616 125000 -358.669026418705 0 0 60 (C1) n - 1
REM
REM in /home/bkarasulu/CARBON/AIRSS/Generating-Clusters/EDIP-Nigel-Params/Higher-Symm/Box-15A/Only-C60/SD-CG/FIRE-HFTN
REM
REM
REM
REM
REM
REM ./C.cell (414f73aa93bd7a1190c7fd0f31ff2f98)
REM
REM compiler GCC version 9.2.1 20190827 (Red Hat 9.2.1-1)
REM options -cpp -mtune=generic -march=x86-64 -g -O0 -fpre-include=/usr/include/finclude/math-vector-fortran.h
REM seed 1609445359 887904780 -1734161162 -1993318734 -1890168511 -1842279777 203673675 2035937460 1831354788 585019628 1523588813 -2097845566 2140212260 727107927 -2146936894 -1753944974 1667478474 2056849731 412674583 -802937963 -740917162 1481835935 2127646719 1491677047 1021560512 -519479188 -895185681 -1690361583 1477354213 -227519369 331399955 -1636881009 -617077462
REM
CELL 1.54180   50.00000   50.00000   50.00000   90.00000   90.00000   90.00000
LATT -1
SFAC C  
C      1  0.5138080000000  0.5320460000000  0.5785200000000 1.0
C      1  0.5153830000000  0.4119160000000  0.4856880000000 1.0
C      1  0.5204070000000  0.5542740000000  0.4302330000000 1.0
C      1  0.4823560000000  0.4647900000000  0.5836200000000 1.0
C      1  0.4871660000000  0.5907710000000  0.4860630000000 1.0
C      1  0.4773620000000  0.4437980000000  0.4295070000000 1.0
C      1  0.4801950000000  0.4689280000000  0.4198020000000 1.0
C      1  0.4814440000000  0.5907920000000  0.5123190000000 1.0
C      1  0.4872230000000  0.4424640000000  0.5694680000000 1.0
C      1  0.5206400000000  0.5323780000000  0.4143560000000 1.0
C      1  0.5203080000000  0.4088660000000  0.5119980000000 1.0
C      1  0.5153660000000  0.5569010000000  0.5687230000000 1.0
C      1  0.5241540000000  0.4485080000000  0.4447260000000 1.0
C      1  0.5341630000000  0.5805690000000  0.4860440000000 1.0
C      1  0.5284040000000  0.4777510000000  0.5703440000000 1.0
C      1  0.4754000000000  0.5531420000000  0.4467480000000 1.0
C      1  0.4681130000000  0.4209150000000  0.4875870000000 1.0
C      1  0.4670680000000  0.5225070000000  0.5707860000000 1.0
C      1  0.4679250000000  0.5495290000000  0.5546870000000 1.0
C      1  0.4741780000000  0.4253480000000  0.5187080000000 1.0
C      1  0.4734610000000  0.5276330000000  0.4280540000000 1.0
C      1  0.5338710000000  0.4485500000000  0.5590110000000 1.0
C      1  0.5284260000000  0.5746430000000  0.5169750000000 1.0
C      1  0.5279910000000  0.4733440000000  0.4251860000000 1.0
C      1  0.5003090000000  0.4845240000000  0.5752510000000 1.0
C      1  0.4965190000000  0.4404750000000  0.4497840000000 1.0
C      1  0.5084250000000  0.5812650000000  0.4705740000000 1.0
C      1  0.4940060000000  0.5126100000000  0.5772330000000 1.0
C      1  0.5032020000000  0.5602200000000  0.4512930000000 1.0
C      1  0.4932330000000  0.4214710000000  0.4715430000000 1.0
C      1  0.4999220000000  0.5154160000000  0.4229720000000 1.0
C      1  0.4948160000000  0.5606770000000  0.5500250000000 1.0
C      1  0.5025780000000  0.4253620000000  0.5260230000000 1.0
C      1  0.5019540000000  0.4865830000000  0.4197120000000 1.0
C      1  0.5082960000000  0.4343090000000  0.5530330000000 1.0
C      1  0.5002940000000  0.5746470000000  0.5253290000000 1.0
C      1  0.5409490000000  0.4628880000000  0.4659650000000 1.0
C      1  0.5522450000000  0.5542010000000  0.4859260000000 1.0
C      1  0.5453380000000  0.4895110000000  0.5474570000000 1.0
C      1  0.4579940000000  0.5388450000000  0.4677140000000 1.0
C      1  0.4494900000000  0.4464280000000  0.4888190000000 1.0
C      1  0.4474610000000  0.5107620000000  0.5497690000000 1.0
C      1  0.4486750000000  0.5373960000000  0.5336100000000 1.0
C      1  0.4575110000000  0.4511940000000  0.5177710000000 1.0
C      1  0.4530330000000  0.5152720000000  0.4488780000000 1.0
C      1  0.5528930000000  0.4615740000000  0.5373490000000 1.0
C      1  0.5442630000000  0.5485580000000  0.5146680000000 1.0
C      1  0.5482250000000  0.4854280000000  0.4467950000000 1.0
C      1  0.5597820000000  0.5364560000000  0.5341460000000 1.0
C      1  0.5577500000000  0.4506490000000  0.5122060000000 1.0
C      1  0.5486010000000  0.5127210000000  0.4521540000000 1.0
C      1  0.4408120000000  0.4612880000000  0.5373370000000 1.0
C      1  0.4367330000000  0.5495220000000  0.5116680000000 1.0
C      1  0.4543750000000  0.4882770000000  0.4553200000000 1.0
C      1  0.4512940000000  0.4652910000000  0.4685010000000 1.0
C      1  0.4398170000000  0.5502600000000  0.4851620000000 1.0
C      1  0.4374310000000  0.4848470000000  0.5493580000000 1.0
C      1  0.5504370000000  0.5361590000000  0.4648210000000 1.0
C      1  0.5566460000000  0.4514730000000  0.4855920000000 1.0
C      1  0.5598790000000  0.5130790000000  0.5470890000000 1.0
END
