TITL C-38198-1686-57 -8.83608001517925e-06 125000 -356.683000811464 0 0 60 (C2) n - 1
REM
REM in /home/bkarasulu/CARBON/AIRSS/Generating-Clusters/EDIP-Nigel-Params/Higher-Symm/Box-15A/Only-C60/SD-CG/FIRE-HFTN
REM
REM
REM
REM
REM
REM ./C.cell (414f73aa93bd7a1190c7fd0f31ff2f98)
REM
REM compiler GCC version 9.2.1 20190827 (Red Hat 9.2.1-1)
REM options -cpp -mtune=generic -march=x86-64 -g -O0 -fpre-include=/usr/include/finclude/math-vector-fortran.h
REM seed 2066537926 1830249530 53584129 1356209125 -739412063 2131145353 1941280256 1871256150 -2102407296 1244582148 1514488854 1876871746 1390252603 -203751834 -1053552573 -229922755 -582666277 -738274118 -1065870100 -122873471 -1939965319 -319822092 1656397575 781144039 -1487595305 1777131346 -1984018565 82743552 55932752 1580065120 1677636146 -208053401 406521289
REM
CELL 1.54180   50.00000   50.00000   50.00000   90.00000   90.00000   90.00000
LATT -1
SFAC C  
C      1  0.5722010000000  0.4919950000000  0.4874510000000 1.0
C      1  0.4277990000000  0.4919950000000  0.5125490000000 1.0
C      1  0.4894250000000  0.5361140000000  0.5539370000000 1.0
C      1  0.5105750000000  0.5361140000000  0.4460630000000 1.0
C      1  0.4984050000000  0.5172170000000  0.4276730000000 1.0
C      1  0.5015950000000  0.5172170000000  0.5723270000000 1.0
C      1  0.4270380000000  0.5090950000000  0.4880700000000 1.0
C      1  0.5729620000000  0.5090950000000  0.5119300000000 1.0
C      1  0.5354410000000  0.5081190000000  0.4228480000000 1.0
C      1  0.4645590000000  0.5081190000000  0.5771520000000 1.0
C      1  0.5174650000000  0.5697830000000  0.4789390000000 1.0
C      1  0.4825350000000  0.5697830000000  0.5210610000000 1.0
C      1  0.5249980000000  0.5033040000000  0.5670660000000 1.0
C      1  0.4750020000000  0.5033040000000  0.4329340000000 1.0
C      1  0.5057670000000  0.4230300000000  0.5150040000000 1.0
C      1  0.4942330000000  0.4230300000000  0.4849960000000 1.0
C      1  0.5547570000000  0.4396120000000  0.5003610000000 1.0
C      1  0.4452430000000  0.4396120000000  0.4996390000000 1.0
C      1  0.5290300000000  0.4853440000000  0.4899830000000 1.0
C      1  0.4709700000000  0.4853440000000  0.5100170000000 1.0
C      1  0.5007200000000  0.5575620000000  0.5381370000000 1.0
C      1  0.4992800000000  0.5575620000000  0.4618630000000 1.0
C      1  0.4863220000000  0.5114690000000  0.5031820000000 1.0
C      1  0.5136780000000  0.5114690000000  0.4968180000000 1.0
C      1  0.5281880000000  0.5509400000000  0.5265930000000 1.0
C      1  0.4718120000000  0.5509400000000  0.4734070000000 1.0
C      1  0.5384810000000  0.5340470000000  0.4371580000000 1.0
C      1  0.4615190000000  0.5340470000000  0.5628420000000 1.0
C      1  0.5173650000000  0.4281250000000  0.4664410000000 1.0
C      1  0.4826350000000  0.4281250000000  0.5335590000000 1.0
C      1  0.5150070000000  0.4585350000000  0.4976480000000 1.0
C      1  0.4849930000000  0.4585350000000  0.5023520000000 1.0
C      1  0.4534150000000  0.4986270000000  0.4776000000000 1.0
C      1  0.5465850000000  0.4986270000000  0.5224000000000 1.0
C      1  0.5450450000000  0.4902580000000  0.4439810000000 1.0
C      1  0.4549550000000  0.4902580000000  0.5560190000000 1.0
C      1  0.5664870000000  0.4645130000000  0.4929490000000 1.0
C      1  0.4335130000000  0.4645130000000  0.5070510000000 1.0
C      1  0.5421530000000  0.4254580000000  0.4794020000000 1.0
C      1  0.4578470000000  0.4254580000000  0.5205980000000 1.0
C      1  0.5591090000000  0.5058330000000  0.4643420000000 1.0
C      1  0.4408910000000  0.5058330000000  0.5356580000000 1.0
C      1  0.5264810000000  0.5208060000000  0.5201220000000 1.0
C      1  0.4735190000000  0.5208060000000  0.4798780000000 1.0
C      1  0.4687540000000  0.4426380000000  0.4811150000000 1.0
C      1  0.5312460000000  0.4426380000000  0.5188850000000 1.0
C      1  0.4399870000000  0.5330970000000  0.5438460000000 1.0
C      1  0.5600130000000  0.5330970000000  0.4561540000000 1.0
C      1  0.4405310000000  0.5615700000000  0.4938220000000 1.0
C      1  0.5594690000000  0.5615700000000  0.5061780000000 1.0
C      1  0.4679070000000  0.5704210000000  0.4972370000000 1.0
C      1  0.5320930000000  0.5704210000000  0.5027630000000 1.0
C      1  0.4558490000000  0.4936440000000  0.4493720000000 1.0
C      1  0.5441510000000  0.4936440000000  0.5506280000000 1.0
C      1  0.4843860000000  0.4530870000000  0.5454340000000 1.0
C      1  0.5156140000000  0.4530870000000  0.4545660000000 1.0
C      1  0.5239490000000  0.4790420000000  0.4599100000000 1.0
C      1  0.4760510000000  0.4790420000000  0.5400900000000 1.0
C      1  0.4282210000000  0.5367160000000  0.4930960000000 1.0
C      1  0.5717790000000  0.5367160000000  0.5069040000000 1.0
END
