TITL C-38195-9455-279 0.00235870924357066 125000 -380.822255524087 0 0 60 (C1) n - 1
REM
REM in /home/bkarasulu/CARBON/AIRSS/Generating-Clusters/EDIP-Nigel-Params/Higher-Symm/Box-15A/Only-C60/SD-CG/FIRE-HFTN
REM
REM
REM
REM
REM
REM ./C.cell (414f73aa93bd7a1190c7fd0f31ff2f98)
REM
REM compiler GCC version 9.2.1 20190827 (Red Hat 9.2.1-1)
REM options -cpp -mtune=generic -march=x86-64 -g -O0 -fpre-include=/usr/include/finclude/math-vector-fortran.h
REM seed -659315982 -1508448905 1651853036 -1235754651 1562067952 2118985552 62348273 -1320006205 -502095241 -1083523785 -416607398 1220529962 -2079952818 125971573 -1189736880 -289034890 -748020925 -1927223099 2096160316 -921666697 -1684767654 1655850020 -825927330 -1249686676 -635753430 -818300761 227633895 -378011921 -1216705330 -2103588619 1457307372 2143872155 -931510710
REM
CELL 1.54180   50.00000   50.00000   50.00000   90.00000   90.00000   90.00000
LATT -1
SFAC C  
C      1  0.5514240000000  0.4782230000000  0.4258220000000 1.0
C      1  0.5206260000000  0.4417450000000  0.4287500000000 1.0
C      1  0.4743760000000  0.4549780000000  0.4267530000000 1.0
C      1  0.4505150000000  0.4974830000000  0.4276200000000 1.0
C      1  0.4588350000000  0.5450180000000  0.4280130000000 1.0
C      1  0.5044710000000  0.5588330000000  0.4260810000000 1.0
C      1  0.5393860000000  0.5253470000000  0.4281230000000 1.0
C      1  0.4875040000000  0.5334590000000  0.5741300000000 1.0
C      1  0.5212370000000  0.5296340000000  0.5733730000000 1.0
C      1  0.5392650000000  0.5047850000000  0.5747140000000 1.0
C      1  0.5246690000000  0.4764040000000  0.5727650000000 1.0
C      1  0.4959470000000  0.4635200000000  0.5755910000000 1.0
C      1  0.4707120000000  0.4830070000000  0.5722630000000 1.0
C      1  0.4638110000000  0.5133530000000  0.5755120000000 1.0
C      1  0.4728780000000  0.4564160000000  0.5341290000000 1.0
C      1  0.4419650000000  0.4952290000000  0.5350170000000 1.0
C      1  0.4584200000000  0.5433070000000  0.5373140000000 1.0
C      1  0.5062810000000  0.5538810000000  0.5354070000000 1.0
C      1  0.5508010000000  0.5316110000000  0.5346350000000 1.0
C      1  0.5501870000000  0.4821130000000  0.5343620000000 1.0
C      1  0.5202100000000  0.4429580000000  0.5375780000000 1.0
C      1  0.5422580000000  0.4565870000000  0.4926970000000 1.0
C      1  0.4952310000000  0.4433890000000  0.4917580000000 1.0
C      1  0.4573890000000  0.4734810000000  0.4899690000000 1.0
C      1  0.4497790000000  0.5216680000000  0.4915940000000 1.0
C      1  0.4800690000000  0.5603890000000  0.4926990000000 1.0
C      1  0.5277600000000  0.5485810000000  0.4912060000000 1.0
C      1  0.5540280000000  0.5039380000000  0.4903260000000 1.0
C      1  0.5131100000000  0.5369260000000  0.4673530000000 1.0
C      1  0.5359430000000  0.4963440000000  0.4670430000000 1.0
C      1  0.5303720000000  0.4669960000000  0.4669550000000 1.0
C      1  0.4992130000000  0.4600180000000  0.4667850000000 1.0
C      1  0.4748510000000  0.4822940000000  0.4665340000000 1.0
C      1  0.4669560000000  0.5188010000000  0.4669700000000 1.0
C      1  0.4846300000000  0.5450530000000  0.4669930000000 1.0
C      1  0.4620040000000  0.4757630000000  0.4405630000000 1.0
C      1  0.4519770000000  0.5215140000000  0.4414890000000 1.0
C      1  0.4803980000000  0.5578320000000  0.4403750000000 1.0
C      1  0.5234620000000  0.5442600000000  0.4404600000000 1.0
C      1  0.5472450000000  0.5017820000000  0.4401830000000 1.0
C      1  0.5406620000000  0.4571220000000  0.4407800000000 1.0
C      1  0.4959010000000  0.4450130000000  0.4413770000000 1.0
C      1  0.5562740000000  0.5062630000000  0.5498890000000 1.0
C      1  0.5392110000000  0.4610740000000  0.5514060000000 1.0
C      1  0.4938050000000  0.4451530000000  0.5516610000000 1.0
C      1  0.4541480000000  0.4724860000000  0.5495640000000 1.0
C      1  0.4461870000000  0.5199870000000  0.5519440000000 1.0
C      1  0.4821070000000  0.5528620000000  0.5518600000000 1.0
C      1  0.5304400000000  0.5466160000000  0.5503960000000 1.0
C      1  0.5065660000000  0.5624850000000  0.5072140000000 1.0
C      1  0.5431320000000  0.5273280000000  0.5060560000000 1.0
C      1  0.5576110000000  0.4786590000000  0.5060560000000 1.0
C      1  0.5188680000000  0.4483650000000  0.5084930000000 1.0
C      1  0.4699210000000  0.4511470000000  0.5051520000000 1.0
C      1  0.4496500000000  0.4966230000000  0.5063760000000 1.0
C      1  0.4592580000000  0.5446940000000  0.5074020000000 1.0
C      1  0.5097470000000  0.5082850000000  0.4723340000000 1.0
C      1  0.5004950000000  0.5015070000000  0.5551070000000 1.0
C      1  0.5003620000000  0.5018270000000  0.5258570000000 1.0
C      1  0.5008530000000  0.5025690000000  0.4985890000000 1.0
END
