TITL C-38188-488-45 -1.60367436386493e-07 125000 -372.077994176827 0 0 60 (C5) n - 1
REM
REM in /home/bkarasulu/CARBON/AIRSS/Generating-Clusters/EDIP-Nigel-Params/Higher-Symm/Box-15A/Only-C60/SD-CG/FIRE-HFTN
REM
REM
REM
REM
REM
REM ./C.cell (414f73aa93bd7a1190c7fd0f31ff2f98)
REM
REM compiler GCC version 9.2.1 20190827 (Red Hat 9.2.1-1)
REM options -cpp -mtune=generic -march=x86-64 -g -O0 -fpre-include=/usr/include/finclude/math-vector-fortran.h
REM seed 383801826 1051755153 1141639046 -1769743943 -633326172 -206560615 -796401788 1933504797 -975298801 968477597 -382324816 -1707661847 1157607633 -29367317 950250283 -2043171640 1933241865 -1571083467 -1080807030 1849706537 -2122330322 -1928304990 -2035359527 1907749119 1019749523 437755053 1625520243 -107302759 1649571264 823445917 -1892348605 2130072527 -175929754
REM
CELL 1.54180   50.00000   50.00000   50.00000   90.00000   90.00000   90.00000
LATT -1
SFAC C  
C      1  0.4973190000000  0.5246100000000  0.5673820000000 1.0
C      1  0.4757660000000  0.5050550000000  0.5673820000000 1.0
C      1  0.4877030000000  0.4785150000000  0.5673820000000 1.0
C      1  0.5166340000000  0.4816660000000  0.5673820000000 1.0
C      1  0.5225770000000  0.5101540000000  0.5673820000000 1.0
C      1  0.5161510000000  0.4582900000000  0.4465670000000 1.0
C      1  0.5446590000000  0.5024720000000  0.4465670000000 1.0
C      1  0.5114500000000  0.5432370000000  0.4465670000000 1.0
C      1  0.4624170000000  0.5242500000000  0.4465670000000 1.0
C      1  0.4653230000000  0.4717500000000  0.4465670000000 1.0
C      1  0.5024110000000  0.4220620000000  0.4746030000000 1.0
C      1  0.5748680000000  0.4782090000000  0.4746030000000 1.0
C      1  0.5438600000000  0.5644700000000  0.4746030000000 1.0
C      1  0.4522390000000  0.5616360000000  0.4746030000000 1.0
C      1  0.4266220000000  0.4736230000000  0.4746030000000 1.0
C      1  0.5103570000000  0.4487070000000  0.5161100000000 1.0
C      1  0.5519830000000  0.4940000000000  0.5161100000000 1.0
C      1  0.5217700000000  0.5475850000000  0.5161100000000 1.0
C      1  0.4614720000000  0.5354090000000  0.5161100000000 1.0
C      1  0.4544180000000  0.4742990000000  0.5161100000000 1.0
C      1  0.5723800000000  0.5263550000000  0.4789170000000 1.0
C      1  0.4973020000000  0.5769820000000  0.4789170000000 1.0
C      1  0.4259520000000  0.5212230000000  0.4789170000000 1.0
C      1  0.4569340000000  0.4361350000000  0.4789170000000 1.0
C      1  0.5474310000000  0.4393060000000  0.4789170000000 1.0
C      1  0.5177750000000  0.5642780000000  0.4649160000000 1.0
C      1  0.4443610000000  0.5367680000000  0.4649160000000 1.0
C      1  0.4478380000000  0.4584460000000  0.4649160000000 1.0
C      1  0.5234010000000  0.4375510000000  0.4649160000000 1.0
C      1  0.5666240000000  0.5029580000000  0.4649160000000 1.0
C      1  0.5046890000000  0.4760740000000  0.5092090000000 1.0
C      1  0.5242040000000  0.4970660000000  0.5092090000000 1.0
C      1  0.5102700000000  0.5221130000000  0.5092090000000 1.0
C      1  0.4821430000000  0.5166010000000  0.5092090000000 1.0
C      1  0.4786940000000  0.4881470000000  0.5092090000000 1.0
C      1  0.4657800000000  0.4438050000000  0.5352320000000 1.0
C      1  0.5428700000000  0.4500890000000  0.5352320000000 1.0
C      1  0.5607160000000  0.5253490000000  0.5352320000000 1.0
C      1  0.4946540000000  0.5655770000000  0.5352320000000 1.0
C      1  0.4359800000000  0.5151800000000  0.5352320000000 1.0
C      1  0.4718750000000  0.5739560000000  0.4903600000000 1.0
C      1  0.4209730000000  0.4961050000000  0.4903600000000 1.0
C      1  0.4792830000000  0.4236370000000  0.4903600000000 1.0
C      1  0.5662240000000  0.4567000000000  0.4903600000000 1.0
C      1  0.5616450000000  0.5496020000000  0.4903600000000 1.0
C      1  0.4945220000000  0.5511550000000  0.5591370000000 1.0
C      1  0.4496560000000  0.5105980000000  0.5591370000000 1.0
C      1  0.4743640000000  0.4553950000000  0.5591370000000 1.0
C      1  0.5345000000000  0.4618340000000  0.5591370000000 1.0
C      1  0.5469590000000  0.5210180000000  0.5591370000000 1.0
C      1  0.4593250000000  0.4977420000000  0.4393850000000 1.0
C      1  0.4895780000000  0.4606190000000  0.4393850000000 1.0
C      1  0.5342330000000  0.4779190000000  0.4393850000000 1.0
C      1  0.5315790000000  0.5257340000000  0.4393850000000 1.0
C      1  0.4852840000000  0.5379860000000  0.4393850000000 1.0
C      1  0.4307620000000  0.4916680000000  0.5181820000000 1.0
C      1  0.4865290000000  0.4315760000000  0.5181820000000 1.0
C      1  0.5609120000000  0.4660440000000  0.5181820000000 1.0
C      1  0.5511170000000  0.5474380000000  0.5181820000000 1.0
C      1  0.4706800000000  0.5632740000000  0.5181820000000 1.0
END
