TITL C-38186-4112-315 -9.19300866049604e-06 125000 -352.449800520757 0 0 60 (C1) n - 1
REM
REM in /home/bkarasulu/CARBON/AIRSS/Generating-Clusters/EDIP-Nigel-Params/Higher-Symm/Box-15A/Only-C60/SD-CG/FIRE-HFTN
REM
REM
REM
REM
REM
REM ./C.cell (414f73aa93bd7a1190c7fd0f31ff2f98)
REM
REM compiler GCC version 9.2.1 20190827 (Red Hat 9.2.1-1)
REM options -cpp -mtune=generic -march=x86-64 -g -O0 -fpre-include=/usr/include/finclude/math-vector-fortran.h
REM seed -2120636634 1942427496 1972082311 1526040433 1138596089 33916759 1330808699 944860403 -969140009 -774416301 -1557256856 1508176661 1594454927 57595653 1954458355 2065833974 -1606199925 1016706368 -421388529 885327604 344295080 -1329518542 -2100459440 1596822898 -1118400447 -1635305449 1450348283 -1484522481 -1606992284 188068791 855376973 -585476823 1599290889
REM
CELL 1.54180   50.00000   50.00000   50.00000   90.00000   90.00000   90.00000
LATT -1
SFAC C  
C      1  0.4513900000000  0.5463000000000  0.4687410000000 1.0
C      1  0.4455820000000  0.4524290000000  0.5252940000000 1.0
C      1  0.4491440000000  0.5466220000000  0.5360870000000 1.0
C      1  0.4525900000000  0.4458120000000  0.4618870000000 1.0
C      1  0.5447890000000  0.4269230000000  0.5253190000000 1.0
C      1  0.5460810000000  0.5661380000000  0.4770040000000 1.0
C      1  0.5476050000000  0.4253430000000  0.4755970000000 1.0
C      1  0.5436710000000  0.5757130000000  0.5233410000000 1.0
C      1  0.4913480000000  0.5203790000000  0.5123300000000 1.0
C      1  0.4807590000000  0.4834610000000  0.4794870000000 1.0
C      1  0.4838320000000  0.5130030000000  0.4828800000000 1.0
C      1  0.4881150000000  0.4868240000000  0.5174590000000 1.0
C      1  0.4987010000000  0.4391450000000  0.5379000000000 1.0
C      1  0.4993570000000  0.5632950000000  0.4667110000000 1.0
C      1  0.5011550000000  0.4322130000000  0.4590820000000 1.0
C      1  0.4965230000000  0.5698790000000  0.5383280000000 1.0
C      1  0.5268050000000  0.5210730000000  0.4754830000000 1.0
C      1  0.5296050000000  0.4748990000000  0.5253130000000 1.0
C      1  0.5288180000000  0.5307930000000  0.5325330000000 1.0
C      1  0.5277730000000  0.4716410000000  0.4709760000000 1.0
C      1  0.5221440000000  0.5517950000000  0.4848990000000 1.0
C      1  0.5231490000000  0.4446960000000  0.5206160000000 1.0
C      1  0.5216290000000  0.5571780000000  0.5195790000000 1.0
C      1  0.5242930000000  0.4415190000000  0.4767740000000 1.0
C      1  0.4624530000000  0.4861230000000  0.5335130000000 1.0
C      1  0.4720920000000  0.5270400000000  0.4583860000000 1.0
C      1  0.4553190000000  0.4837640000000  0.4641440000000 1.0
C      1  0.4740800000000  0.5303660000000  0.5420810000000 1.0
C      1  0.4335540000000  0.4699740000000  0.5042720000000 1.0
C      1  0.4355590000000  0.5315690000000  0.4885110000000 1.0
C      1  0.4313980000000  0.4565270000000  0.4782320000000 1.0
C      1  0.4333620000000  0.5314830000000  0.5166960000000 1.0
C      1  0.4946740000000  0.5430020000000  0.4456700000000 1.0
C      1  0.5013870000000  0.4542430000000  0.5615760000000 1.0
C      1  0.4932340000000  0.5478810000000  0.5583740000000 1.0
C      1  0.4991180000000  0.4500300000000  0.4369430000000 1.0
C      1  0.4721660000000  0.5664250000000  0.4795510000000 1.0
C      1  0.4740420000000  0.4450540000000  0.5222670000000 1.0
C      1  0.4647370000000  0.5710250000000  0.5267360000000 1.0
C      1  0.4759300000000  0.4340150000000  0.4746820000000 1.0
C      1  0.5559340000000  0.4784770000000  0.4637690000000 1.0
C      1  0.5550370000000  0.5192230000000  0.5295510000000 1.0
C      1  0.5581110000000  0.4813280000000  0.5299110000000 1.0
C      1  0.5557300000000  0.5152700000000  0.4713160000000 1.0
C      1  0.5134890000000  0.4781870000000  0.5523140000000 1.0
C      1  0.5148840000000  0.5217330000000  0.4466440000000 1.0
C      1  0.5094520000000  0.4740290000000  0.4472440000000 1.0
C      1  0.5153730000000  0.5282690000000  0.5584890000000 1.0
C      1  0.4859590000000  0.4496700000000  0.4968260000000 1.0
C      1  0.4798210000000  0.5565830000000  0.5057040000000 1.0
C      1  0.5644640000000  0.5006330000000  0.4494380000000 1.0
C      1  0.5659890000000  0.5011260000000  0.5475130000000 1.0
C      1  0.5543040000000  0.4200870000000  0.5011250000000 1.0
C      1  0.5548980000000  0.5784140000000  0.4991370000000 1.0
C      1  0.4991850000000  0.4986960000000  0.4372040000000 1.0
C      1  0.5006880000000  0.5021800000000  0.5640800000000 1.0
C      1  0.4631940000000  0.5027780000000  0.4416920000000 1.0
C      1  0.4697910000000  0.5045060000000  0.5566050000000 1.0
C      1  0.5200280000000  0.4915680000000  0.4953850000000 1.0
C      1  0.4486420000000  0.4986230000000  0.5044940000000 1.0
END
