TITL C-38192-7909-546 -2.87631455443854e-05 125000 -361.710035396656 0 0 60 (C1) n - 1
REM
REM in /home/bkarasulu/CARBON/AIRSS/Generating-Clusters/EDIP-Nigel-Params/Higher-Symm/Box-15A/Only-C60/SD-CG/FIRE-HFTN
REM
REM
REM
REM
REM
REM ./C.cell (414f73aa93bd7a1190c7fd0f31ff2f98)
REM
REM compiler GCC version 9.2.1 20190827 (Red Hat 9.2.1-1)
REM options -cpp -mtune=generic -march=x86-64 -g -O0 -fpre-include=/usr/include/finclude/math-vector-fortran.h
REM seed -881321537 -1734341375 -253104290 -104674817 654760081 -1406980049 -2022363617 1957972973 1662885016 -2121966895 -2068144647 -827405561 -1593188647 2047395310 -1450698631 -971251918 -1663566414 -202855753 -1138685300 272942626 -1166176452 -1674641113 -1709427539 -1319365764 -2134343174 -685335109 -1773084387 504677254 151635710 628759245 -1557406024 521234552 218433371
REM
CELL 1.54180   50.00000   50.00000   50.00000   90.00000   90.00000   90.00000
LATT -1
SFAC C  
C      1  0.5530090000000  0.4600830000000  0.4866990000000 1.0
C      1  0.5508500000000  0.5241200000000  0.5414230000000 1.0
C      1  0.4859400000000  0.4320140000000  0.4750190000000 1.0
C      1  0.4757590000000  0.5041180000000  0.5053570000000 1.0
C      1  0.5722340000000  0.5249770000000  0.4742880000000 1.0
C      1  0.4969830000000  0.5373860000000  0.5369500000000 1.0
C      1  0.5670730000000  0.4936980000000  0.5755980000000 1.0
C      1  0.5721010000000  0.4798140000000  0.4929320000000 1.0
C      1  0.4502680000000  0.5132480000000  0.4624370000000 1.0
C      1  0.5350390000000  0.4580950000000  0.5103660000000 1.0
C      1  0.4825170000000  0.4963070000000  0.5676810000000 1.0
C      1  0.4888570000000  0.4479390000000  0.4980320000000 1.0
C      1  0.4736040000000  0.4884750000000  0.4303020000000 1.0
C      1  0.5548880000000  0.4881150000000  0.4477290000000 1.0
C      1  0.4663070000000  0.4745900000000  0.5569080000000 1.0
C      1  0.4444600000000  0.4396050000000  0.5159710000000 1.0
C      1  0.5122640000000  0.5409910000000  0.5818400000000 1.0
C      1  0.5372270000000  0.4693800000000  0.4604870000000 1.0
C      1  0.4989870000000  0.5027400000000  0.4625870000000 1.0
C      1  0.4479140000000  0.4875840000000  0.4466630000000 1.0
C      1  0.4506380000000  0.5362990000000  0.4448610000000 1.0
C      1  0.5260300000000  0.5164550000000  0.5813200000000 1.0
C      1  0.4279810000000  0.4611220000000  0.5273800000000 1.0
C      1  0.4891550000000  0.5413390000000  0.5654020000000 1.0
C      1  0.5723170000000  0.5075450000000  0.4980420000000 1.0
C      1  0.4776500000000  0.5625100000000  0.4736410000000 1.0
C      1  0.5189740000000  0.4581350000000  0.4397740000000 1.0
C      1  0.5507600000000  0.5212410000000  0.5128510000000 1.0
C      1  0.5355610000000  0.5307740000000  0.4417660000000 1.0
C      1  0.4989790000000  0.4936450000000  0.5165330000000 1.0
C      1  0.4174160000000  0.4719040000000  0.5030320000000 1.0
C      1  0.5525860000000  0.4701290000000  0.5739030000000 1.0
C      1  0.4305670000000  0.4552160000000  0.4838790000000 1.0
C      1  0.4708530000000  0.5211790000000  0.5735860000000 1.0
C      1  0.4273170000000  0.5265020000000  0.4744240000000 1.0
C      1  0.4757960000000  0.5490120000000  0.4476680000000 1.0
C      1  0.4501970000000  0.4639280000000  0.4642450000000 1.0
C      1  0.5169400000000  0.4837830000000  0.4759690000000 1.0
C      1  0.5588420000000  0.5156540000000  0.4501920000000 1.0
C      1  0.4795600000000  0.4531730000000  0.5453660000000 1.0
C      1  0.4729850000000  0.4404670000000  0.5212340000000 1.0
C      1  0.5274780000000  0.4707660000000  0.5590650000000 1.0
C      1  0.5151090000000  0.5149530000000  0.4295000000000 1.0
C      1  0.4757420000000  0.5119010000000  0.4787900000000 1.0
C      1  0.4308070000000  0.5498470000000  0.4885130000000 1.0
C      1  0.4909270000000  0.4653290000000  0.4404060000000 1.0
C      1  0.5124200000000  0.4976060000000  0.5617680000000 1.0
C      1  0.4399660000000  0.4768290000000  0.5476840000000 1.0
C      1  0.5311670000000  0.5566390000000  0.4518310000000 1.0
C      1  0.5533220000000  0.5176400000000  0.5699080000000 1.0
C      1  0.4735450000000  0.4485110000000  0.4563740000000 1.0
C      1  0.5095610000000  0.4702370000000  0.5011960000000 1.0
C      1  0.5262690000000  0.5527780000000  0.4791710000000 1.0
C      1  0.5012050000000  0.5603340000000  0.4908270000000 1.0
C      1  0.5448960000000  0.4657900000000  0.5361750000000 1.0
C      1  0.5482800000000  0.5449530000000  0.4959620000000 1.0
C      1  0.5143990000000  0.5123580000000  0.5346080000000 1.0
C      1  0.4861180000000  0.5168480000000  0.4285590000000 1.0
C      1  0.4982900000000  0.5586220000000  0.5184830000000 1.0
C      1  0.4531130000000  0.5647680000000  0.4868430000000 1.0
END
