TITL C-38189-4514-238 -1.50384637138732e-06 125000 -364.953213031903 0 0 60 (C2h) n - 1
REM
REM in /home/bkarasulu/CARBON/AIRSS/Generating-Clusters/EDIP-Nigel-Params/Higher-Symm/Box-15A/Only-C60/SD-CG/FIRE-HFTN
REM
REM
REM
REM
REM
REM ./C.cell (414f73aa93bd7a1190c7fd0f31ff2f98)
REM
REM compiler GCC version 9.2.1 20190827 (Red Hat 9.2.1-1)
REM options -cpp -mtune=generic -march=x86-64 -g -O0 -fpre-include=/usr/include/finclude/math-vector-fortran.h
REM seed 681381024 -1026378275 908007055 -503482193 -553234627 163366269 -1604611804 156400235 -1211823113 714348945 -348476824 -1897661969 1305360306 1102279347 1921929499 810260363 1715226235 414234300 227230185 128170697 -274992442 -442812689 -1699250818 1153474174 -1092505200 1411299849 -1760361432 -761127830 1437222246 790679200 2068250351 369246509 377140297
REM
CELL 1.54180   50.00000   50.00000   50.00000   90.00000   90.00000   90.00000
LATT -1
SFAC C  
C      1  0.5051480000000  0.4693320000000  0.4867110000000 1.0
C      1  0.4942270000000  0.4704070000000  0.5143600000000 1.0
C      1  0.5051480000000  0.5306680000000  0.4867110000000 1.0
C      1  0.4942270000000  0.5295930000000  0.5143600000000 1.0
C      1  0.5303380000000  0.4359500000000  0.5404440000000 1.0
C      1  0.4697060000000  0.4362320000000  0.4591490000000 1.0
C      1  0.5303380000000  0.5640500000000  0.5404440000000 1.0
C      1  0.4697060000000  0.5637680000000  0.4591490000000 1.0
C      1  0.4835380000000  0.5400870000000  0.4416900000000 1.0
C      1  0.5166870000000  0.5405520000000  0.5584560000000 1.0
C      1  0.4835380000000  0.4599130000000  0.4416900000000 1.0
C      1  0.5166870000000  0.4594480000000  0.5584560000000 1.0
C      1  0.5377160000000  0.5720560000000  0.4915020000000 1.0
C      1  0.4625990000000  0.5718340000000  0.5081410000000 1.0
C      1  0.5377160000000  0.4279440000000  0.4915020000000 1.0
C      1  0.4625990000000  0.4281660000000  0.5081410000000 1.0
C      1  0.4887120000000  0.5513320000000  0.5648650000000 1.0
C      1  0.5113440000000  0.5509610000000  0.4347990000000 1.0
C      1  0.4887120000000  0.4486680000000  0.5648650000000 1.0
C      1  0.5113440000000  0.4490390000000  0.4347990000000 1.0
C      1  0.4593990000000  0.5142120000000  0.4683490000000 1.0
C      1  0.5405980000000  0.5142520000000  0.5319410000000 1.0
C      1  0.4593990000000  0.4857880000000  0.4683490000000 1.0
C      1  0.5405980000000  0.4857480000000  0.5319410000000 1.0
C      1  0.4889770000000  0.5184890000000  0.4627280000000 1.0
C      1  0.5111210000000  0.5183920000000  0.5381380000000 1.0
C      1  0.4889770000000  0.4815110000000  0.4627280000000 1.0
C      1  0.5111210000000  0.4816080000000  0.5381380000000 1.0
C      1  0.4556360000000  0.5570980000000  0.4854420000000 1.0
C      1  0.5443080000000  0.5571520000000  0.5142530000000 1.0
C      1  0.4556360000000  0.4429020000000  0.4854420000000 1.0
C      1  0.5443080000000  0.4428480000000  0.5142530000000 1.0
C      1  0.5507130000000  0.5147300000000  0.4482310000000 1.0
C      1  0.4493490000000  0.5147570000000  0.5518610000000 1.0
C      1  0.5507130000000  0.4852700000000  0.4482310000000 1.0
C      1  0.4493490000000  0.4852430000000  0.5518610000000 1.0
C      1  0.5314890000000  0.5317640000000  0.4374460000000 1.0
C      1  0.4687350000000  0.5318790000000  0.5623370000000 1.0
C      1  0.5314890000000  0.4682360000000  0.4374460000000 1.0
C      1  0.4687350000000  0.4681210000000  0.5623370000000 1.0
C      1  0.5507510000000  0.5287380000000  0.5098940000000 1.0
C      1  0.4488590000000  0.5287730000000  0.4901360000000 1.0
C      1  0.5507510000000  0.4712620000000  0.5098940000000 1.0
C      1  0.4488590000000  0.4712270000000  0.4901360000000 1.0
C      1  0.4884730000000  0.4395370000000  0.5150280000000 1.0
C      1  0.5117560000000  0.4388790000000  0.4843940000000 1.0
C      1  0.4884730000000  0.5604630000000  0.5150280000000 1.0
C      1  0.5117560000000  0.5611210000000  0.4843940000000 1.0
C      1  0.4294850000000  0.4734180000000  0.5356810000000 1.0
C      1  0.5704120000000  0.4734120000000  0.4645530000000 1.0
C      1  0.4294850000000  0.5265820000000  0.5356810000000 1.0
C      1  0.5704120000000  0.5265880000000  0.4645530000000 1.0
C      1  0.5664620000000  0.5146340000000  0.4897310000000 1.0
C      1  0.4333090000000  0.5146330000000  0.5104730000000 1.0
C      1  0.5664620000000  0.4853660000000  0.4897310000000 1.0
C      1  0.4333090000000  0.4853670000000  0.5104730000000 1.0
C      1  0.4990340000000  0.5710110000000  0.5414140000000 1.0
C      1  0.5011160000000  0.5710720000000  0.4578530000000 1.0
C      1  0.4990340000000  0.4289890000000  0.5414140000000 1.0
C      1  0.5011160000000  0.4289280000000  0.4578530000000 1.0
END
