TITL C-38197-8510-237 6.58273428010396e-05 125000 -360.613623830793 0 0 60 (C1) n - 1
REM
REM in /home/bkarasulu/CARBON/AIRSS/Generating-Clusters/EDIP-Nigel-Params/Higher-Symm/Box-15A/Only-C60/SD-CG/FIRE-HFTN
REM
REM
REM
REM
REM
REM ./C.cell (414f73aa93bd7a1190c7fd0f31ff2f98)
REM
REM compiler GCC version 9.2.1 20190827 (Red Hat 9.2.1-1)
REM options -cpp -mtune=generic -march=x86-64 -g -O0 -fpre-include=/usr/include/finclude/math-vector-fortran.h
REM seed 1870701014 -667053807 1860468114 -1718168698 -1701307274 -735634221 511185356 -393560195 412742234 418130635 1202775445 -802761577 1929255274 -229847914 -137602463 -1976401665 1417294423 268686692 -1511288571 -1935790810 1485249348 -329220219 -406693751 645363459 -1944645435 -284654040 248208411 -1392744039 251008372 363988457 -79687909 -1559247477 -747275322
REM
CELL 1.54180   50.00000   50.00000   50.00000   90.00000   90.00000   90.00000
LATT -1
SFAC C  
C      1  0.4294510000000  0.5375630000000  0.4971390000000 1.0
C      1  0.4879320000000  0.5807260000000  0.4954650000000 1.0
C      1  0.5517290000000  0.5602720000000  0.4895660000000 1.0
C      1  0.5776850000000  0.4990060000000  0.4948510000000 1.0
C      1  0.5451210000000  0.4341670000000  0.4997830000000 1.0
C      1  0.4759120000000  0.4221640000000  0.4953540000000 1.0
C      1  0.4297020000000  0.4711020000000  0.4928960000000 1.0
C      1  0.5209230000000  0.5233580000000  0.5528010000000 1.0
C      1  0.5335590000000  0.4975740000000  0.5600730000000 1.0
C      1  0.5191800000000  0.4726410000000  0.5528070000000 1.0
C      1  0.4900140000000  0.4667760000000  0.5538940000000 1.0
C      1  0.4667150000000  0.4845000000000  0.5507060000000 1.0
C      1  0.4683530000000  0.5135710000000  0.5527590000000 1.0
C      1  0.4924750000000  0.5302700000000  0.5543650000000 1.0
C      1  0.4712120000000  0.4776250000000  0.5069560000000 1.0
C      1  0.4701160000000  0.5161140000000  0.5062910000000 1.0
C      1  0.4939960000000  0.5373740000000  0.5108440000000 1.0
C      1  0.5258780000000  0.5325100000000  0.5101700000000 1.0
C      1  0.5408450000000  0.5052140000000  0.5178130000000 1.0
C      1  0.5301980000000  0.4796990000000  0.5027920000000 1.0
C      1  0.4971940000000  0.4601030000000  0.5111850000000 1.0
C      1  0.5099050000000  0.4563100000000  0.4376720000000 1.0
C      1  0.4830900000000  0.4689480000000  0.4366410000000 1.0
C      1  0.4628040000000  0.5111820000000  0.4350670000000 1.0
C      1  0.4735530000000  0.5387080000000  0.4359960000000 1.0
C      1  0.5028630000000  0.5376050000000  0.4367910000000 1.0
C      1  0.5256370000000  0.5070860000000  0.4388310000000 1.0
C      1  0.5315420000000  0.4771150000000  0.4402050000000 1.0
C      1  0.4638180000000  0.5514850000000  0.4612150000000 1.0
C      1  0.5122310000000  0.5547770000000  0.4582140000000 1.0
C      1  0.5453190000000  0.5187040000000  0.4589170000000 1.0
C      1  0.5481710000000  0.4708020000000  0.4635560000000 1.0
C      1  0.5109300000000  0.4381400000000  0.4614920000000 1.0
C      1  0.4655770000000  0.4575700000000  0.4584890000000 1.0
C      1  0.4433250000000  0.5063770000000  0.4577640000000 1.0
C      1  0.5364850000000  0.4457710000000  0.4751450000000 1.0
C      1  0.4839200000000  0.4397120000000  0.4744450000000 1.0
C      1  0.4463660000000  0.4784260000000  0.4706740000000 1.0
C      1  0.4450260000000  0.5318770000000  0.4737420000000 1.0
C      1  0.4885330000000  0.5616450000000  0.4745190000000 1.0
C      1  0.5375900000000  0.5451770000000  0.4698260000000 1.0
C      1  0.5587380000000  0.4967170000000  0.4739270000000 1.0
C      1  0.5616220000000  0.4972130000000  0.5497670000000 1.0
C      1  0.5359170000000  0.4511800000000  0.5456240000000 1.0
C      1  0.4841090000000  0.4402180000000  0.5441100000000 1.0
C      1  0.4417270000000  0.4731770000000  0.5428670000000 1.0
C      1  0.4445500000000  0.5275110000000  0.5455830000000 1.0
C      1  0.4878060000000  0.5571900000000  0.5461300000000 1.0
C      1  0.5387780000000  0.5453890000000  0.5445960000000 1.0
C      1  0.4849630000000  0.5650140000000  0.5185830000000 1.0
C      1  0.5430360000000  0.5574720000000  0.5170490000000 1.0
C      1  0.5713450000000  0.5055410000000  0.5218730000000 1.0
C      1  0.5404880000000  0.4548840000000  0.5181160000000 1.0
C      1  0.4908530000000  0.4310380000000  0.5174260000000 1.0
C      1  0.4456100000000  0.4669280000000  0.5157500000000 1.0
C      1  0.4445320000000  0.5255030000000  0.5174500000000 1.0
C      1  0.5068290000000  0.4977950000000  0.4907710000000 1.0
C      1  0.4985770000000  0.4985200000000  0.5243290000000 1.0
C      1  0.4882290000000  0.4974450000000  0.4433570000000 1.0
C      1  0.4866500000000  0.4969430000000  0.4717430000000 1.0
END
