TITL C-38195-9455-152 -2.68017649956548e-08 125000 -367.844536493056 0 0 60 (Ci) n - 1
REM
REM in /home/bkarasulu/CARBON/AIRSS/Generating-Clusters/EDIP-Nigel-Params/Higher-Symm/Box-15A/Only-C60/SD-CG/FIRE-HFTN
REM
REM
REM
REM
REM
REM ./C.cell (414f73aa93bd7a1190c7fd0f31ff2f98)
REM
REM compiler GCC version 9.2.1 20190827 (Red Hat 9.2.1-1)
REM options -cpp -mtune=generic -march=x86-64 -g -O0 -fpre-include=/usr/include/finclude/math-vector-fortran.h
REM seed -1132095698 562843326 -406948939 -1894247983 1018660759 -1146625813 -1563062296 -830967874 1753385827 272146297 -1714982254 1079409053 -1101877695 1267458405 -291042444 81082293 -814675110 1437082226 358570906 -2050285421 1425014659 1949910124 -1757777177 -400398072 -2092746527 650735461 -1167713424 761986250 -1339167284 492107728 482551467 1436264040 1335451705
REM
CELL 1.54180   50.00000   50.00000   50.00000   90.00000   90.00000   90.00000
LATT -1
SFAC C  
C      1  0.4589200000000  0.5103090000000  0.4449160000000 1.0
C      1  0.5410800000000  0.4896910000000  0.5550840000000 1.0
C      1  0.5283530000000  0.5029960000000  0.5063070000000 1.0
C      1  0.4716470000000  0.4970040000000  0.4936930000000 1.0
C      1  0.5414770000000  0.5331490000000  0.5358840000000 1.0
C      1  0.4585230000000  0.4668510000000  0.4641160000000 1.0
C      1  0.4773270000000  0.5551810000000  0.4541980000000 1.0
C      1  0.5226730000000  0.4448190000000  0.5458020000000 1.0
C      1  0.5465350000000  0.4443280000000  0.4497960000000 1.0
C      1  0.4534650000000  0.5556720000000  0.5502040000000 1.0
C      1  0.5123560000000  0.5707910000000  0.5093120000000 1.0
C      1  0.4876440000000  0.4292090000000  0.4906880000000 1.0
C      1  0.4803470000000  0.5540570000000  0.5411780000000 1.0
C      1  0.5196530000000  0.4459430000000  0.4588220000000 1.0
C      1  0.4805400000000  0.4350610000000  0.5183190000000 1.0
C      1  0.5194600000000  0.5649390000000  0.4816810000000 1.0
C      1  0.5110730000000  0.4820530000000  0.5173560000000 1.0
C      1  0.4889270000000  0.5179470000000  0.4826440000000 1.0
C      1  0.4396030000000  0.4833470000000  0.4786830000000 1.0
C      1  0.5603970000000  0.5166530000000  0.5213170000000 1.0
C      1  0.4490750000000  0.5836290000000  0.4833640000000 1.0
C      1  0.5509250000000  0.4163710000000  0.5166360000000 1.0
C      1  0.5555670000000  0.5259030000000  0.4672240000000 1.0
C      1  0.4444330000000  0.4740970000000  0.5327760000000 1.0
C      1  0.4701030000000  0.4826280000000  0.4419950000000 1.0
C      1  0.5298970000000  0.5173720000000  0.5580050000000 1.0
C      1  0.4996810000000  0.5699160000000  0.4622890000000 1.0
C      1  0.5003190000000  0.4300840000000  0.5377110000000 1.0
C      1  0.5003730000000  0.5136320000000  0.5576050000000 1.0
C      1  0.4996270000000  0.4863680000000  0.4423950000000 1.0
C      1  0.5167860000000  0.4741360000000  0.5457270000000 1.0
C      1  0.4832140000000  0.5258640000000  0.4542730000000 1.0
C      1  0.5160660000000  0.4315440000000  0.4832940000000 1.0
C      1  0.4839340000000  0.5684560000000  0.5167060000000 1.0
C      1  0.4896900000000  0.5270260000000  0.5324460000000 1.0
C      1  0.5103100000000  0.4729740000000  0.4675540000000 1.0
C      1  0.5608650000000  0.4401850000000  0.4739320000000 1.0
C      1  0.4391350000000  0.5598150000000  0.5260680000000 1.0
C      1  0.4521940000000  0.5590210000000  0.4700020000000 1.0
C      1  0.5478060000000  0.4409790000000  0.5299980000000 1.0
C      1  0.5296450000000  0.5571390000000  0.5268850000000 1.0
C      1  0.4703550000000  0.4428610000000  0.4731150000000 1.0
C      1  0.4567590000000  0.5780080000000  0.5098600000000 1.0
C      1  0.5432410000000  0.4219920000000  0.4901400000000 1.0
C      1  0.5375440000000  0.5420760000000  0.4809910000000 1.0
C      1  0.4624560000000  0.4579240000000  0.5190090000000 1.0
C      1  0.4651470000000  0.5112510000000  0.5199390000000 1.0
C      1  0.5348530000000  0.4887490000000  0.4800610000000 1.0
C      1  0.4398960000000  0.5346780000000  0.4826660000000 1.0
C      1  0.5601040000000  0.4653220000000  0.5173340000000 1.0
C      1  0.4946760000000  0.4854860000000  0.5616890000000 1.0
C      1  0.5053240000000  0.5145140000000  0.4383110000000 1.0
C      1  0.4391590000000  0.5098420000000  0.4667630000000 1.0
C      1  0.5608410000000  0.4901580000000  0.5332370000000 1.0
C      1  0.5095700000000  0.5274990000000  0.5028970000000 1.0
C      1  0.4904300000000  0.4725010000000  0.4971030000000 1.0
C      1  0.4343480000000  0.5333480000000  0.5123350000000 1.0
C      1  0.5656520000000  0.4666520000000  0.4876650000000 1.0
C      1  0.5593830000000  0.4984500000000  0.4670180000000 1.0
C      1  0.4406170000000  0.5015500000000  0.5329820000000 1.0
END
