TITL C-38198-1686-203 -0.0550110018140595 125000 -340.794508971264 0 0 60 (C1) n - 1
REM
REM in /home/bkarasulu/CARBON/AIRSS/Generating-Clusters/EDIP-Nigel-Params/Higher-Symm/Box-15A/Only-C60/SD-CG/FIRE-HFTN
REM
REM
REM
REM
REM
REM ./C.cell (414f73aa93bd7a1190c7fd0f31ff2f98)
REM
REM compiler GCC version 9.2.1 20190827 (Red Hat 9.2.1-1)
REM options -cpp -mtune=generic -march=x86-64 -g -O0 -fpre-include=/usr/include/finclude/math-vector-fortran.h
REM seed 1140209465 171568348 1767480236 -595248370 -686735111 2021228898 1490220501 364660199 -1633357118 254312551 -48380634 1294772069 -64216487 1748283597 -1392536699 844712355 1717905110 -178661442 2141344518 117396725 -716305576 -713696366 -1296202988 -1643817389 -1406625746 -143033243 -1853626832 132318277 -2051109771 1242740007 2008947455 770954028 -741098579
REM
CELL 1.54180   50.00000   50.00000   50.00000   90.00000   90.00000   90.00000
LATT -1
SFAC C  
C      1  0.5262550000000  0.4778270000000  0.5536660000000 1.0
C      1  0.5419420000000  0.4415090000000  0.5219870000000 1.0
C      1  0.5612180000000  0.4643750000000  0.4689720000000 1.0
C      1  0.5171650000000  0.4290390000000  0.5240660000000 1.0
C      1  0.5498870000000  0.4441310000000  0.4535420000000 1.0
C      1  0.5033150000000  0.4640060000000  0.5603890000000 1.0
C      1  0.5461540000000  0.4654700000000  0.5371780000000 1.0
C      1  0.5332410000000  0.5629780000000  0.4881270000000 1.0
C      1  0.5326010000000  0.5033580000000  0.5644290000000 1.0
C      1  0.4830540000000  0.4665760000000  0.5166070000000 1.0
C      1  0.4335430000000  0.4662260000000  0.4823340000000 1.0
C      1  0.5144250000000  0.5961420000000  0.4570320000000 1.0
C      1  0.5394440000000  0.4787550000000  0.4003650000000 1.0
C      1  0.4823210000000  0.5796920000000  0.4930770000000 1.0
C      1  0.5017580000000  0.4444240000000  0.5049640000000 1.0
C      1  0.4792710000000  0.4633610000000  0.5460750000000 1.0
C      1  0.3994560000000  0.4985880000000  0.4715330000000 1.0
C      1  0.5373010000000  0.4534960000000  0.4091350000000 1.0
C      1  0.4888120000000  0.4956150000000  0.5054640000000 1.0
C      1  0.5798070000000  0.5263260000000  0.5124030000000 1.0
C      1  0.4845960000000  0.4386460000000  0.4573930000000 1.0
C      1  0.5642940000000  0.4608060000000  0.4972670000000 1.0
C      1  0.5101670000000  0.5003920000000  0.4571480000000 1.0
C      1  0.5684560000000  0.5075290000000  0.5289570000000 1.0
C      1  0.4192030000000  0.4732930000000  0.4373360000000 1.0
C      1  0.4907500000000  0.4266620000000  0.4830280000000 1.0
C      1  0.4899850000000  0.5206040000000  0.5229980000000 1.0
C      1  0.5319090000000  0.4399790000000  0.4326830000000 1.0
C      1  0.5614400000000  0.4812780000000  0.5187920000000 1.0
C      1  0.4170730000000  0.4792000000000  0.4629850000000 1.0
C      1  0.5360290000000  0.5009770000000  0.4442070000000 1.0
C      1  0.4013410000000  0.5077660000000  0.5192750000000 1.0
C      1  0.4781460000000  0.5505700000000  0.5684240000000 1.0
C      1  0.4662440000000  0.5384230000000  0.5230470000000 1.0
C      1  0.4860670000000  0.5255940000000  0.5801150000000 1.0
C      1  0.5136220000000  0.4949920000000  0.4862960000000 1.0
C      1  0.5123460000000  0.5173190000000  0.5772230000000 1.0
C      1  0.4307040000000  0.4729320000000  0.5091270000000 1.0
C      1  0.4617760000000  0.4444250000000  0.5528750000000 1.0
C      1  0.3922040000000  0.5106270000000  0.4942680000000 1.0
C      1  0.5127990000000  0.5367760000000  0.5213900000000 1.0
C      1  0.4541510000000  0.5140420000000  0.5630180000000 1.0
C      1  0.5280410000000  0.5560880000000  0.5320170000000 1.0
C      1  0.5372390000000  0.5802810000000  0.4662390000000 1.0
C      1  0.5051680000000  0.4371370000000  0.4390980000000 1.0
C      1  0.4847350000000  0.5013620000000  0.4742790000000 1.0
C      1  0.5551360000000  0.5149940000000  0.5525060000000 1.0
C      1  0.5601150000000  0.5616560000000  0.4793270000000 1.0
C      1  0.5567420000000  0.4900730000000  0.4592440000000 1.0
C      1  0.4209610000000  0.4905010000000  0.5282330000000 1.0
C      1  0.4570030000000  0.5407370000000  0.5512710000000 1.0
C      1  0.5399080000000  0.5728410000000  0.5474750000000 1.0
C      1  0.4923300000000  0.6117160000000  0.4477130000000 1.0
C      1  0.5769290000000  0.5446800000000  0.4933890000000 1.0
C      1  0.4724620000000  0.5632620000000  0.5115700000000 1.0
C      1  0.4361100000000  0.4973370000000  0.5503550000000 1.0
C      1  0.4654980000000  0.4316180000000  0.4962120000000 1.0
C      1  0.5379180000000  0.5001140000000  0.4165550000000 1.0
C      1  0.4874700000000  0.5951310000000  0.4705460000000 1.0
C      1  0.4519620000000  0.4457460000000  0.4747730000000 1.0
END
