TITL C-38188-488-46 2.05928979781455e-06 125000 -367.034109262041 0 0 60 (Ci) n - 1
REM
REM in /home/bkarasulu/CARBON/AIRSS/Generating-Clusters/EDIP-Nigel-Params/Higher-Symm/Box-15A/Only-C60/SD-CG/FIRE-HFTN
REM
REM
REM
REM
REM
REM ./C.cell (414f73aa93bd7a1190c7fd0f31ff2f98)
REM
REM compiler GCC version 9.2.1 20190827 (Red Hat 9.2.1-1)
REM options -cpp -mtune=generic -march=x86-64 -g -O0 -fpre-include=/usr/include/finclude/math-vector-fortran.h
REM seed 1346565323 -148742037 1237163672 1716894422 1707496249 -1505329073 -1849151183 -1996780688 704796280 -1207505288 -891392883 -397558031 -406405247 1034811828 363939989 -619251663 -1340661137 -944211884 908158525 -895736019 1339145975 -219664551 822207731 -357004175 -1459458844 365474312 1573253485 -231543152 -898330392 -539180 1772417235 1655570567 626583914
REM
CELL 1.54180   50.00000   50.00000   50.00000   90.00000   90.00000   90.00000
LATT -1
SFAC C  
C      1  0.4757630000000  0.4792390000000  0.4536400000000 1.0
C      1  0.5242370000000  0.5207610000000  0.5463600000000 1.0
C      1  0.5196010000000  0.5027620000000  0.4192860000000 1.0
C      1  0.4803990000000  0.4972380000000  0.5807140000000 1.0
C      1  0.5421800000000  0.5663940000000  0.5127940000000 1.0
C      1  0.4578200000000  0.4336060000000  0.4872060000000 1.0
C      1  0.4461870000000  0.5119840000000  0.5375710000000 1.0
C      1  0.5538130000000  0.4880160000000  0.4624290000000 1.0
C      1  0.4716190000000  0.4973770000000  0.4879770000000 1.0
C      1  0.5283810000000  0.5026230000000  0.5120230000000 1.0
C      1  0.4592340000000  0.5209130000000  0.4429910000000 1.0
C      1  0.5407660000000  0.4790870000000  0.5570090000000 1.0
C      1  0.5487770000000  0.4807470000000  0.5086080000000 1.0
C      1  0.4512230000000  0.5192530000000  0.4913920000000 1.0
C      1  0.4406560000000  0.4634920000000  0.5264670000000 1.0
C      1  0.5593440000000  0.5365080000000  0.4735330000000 1.0
C      1  0.4833640000000  0.5418670000000  0.5564430000000 1.0
C      1  0.5166360000000  0.4581330000000  0.4435570000000 1.0
C      1  0.4841380000000  0.4528440000000  0.5098320000000 1.0
C      1  0.5158620000000  0.5471560000000  0.4901680000000 1.0
C      1  0.5751940000000  0.5197540000000  0.4938290000000 1.0
C      1  0.4248060000000  0.4802460000000  0.5061710000000 1.0
C      1  0.4800500000000  0.4773680000000  0.5614740000000 1.0
C      1  0.5199500000000  0.5226320000000  0.4385260000000 1.0
C      1  0.5520050000000  0.4400460000000  0.5325210000000 1.0
C      1  0.4479950000000  0.5599540000000  0.4674790000000 1.0
C      1  0.5768360000000  0.5256930000000  0.5213540000000 1.0
C      1  0.4231640000000  0.4743070000000  0.4786460000000 1.0
C      1  0.5038910000000  0.4929870000000  0.5275650000000 1.0
C      1  0.4961090000000  0.5070130000000  0.4724350000000 1.0
C      1  0.4429630000000  0.5323110000000  0.4649390000000 1.0
C      1  0.5570370000000  0.4676890000000  0.5350610000000 1.0
C      1  0.4686940000000  0.5385460000000  0.5050160000000 1.0
C      1  0.5313060000000  0.4614540000000  0.4949840000000 1.0
C      1  0.4804520000000  0.5239250000000  0.5779600000000 1.0
C      1  0.5195480000000  0.4760750000000  0.4220400000000 1.0
C      1  0.4793960000000  0.4827850000000  0.5135970000000 1.0
C      1  0.5206040000000  0.5172150000000  0.4864030000000 1.0
C      1  0.5120140000000  0.5472250000000  0.5492380000000 1.0
C      1  0.4879860000000  0.4527750000000  0.4507620000000 1.0
C      1  0.4602390000000  0.4843200000000  0.5378250000000 1.0
C      1  0.5397610000000  0.5156800000000  0.4621750000000 1.0
C      1  0.5295020000000  0.4392810000000  0.5150010000000 1.0
C      1  0.4704980000000  0.5607190000000  0.4849990000000 1.0
C      1  0.4297650000000  0.4836100000000  0.4541960000000 1.0
C      1  0.5702350000000  0.5163900000000  0.5458040000000 1.0
C      1  0.4916320000000  0.5293010000000  0.4518220000000 1.0
C      1  0.5083680000000  0.4706990000000  0.5481780000000 1.0
C      1  0.5049580000000  0.4449520000000  0.5305030000000 1.0
C      1  0.4950420000000  0.5550480000000  0.4694970000000 1.0
C      1  0.5359030000000  0.4640180000000  0.4658260000000 1.0
C      1  0.4640970000000  0.5359820000000  0.5341740000000 1.0
C      1  0.5196180000000  0.5651050000000  0.5289410000000 1.0
C      1  0.4803820000000  0.4348950000000  0.4710590000000 1.0
C      1  0.4567290000000  0.4402030000000  0.5154570000000 1.0
C      1  0.5432710000000  0.5597970000000  0.4845430000000 1.0
C      1  0.4307890000000  0.5090630000000  0.5116570000000 1.0
C      1  0.5692110000000  0.4909370000000  0.4883430000000 1.0
C      1  0.4529610000000  0.4916770000000  0.4406960000000 1.0
C      1  0.5470390000000  0.5083230000000  0.5593040000000 1.0
END
