TITL C-38192-7909-445 -2.26468233828082e-05 125000 -353.100984356525 0 0 60 (C1) n - 1
REM
REM in /home/bkarasulu/CARBON/AIRSS/Generating-Clusters/EDIP-Nigel-Params/Higher-Symm/Box-15A/Only-C60/SD-CG/FIRE-HFTN
REM
REM
REM
REM
REM
REM ./C.cell (414f73aa93bd7a1190c7fd0f31ff2f98)
REM
REM compiler GCC version 9.2.1 20190827 (Red Hat 9.2.1-1)
REM options -cpp -mtune=generic -march=x86-64 -g -O0 -fpre-include=/usr/include/finclude/math-vector-fortran.h
REM seed 225424886 1513254369 1977990913 1691673524 1341262603 1205764217 -39436153 847414454 1987347753 -2086159637 -2093451071 335142977 908865371 1559819297 2085583746 1198670258 -1299954026 1544641848 -552436767 -1447484906 1493907471 -1089966550 190408488 -1587475469 -1585526425 -1039421571 -1584598090 -1416618900 577343132 737854040 -203136363 -894605804 -1048240637
REM
CELL 1.54180   50.00000   50.00000   50.00000   90.00000   90.00000   90.00000
LATT -1
SFAC C  
C      1  0.4907060000000  0.4773000000000  0.4837510000000 1.0
C      1  0.5564610000000  0.4563830000000  0.4583940000000 1.0
C      1  0.5434950000000  0.4403240000000  0.5213370000000 1.0
C      1  0.4433710000000  0.5564550000000  0.5154120000000 1.0
C      1  0.4474470000000  0.4960690000000  0.5411680000000 1.0
C      1  0.4541820000000  0.5555850000000  0.4683730000000 1.0
C      1  0.4572160000000  0.5553410000000  0.5382510000000 1.0
C      1  0.4720180000000  0.5420450000000  0.4518670000000 1.0
C      1  0.5230600000000  0.5131910000000  0.5255630000000 1.0
C      1  0.5331380000000  0.5697680000000  0.4865450000000 1.0
C      1  0.5105030000000  0.4172560000000  0.4865080000000 1.0
C      1  0.4495060000000  0.4679300000000  0.5474760000000 1.0
C      1  0.5591350000000  0.4846250000000  0.4999120000000 1.0
C      1  0.4912390000000  0.5609960000000  0.4594250000000 1.0
C      1  0.4992040000000  0.4897590000000  0.5064690000000 1.0
C      1  0.5650580000000  0.5129770000000  0.5036920000000 1.0
C      1  0.4419740000000  0.4955550000000  0.4700930000000 1.0
C      1  0.5496250000000  0.5244470000000  0.5258780000000 1.0
C      1  0.5322880000000  0.4529610000000  0.5452040000000 1.0
C      1  0.4556990000000  0.4887320000000  0.4228790000000 1.0
C      1  0.5635390000000  0.4726020000000  0.4370590000000 1.0
C      1  0.5047150000000  0.5657110000000  0.4843000000000 1.0
C      1  0.5107310000000  0.5004050000000  0.4477560000000 1.0
C      1  0.4448800000000  0.5140790000000  0.4924870000000 1.0
C      1  0.4733840000000  0.4658420000000  0.5643380000000 1.0
C      1  0.4375380000000  0.4684440000000  0.4782910000000 1.0
C      1  0.5639910000000  0.5294040000000  0.4811330000000 1.0
C      1  0.5611860000000  0.5214960000000  0.5515850000000 1.0
C      1  0.4330790000000  0.4706310000000  0.5060760000000 1.0
C      1  0.5136170000000  0.5816570000000  0.5246530000000 1.0
C      1  0.4687350000000  0.5108950000000  0.5537890000000 1.0
C      1  0.4432190000000  0.5427590000000  0.4913610000000 1.0
C      1  0.4832700000000  0.4925840000000  0.5700690000000 1.0
C      1  0.4396380000000  0.4517900000000  0.5263350000000 1.0
C      1  0.5197440000000  0.4961300000000  0.4216440000000 1.0
C      1  0.5168110000000  0.5276440000000  0.5742750000000 1.0
C      1  0.4625260000000  0.4988340000000  0.4486930000000 1.0
C      1  0.4754280000000  0.4356810000000  0.4476610000000 1.0
C      1  0.4787560000000  0.4447280000000  0.5793310000000 1.0
C      1  0.5448120000000  0.4845640000000  0.4208760000000 1.0
C      1  0.5389080000000  0.5801160000000  0.5121390000000 1.0
C      1  0.5276910000000  0.4341420000000  0.4996000000000 1.0
C      1  0.4357620000000  0.4980560000000  0.5145680000000 1.0
C      1  0.4922900000000  0.5788530000000  0.5060420000000 1.0
C      1  0.5000380000000  0.5472360000000  0.5614580000000 1.0
C      1  0.5510060000000  0.5520410000000  0.4750210000000 1.0
C      1  0.5103290000000  0.5703840000000  0.5499640000000 1.0
C      1  0.5435580000000  0.5014930000000  0.5629090000000 1.0
C      1  0.5087310000000  0.5010870000000  0.5796080000000 1.0
C      1  0.5690170000000  0.4746840000000  0.4749140000000 1.0
C      1  0.4996160000000  0.4864650000000  0.4044570000000 1.0
C      1  0.4883740000000  0.4839910000000  0.4560780000000 1.0
C      1  0.4793930000000  0.4144430000000  0.4644480000000 1.0
C      1  0.4741220000000  0.5387950000000  0.5524980000000 1.0
C      1  0.5506920000000  0.4743490000000  0.5529120000000 1.0
C      1  0.5050100000000  0.5166850000000  0.5049900000000 1.0
C      1  0.4833330000000  0.4169010000000  0.4917470000000 1.0
C      1  0.5618540000000  0.4657940000000  0.5235680000000 1.0
C      1  0.4880120000000  0.4587240000000  0.4387420000000 1.0
C      1  0.4773400000000  0.4721780000000  0.4144260000000 1.0
END
