TITL C-38197-8510-224 3.19683750233472e-05 125000 -360.437813689948 0 0 60 (C3) n - 1
REM
REM in /home/bkarasulu/CARBON/AIRSS/Generating-Clusters/EDIP-Nigel-Params/Higher-Symm/Box-15A/Only-C60/SD-CG/FIRE-HFTN
REM
REM
REM
REM
REM
REM ./C.cell (414f73aa93bd7a1190c7fd0f31ff2f98)
REM
REM compiler GCC version 9.2.1 20190827 (Red Hat 9.2.1-1)
REM options -cpp -mtune=generic -march=x86-64 -g -O0 -fpre-include=/usr/include/finclude/math-vector-fortran.h
REM seed 2098544218 -1192263807 449311755 -2015744652 -629579394 -2061693752 -134021836 -718823810 149371219 1587223101 -1269846283 167453188 1629159628 -591546630 1575575288 -269293881 851967314 -1885785808 1366981507 -2137552456 -1747436286 935797733 -815227299 -1435288512 1373595932 1359798128 -1367785568 -1014249540 1614917771 796995223 -674025840 1527418676 921817797
REM
CELL 1.54180   50.00000   50.00000   50.00000   90.00000   90.00000   90.00000
LATT -1
SFAC C  
C      1  0.4781630000000  0.5322070000000  0.5083390000000 1.0
C      1  0.4781630000000  0.4911180000000  0.4679380000000 1.0
C      1  0.4781630000000  0.4766750000000  0.5237230000000 1.0
C      1  0.5579510000000  0.4910580000000  0.4590610000000 1.0
C      1  0.5579510000000  0.4690170000000  0.5282130000000 1.0
C      1  0.5579510000000  0.5399250000000  0.5127260000000 1.0
C      1  0.5399990000000  0.4479940000000  0.5374330000000 1.0
C      1  0.5400000000000  0.5584210000000  0.5263210000000 1.0
C      1  0.5399990000000  0.4935850000000  0.4362450000000 1.0
C      1  0.5200520000000  0.4907130000000  0.5482030000000 1.0
C      1  0.5200520000000  0.5463890000000  0.4839410000000 1.0
C      1  0.5200520000000  0.4628980000000  0.4678560000000 1.0
C      1  0.4884360000000  0.4554800000000  0.5041080000000 1.0
C      1  0.4884360000000  0.5258170000000  0.5365020000000 1.0
C      1  0.4884360000000  0.5187030000000  0.4593910000000 1.0
C      1  0.4838190000000  0.5094250000000  0.5796070000000 1.0
C      1  0.4838190000000  0.5642290000000  0.4520340000000 1.0
C      1  0.4838190000000  0.4263460000000  0.4683580000000 1.0
C      1  0.4464690000000  0.4312980000000  0.4994330000000 1.0
C      1  0.4464690000000  0.5338600000000  0.5597810000000 1.0
C      1  0.4464690000000  0.5348420000000  0.4407860000000 1.0
C      1  0.4929570000000  0.5760030000000  0.5180010000000 1.0
C      1  0.4929570000000  0.4775880000000  0.4251790000000 1.0
C      1  0.4929570000000  0.4464090000000  0.5568200000000 1.0
C      1  0.5495230000000  0.4946620000000  0.5397770000000 1.0
C      1  0.5495230000000  0.5371170000000  0.4847340000000 1.0
C      1  0.5495230000000  0.4682210000000  0.4754890000000 1.0
C      1  0.4696280000000  0.4637490000000  0.5494270000000 1.0
C      1  0.4696280000000  0.5609310000000  0.5066810000000 1.0
C      1  0.4696280000000  0.4753200000000  0.4438920000000 1.0
C      1  0.5188580000000  0.4732280000000  0.4397080000000 1.0
C      1  0.5188580000000  0.4611720000000  0.5533310000000 1.0
C      1  0.5188580000000  0.5656000000000  0.5069610000000 1.0
C      1  0.5324830000000  0.5497060000000  0.5521540000000 1.0
C      1  0.5324830000000  0.5203140000000  0.4308760000000 1.0
C      1  0.5324830000000  0.4299800000000  0.5169700000000 1.0
C      1  0.5010520000000  0.4802460000000  0.4863230000000 1.0
C      1  0.5010520000000  0.4980320000000  0.5239460000000 1.0
C      1  0.5010520000000  0.5217220000000  0.4897310000000 1.0
C      1  0.4687920000000  0.4415030000000  0.4866070000000 1.0
C      1  0.4687920000000  0.5176490000000  0.5573560000000 1.0
C      1  0.4687920000000  0.5408470000000  0.4560370000000 1.0
C      1  0.5043940000000  0.4313040000000  0.5169290000000 1.0
C      1  0.5043940000000  0.5490080000000  0.5510280000000 1.0
C      1  0.5043940000000  0.5196870000000  0.4320440000000 1.0
C      1  0.4464360000000  0.4481890000000  0.5453820000000 1.0
C      1  0.4464360000000  0.5652080000000  0.5221780000000 1.0
C      1  0.4464360000000  0.4866030000000  0.4324390000000 1.0
C      1  0.4368290000000  0.5116660000000  0.4315540000000 1.0
C      1  0.4368290000000  0.4348910000000  0.5241200000000 1.0
C      1  0.4368290000000  0.5534430000000  0.5443260000000 1.0
C      1  0.5616630000000  0.4674580000000  0.5006120000000 1.0
C      1  0.5616630000000  0.5168010000000  0.5278760000000 1.0
C      1  0.5616630000000  0.5157410000000  0.4715120000000 1.0
C      1  0.4930700000000  0.5747480000000  0.5465800000000 1.0
C      1  0.4930700000000  0.5029660000000  0.4119760000000 1.0
C      1  0.4930700000000  0.4222870000000  0.5414430000000 1.0
C      1  0.5094260000000  0.4358190000000  0.4675160000000 1.0
C      1  0.5094260000000  0.5039590000000  0.5718240000000 1.0
C      1  0.5094260000000  0.5602220000000  0.4606600000000 1.0
END
