TITL C-38194-9318-247 -2.34033997764604e-06 125000 -352.764290389265 0 0 60 (C3) n - 1
REM
REM in /home/bkarasulu/CARBON/AIRSS/Generating-Clusters/EDIP-Nigel-Params/Higher-Symm/Box-15A/Only-C60/SD-CG/FIRE-HFTN
REM
REM
REM
REM
REM
REM ./C.cell (414f73aa93bd7a1190c7fd0f31ff2f98)
REM
REM compiler GCC version 9.2.1 20190827 (Red Hat 9.2.1-1)
REM options -cpp -mtune=generic -march=x86-64 -g -O0 -fpre-include=/usr/include/finclude/math-vector-fortran.h
REM seed -1507342341 -331649285 1709174950 -1576881279 1244845289 1207619329 1656549310 1476134585 176301988 951754827 1425970740 -563016937 1479895901 -136981903 -1023174752 -1930428871 -801321391 1139533884 -1074641963 -827754631 -146802563 -1715088308 574857547 128916471 981308969 800390280 1777681320 1457565424 -1245525057 1948656800 -885969528 -1875440256 2026762296
REM
CELL 1.54180   50.00000   50.00000   50.00000   90.00000   90.00000   90.00000
LATT -1
SFAC C  
C      1  0.4816020000000  0.4762030000000  0.4905970000000 1.0
C      1  0.5173420000000  0.4762030000000  0.4887690000000 1.0
C      1  0.5010550000000  0.4762030000000  0.5206340000000 1.0
C      1  0.5354420000000  0.5340800000000  0.4862130000000 1.0
C      1  0.4942190000000  0.5340800000000  0.5375870000000 1.0
C      1  0.4703400000000  0.5340800000000  0.4762000000000 1.0
C      1  0.4444540000000  0.5400690000000  0.5508920000000 1.0
C      1  0.4836990000000  0.5400690000000  0.4264500000000 1.0
C      1  0.5718470000000  0.5400690000000  0.5226580000000 1.0
C      1  0.5293440000000  0.4834090000000  0.4482020000000 1.0
C      1  0.5301860000000  0.4834090000000  0.5513120000000 1.0
C      1  0.4404700000000  0.4834090000000  0.5004860000000 1.0
C      1  0.5655640000000  0.5394000000000  0.4951500000000 1.0
C      1  0.4714180000000  0.5394000000000  0.5592050000000 1.0
C      1  0.4630180000000  0.5394000000000  0.4456450000000 1.0
C      1  0.4374240000000  0.5147640000000  0.5397080000000 1.0
C      1  0.4969000000000  0.5147640000000  0.4259540000000 1.0
C      1  0.5656760000000  0.5147640000000  0.5343380000000 1.0
C      1  0.4916880000000  0.5077100000000  0.5203250000000 1.0
C      1  0.4865540000000  0.5077100000000  0.4826390000000 1.0
C      1  0.5217580000000  0.5077100000000  0.4970360000000 1.0
C      1  0.5047560000000  0.4773280000000  0.5651140000000 1.0
C      1  0.4412310000000  0.4773280000000  0.4715620000000 1.0
C      1  0.5540130000000  0.4773280000000  0.4633240000000 1.0
C      1  0.5104790000000  0.4610880000000  0.4478540000000 1.0
C      1  0.5399200000000  0.4610880000000  0.5351480000000 1.0
C      1  0.4496010000000  0.4610880000000  0.5169980000000 1.0
C      1  0.4589350000000  0.5098720000000  0.4483010000000 1.0
C      1  0.5653050000000  0.5098720000000  0.4902860000000 1.0
C      1  0.4757600000000  0.5098720000000  0.5614130000000 1.0
C      1  0.5023730000000  0.5633790000000  0.4821570000000 1.0
C      1  0.5142660000000  0.5633790000000  0.5109770000000 1.0
C      1  0.4833610000000  0.5633790000000  0.5068660000000 1.0
C      1  0.5158430000000  0.5601500000000  0.4570470000000 1.0
C      1  0.5292770000000  0.5601500000000  0.5351970000000 1.0
C      1  0.4548800000000  0.5601500000000  0.5077560000000 1.0
C      1  0.4565630000000  0.4361400000000  0.5061410000000 1.0
C      1  0.5164000000000  0.4361400000000  0.4593110000000 1.0
C      1  0.5270370000000  0.4361400000000  0.5345470000000 1.0
C      1  0.5604740000000  0.4667720000000  0.5151210000000 1.0
C      1  0.4566680000000  0.4667720000000  0.5448110000000 1.0
C      1  0.4828590000000  0.4667720000000  0.4400680000000 1.0
C      1  0.5764710000000  0.4908580000000  0.5211160000000 1.0
C      1  0.4434780000000  0.4908580000000  0.5556680000000 1.0
C      1  0.4800510000000  0.4908580000000  0.4232160000000 1.0
C      1  0.5222340000000  0.5359250000000  0.5478550000000 1.0
C      1  0.4474390000000  0.5359250000000  0.4953270000000 1.0
C      1  0.5303270000000  0.5359250000000  0.4568170000000 1.0
C      1  0.5117710000000  0.4323230000000  0.4867200000000 1.0
C      1  0.5056150000000  0.4323230000000  0.5168340000000 1.0
C      1  0.4826140000000  0.4323230000000  0.4964460000000 1.0
C      1  0.5385940000000  0.5113670000000  0.5441770000000 1.0
C      1  0.4424450000000  0.5113670000000  0.5113350000000 1.0
C      1  0.5189620000000  0.5113670000000  0.4444880000000 1.0
C      1  0.4849020000000  0.4603090000000  0.5514550000000 1.0
C      1  0.4629880000000  0.4603090000000  0.4611970000000 1.0
C      1  0.5521110000000  0.4603090000000  0.4873480000000 1.0
C      1  0.4942490000000  0.4988540000000  0.5803220000000 1.0
C      1  0.4333150000000  0.4988540000000  0.4548590000000 1.0
C      1  0.5724360000000  0.4988540000000  0.4648200000000 1.0
END
