TITL C-38196-2854-65 -1.39204703794851e-06 125000 -371.511556730051 0 0 60 (C2h) n - 1
REM
REM in /home/bkarasulu/CARBON/AIRSS/Generating-Clusters/EDIP-Nigel-Params/Higher-Symm/Box-15A/Only-C60/SD-CG/FIRE-HFTN
REM
REM
REM
REM
REM
REM ./C.cell (414f73aa93bd7a1190c7fd0f31ff2f98)
REM
REM compiler GCC version 9.2.1 20190827 (Red Hat 9.2.1-1)
REM options -cpp -mtune=generic -march=x86-64 -g -O0 -fpre-include=/usr/include/finclude/math-vector-fortran.h
REM seed 724541519 1741781435 -630891698 1315565651 -191131081 1621945357 -1597894569 1316948568 360520096 -566956962 -799703788 522912476 2024786232 1312296462 1924053417 1418332880 918193278 715166587 1320368826 -1941125121 323774242 -1356621626 1703425556 286552432 -799530491 1344320614 846044976 -1769414284 917343971 1802553295 -1935214758 -1815015724 -664319791
REM
CELL 1.54180   50.00000   50.00000   50.00000   90.00000   90.00000   90.00000
LATT -1
SFAC C  
C      1  0.4703560000000  0.5406230000000  0.4346250000000 1.0
C      1  0.4703560000000  0.4593770000000  0.5653750000000 1.0
C      1  0.5296440000000  0.5406230000000  0.4346250000000 1.0
C      1  0.5296440000000  0.4593770000000  0.5653750000000 1.0
C      1  0.4842760000000  0.5111540000000  0.5128630000000 1.0
C      1  0.4842760000000  0.4888460000000  0.4871370000000 1.0
C      1  0.5157240000000  0.5111540000000  0.5128630000000 1.0
C      1  0.5157240000000  0.4888460000000  0.4871370000000 1.0
C      1  0.4860350000000  0.4419990000000  0.5106480000000 1.0
C      1  0.4860350000000  0.5580010000000  0.4893520000000 1.0
C      1  0.5139650000000  0.4419990000000  0.5106480000000 1.0
C      1  0.5139650000000  0.5580010000000  0.4893520000000 1.0
C      1  0.4440790000000  0.5402200000000  0.5028070000000 1.0
C      1  0.4440790000000  0.4597800000000  0.4971930000000 1.0
C      1  0.5559210000000  0.5402200000000  0.5028070000000 1.0
C      1  0.5559210000000  0.4597800000000  0.4971930000000 1.0
C      1  0.4702970000000  0.5718750000000  0.4709440000000 1.0
C      1  0.4702970000000  0.4281250000000  0.5290560000000 1.0
C      1  0.5297030000000  0.5718750000000  0.4709440000000 1.0
C      1  0.5297030000000  0.4281250000000  0.5290560000000 1.0
C      1  0.4731260000000  0.4972690000000  0.4589320000000 1.0
C      1  0.4731260000000  0.5027310000000  0.5410680000000 1.0
C      1  0.5268740000000  0.4972690000000  0.4589320000000 1.0
C      1  0.5268740000000  0.5027310000000  0.5410680000000 1.0
C      1  0.5565210000000  0.5051230000000  0.4638160000000 1.0
C      1  0.5565210000000  0.4948770000000  0.5361840000000 1.0
C      1  0.4434790000000  0.5051230000000  0.4638160000000 1.0
C      1  0.4434790000000  0.4948770000000  0.5361840000000 1.0
C      1  0.5160150000000  0.4723270000000  0.4434920000000 1.0
C      1  0.5160150000000  0.5276730000000  0.5565080000000 1.0
C      1  0.4839850000000  0.4723270000000  0.4434920000000 1.0
C      1  0.4839850000000  0.5276730000000  0.5565080000000 1.0
C      1  0.4859300000000  0.5203300000000  0.4457890000000 1.0
C      1  0.4859300000000  0.4796700000000  0.5542110000000 1.0
C      1  0.5140700000000  0.5203300000000  0.4457890000000 1.0
C      1  0.5140700000000  0.4796700000000  0.5542110000000 1.0
C      1  0.5432020000000  0.5520610000000  0.4563920000000 1.0
C      1  0.5432020000000  0.4479390000000  0.5436080000000 1.0
C      1  0.4567980000000  0.5520610000000  0.4563920000000 1.0
C      1  0.4567980000000  0.4479390000000  0.5436080000000 1.0
C      1  0.4842470000000  0.4485620000000  0.4625500000000 1.0
C      1  0.4842470000000  0.5514380000000  0.5374500000000 1.0
C      1  0.5157530000000  0.4485620000000  0.4625500000000 1.0
C      1  0.5157530000000  0.5514380000000  0.5374500000000 1.0
C      1  0.5258760000000  0.4588950000000  0.4896670000000 1.0
C      1  0.5258760000000  0.5411050000000  0.5103330000000 1.0
C      1  0.4741240000000  0.4588950000000  0.4896670000000 1.0
C      1  0.4741240000000  0.5411050000000  0.5103330000000 1.0
C      1  0.4256350000000  0.5121630000000  0.5223150000000 1.0
C      1  0.4256350000000  0.4878370000000  0.4776850000000 1.0
C      1  0.5743650000000  0.5121630000000  0.5223150000000 1.0
C      1  0.5743650000000  0.4878370000000  0.4776850000000 1.0
C      1  0.5763550000000  0.4605730000000  0.4764460000000 1.0
C      1  0.5763550000000  0.5394270000000  0.5235540000000 1.0
C      1  0.4236450000000  0.4605730000000  0.4764460000000 1.0
C      1  0.4236450000000  0.5394270000000  0.5235540000000 1.0
C      1  0.4404440000000  0.5336120000000  0.4727000000000 1.0
C      1  0.4404440000000  0.4663880000000  0.5273000000000 1.0
C      1  0.5595560000000  0.5336120000000  0.4727000000000 1.0
C      1  0.5595560000000  0.4663880000000  0.5273000000000 1.0
END
