TITL C-38190-6388-67 7.27016761568206e-06 125000 -371.85211838044 0 0 60 (Ci) n - 1
REM
REM in /home/bkarasulu/CARBON/AIRSS/Generating-Clusters/EDIP-Nigel-Params/Higher-Symm/Box-15A/Only-C60/SD-CG/FIRE-HFTN
REM
REM
REM
REM
REM
REM ./C.cell (414f73aa93bd7a1190c7fd0f31ff2f98)
REM
REM compiler GCC version 9.2.1 20190827 (Red Hat 9.2.1-1)
REM options -cpp -mtune=generic -march=x86-64 -g -O0 -fpre-include=/usr/include/finclude/math-vector-fortran.h
REM seed 90841798 2079100850 -421547625 -680590000 -1383012680 575692396 -329779357 -64573082 1189802807 1055731911 -1904889783 -1546016076 -409433696 -1232366371 1153263526 1337276567 1441819341 1896799671 -857851902 383910452 -571289406 -169640816 881464043 -607947191 -2062990124 1021460118 818280482 1243502540 1071289075 116656172 -754620415 253571429 1840413970
REM
CELL 1.54180   50.00000   50.00000   50.00000   90.00000   90.00000   90.00000
LATT -1
SFAC C  
C      1  0.4379610000000  0.5288350000000  0.5205850000000 1.0
C      1  0.5620390000000  0.4711650000000  0.4794150000000 1.0
C      1  0.5165580000000  0.4910390000000  0.5691370000000 1.0
C      1  0.4834420000000  0.5089610000000  0.4308630000000 1.0
C      1  0.5028190000000  0.4409750000000  0.4874910000000 1.0
C      1  0.4971810000000  0.5590250000000  0.5125090000000 1.0
C      1  0.5484400000000  0.5302700000000  0.5431900000000 1.0
C      1  0.4515600000000  0.4697300000000  0.4568100000000 1.0
C      1  0.5245280000000  0.4280490000000  0.5272190000000 1.0
C      1  0.4754720000000  0.5719510000000  0.4727810000000 1.0
C      1  0.5047220000000  0.5124270000000  0.4987420000000 1.0
C      1  0.4952780000000  0.4875730000000  0.5012580000000 1.0
C      1  0.5787130000000  0.5160630000000  0.5086950000000 1.0
C      1  0.4212870000000  0.4839370000000  0.4913050000000 1.0
C      1  0.4798960000000  0.4680530000000  0.4550230000000 1.0
C      1  0.5201040000000  0.5319470000000  0.5449770000000 1.0
C      1  0.5639450000000  0.5454700000000  0.4742490000000 1.0
C      1  0.4360550000000  0.4545300000000  0.5257510000000 1.0
C      1  0.4747590000000  0.4769810000000  0.5640750000000 1.0
C      1  0.5252410000000  0.5230190000000  0.4359250000000 1.0
C      1  0.4799730000000  0.4519470000000  0.5490670000000 1.0
C      1  0.5200270000000  0.5480530000000  0.4509330000000 1.0
C      1  0.4395770000000  0.4907790000000  0.4714680000000 1.0
C      1  0.5604230000000  0.5092210000000  0.5285320000000 1.0
C      1  0.5422850000000  0.4521830000000  0.4378780000000 1.0
C      1  0.4577150000000  0.5478170000000  0.5621220000000 1.0
C      1  0.5572350000000  0.4985640000000  0.4694850000000 1.0
C      1  0.4427650000000  0.5014360000000  0.5305150000000 1.0
C      1  0.4621620000000  0.4464400000000  0.5270460000000 1.0
C      1  0.5378380000000  0.5535600000000  0.4729540000000 1.0
C      1  0.4750080000000  0.5240450000000  0.4548410000000 1.0
C      1  0.5249920000000  0.4759550000000  0.5451590000000 1.0
C      1  0.5173590000000  0.4195930000000  0.4996970000000 1.0
C      1  0.4826410000000  0.5804070000000  0.5003030000000 1.0
C      1  0.4412670000000  0.5490240000000  0.5397280000000 1.0
C      1  0.5587330000000  0.4509760000000  0.4602720000000 1.0
C      1  0.5059280000000  0.5175520000000  0.4161240000000 1.0
C      1  0.4940720000000  0.4824480000000  0.5838760000000 1.0
C      1  0.5079880000000  0.4528610000000  0.5354510000000 1.0
C      1  0.4920120000000  0.5471390000000  0.4645490000000 1.0
C      1  0.4962220000000  0.4445640000000  0.4594470000000 1.0
C      1  0.5037780000000  0.5554360000000  0.5405530000000 1.0
C      1  0.4545000000000  0.4977950000000  0.5574000000000 1.0
C      1  0.5455000000000  0.5022050000000  0.4426000000000 1.0
C      1  0.4771110000000  0.4809580000000  0.4298170000000 1.0
C      1  0.5228890000000  0.5190420000000  0.5701830000000 1.0
C      1  0.5540650000000  0.4640610000000  0.5069680000000 1.0
C      1  0.4459350000000  0.5359390000000  0.4930320000000 1.0
C      1  0.5466850000000  0.4837470000000  0.5272340000000 1.0
C      1  0.4533150000000  0.5162530000000  0.4727660000000 1.0
C      1  0.4578250000000  0.5216880000000  0.5715290000000 1.0
C      1  0.5421750000000  0.4783120000000  0.4284710000000 1.0
C      1  0.5493780000000  0.4363490000000  0.5136640000000 1.0
C      1  0.4506220000000  0.5636510000000  0.4863360000000 1.0
C      1  0.5171730000000  0.4408910000000  0.4414320000000 1.0
C      1  0.4828270000000  0.5591090000000  0.5585680000000 1.0
C      1  0.5071940000000  0.5399930000000  0.4921860000000 1.0
C      1  0.4928060000000  0.4600070000000  0.5078140000000 1.0
C      1  0.4288380000000  0.4798990000000  0.5177230000000 1.0
C      1  0.5711620000000  0.5201010000000  0.4822770000000 1.0
END
