TITL C-38189-4514-86 0.000137444477309053 125000 -362.403309539331 0 0 60 (Ci) n - 1
REM
REM in /home/bkarasulu/CARBON/AIRSS/Generating-Clusters/EDIP-Nigel-Params/Higher-Symm/Box-15A/Only-C60/SD-CG/FIRE-HFTN
REM
REM
REM
REM
REM
REM ./C.cell (414f73aa93bd7a1190c7fd0f31ff2f98)
REM
REM compiler GCC version 9.2.1 20190827 (Red Hat 9.2.1-1)
REM options -cpp -mtune=generic -march=x86-64 -g -O0 -fpre-include=/usr/include/finclude/math-vector-fortran.h
REM seed 744058891 -1443045776 -519215854 -868687836 -1660187967 790430213 -285325668 -2094114177 2017598429 -1953000899 -1475366709 805042594 -176124300 -1390407411 -2124886001 409720581 832386387 1163573415 -545813162 -1317438747 -1832300112 -161122062 -112185750 1165432856 1288692068 1720558004 170943360 -1493728418 1518930842 -1369009488 -190931909 -1029470107 -1555808957
REM
CELL 1.54180   50.00000   50.00000   50.00000   90.00000   90.00000   90.00000
LATT -1
SFAC C  
C      1  0.5399830000000  0.4803770000000  0.4466200000000 1.0
C      1  0.4600170000000  0.5196230000000  0.5533800000000 1.0
C      1  0.4592790000000  0.4841160000000  0.4522240000000 1.0
C      1  0.5407210000000  0.5158840000000  0.5477760000000 1.0
C      1  0.5093110000000  0.5734210000000  0.5113430000000 1.0
C      1  0.4906890000000  0.4265790000000  0.4886570000000 1.0
C      1  0.4556320000000  0.5415130000000  0.5363180000000 1.0
C      1  0.5443680000000  0.4584870000000  0.4636820000000 1.0
C      1  0.5148230000000  0.5312710000000  0.5444380000000 1.0
C      1  0.4851770000000  0.4687290000000  0.4555620000000 1.0
C      1  0.5228030000000  0.4759200000000  0.4231840000000 1.0
C      1  0.4771970000000  0.5240800000000  0.5768160000000 1.0
C      1  0.5674730000000  0.4924550000000  0.4939810000000 1.0
C      1  0.4325270000000  0.5075450000000  0.5060190000000 1.0
C      1  0.4710730000000  0.4921220000000  0.5462850000000 1.0
C      1  0.5289270000000  0.5078780000000  0.4537150000000 1.0
C      1  0.4379170000000  0.5227520000000  0.4845120000000 1.0
C      1  0.5620830000000  0.4772480000000  0.5154880000000 1.0
C      1  0.5443030000000  0.5623220000000  0.5402030000000 1.0
C      1  0.4556970000000  0.4376780000000  0.4597970000000 1.0
C      1  0.4985760000000  0.4607370000000  0.4282380000000 1.0
C      1  0.5014240000000  0.5392630000000  0.5717620000000 1.0
C      1  0.5396320000000  0.4662170000000  0.5277060000000 1.0
C      1  0.4603680000000  0.5337830000000  0.4722940000000 1.0
C      1  0.4832210000000  0.4868420000000  0.5731520000000 1.0
C      1  0.5167790000000  0.5131580000000  0.4268480000000 1.0
C      1  0.4919660000000  0.5277190000000  0.4318020000000 1.0
C      1  0.5080340000000  0.4722810000000  0.5681980000000 1.0
C      1  0.5653110000000  0.5193120000000  0.4875180000000 1.0
C      1  0.4346890000000  0.4806880000000  0.5124820000000 1.0
C      1  0.4990410000000  0.4437860000000  0.5095560000000 1.0
C      1  0.5009590000000  0.5562140000000  0.4904440000000 1.0
C      1  0.4912080000000  0.4724110000000  0.5045860000000 1.0
C      1  0.5087920000000  0.5275890000000  0.4954140000000 1.0
C      1  0.5410190000000  0.4430230000000  0.4855450000000 1.0
C      1  0.4589810000000  0.5569770000000  0.5144550000000 1.0
C      1  0.4998750000000  0.4456380000000  0.5656250000000 1.0
C      1  0.5001250000000  0.5543620000000  0.4343750000000 1.0
C      1  0.5241710000000  0.5632100000000  0.4429530000000 1.0
C      1  0.4758290000000  0.4367900000000  0.5570470000000 1.0
C      1  0.5040330000000  0.5083000000000  0.4724980000000 1.0
C      1  0.4959670000000  0.4917000000000  0.5275020000000 1.0
C      1  0.5002170000000  0.5650250000000  0.5575710000000 1.0
C      1  0.4997830000000  0.4349750000000  0.4424290000000 1.0
C      1  0.4809410000000  0.4258010000000  0.4624480000000 1.0
C      1  0.5190590000000  0.5741990000000  0.5375520000000 1.0
C      1  0.5498050000000  0.5272530000000  0.4636490000000 1.0
C      1  0.4501950000000  0.4727470000000  0.5363510000000 1.0
C      1  0.5573810000000  0.5378870000000  0.5360990000000 1.0
C      1  0.4426190000000  0.4621130000000  0.4639010000000 1.0
C      1  0.5006820000000  0.4800440000000  0.4785180000000 1.0
C      1  0.4993180000000  0.5199560000000  0.5214820000000 1.0
C      1  0.5675890000000  0.5353170000000  0.5101220000000 1.0
C      1  0.4324110000000  0.4646830000000  0.4898780000000 1.0
C      1  0.5213740000000  0.4846110000000  0.5436700000000 1.0
C      1  0.4786260000000  0.5153890000000  0.4563300000000 1.0
C      1  0.4543800000000  0.4461790000000  0.5437170000000 1.0
C      1  0.5456200000000  0.5538210000000  0.4562830000000 1.0
C      1  0.5288830000000  0.4445390000000  0.5110260000000 1.0
C      1  0.4711170000000  0.5554610000000  0.4889740000000 1.0
END
