TITL C-38197-8510-129 0.000122027419863821 125000 -352.463171296156 0 0 60 (C3) n - 1
REM
REM in /home/bkarasulu/CARBON/AIRSS/Generating-Clusters/EDIP-Nigel-Params/Higher-Symm/Box-15A/Only-C60/SD-CG/FIRE-HFTN
REM
REM
REM
REM
REM
REM ./C.cell (414f73aa93bd7a1190c7fd0f31ff2f98)
REM
REM compiler GCC version 9.2.1 20190827 (Red Hat 9.2.1-1)
REM options -cpp -mtune=generic -march=x86-64 -g -O0 -fpre-include=/usr/include/finclude/math-vector-fortran.h
REM seed -1651886989 674595144 1841305512 -221231626 -175280623 -1935063272 782759596 923340207 1764739462 -454146802 955420705 2002714133 -2088031262 1869150388 481711437 -2006180104 808110116 -76503012 -1684587315 -2096277130 -920332402 -1072857934 423398555 -728996 840822846 235753601 974497387 -2127648587 992694138 -543294043 -879880131 170240574 -136656386
REM
CELL 1.54180   50.00000   50.00000   50.00000   90.00000   90.00000   90.00000
LATT -1
SFAC C  
C      1  0.4777090000000  0.4967100000000  0.4795760000000 1.0
C      1  0.5288340000000  0.4967100000000  0.4909070000000 1.0
C      1  0.4934580000000  0.4967070000000  0.5295170000000 1.0
C      1  0.5224950000000  0.4514620000000  0.5155860000000 1.0
C      1  0.4752540000000  0.4514610000000  0.5116830000000 1.0
C      1  0.5022540000000  0.4514640000000  0.4727220000000 1.0
C      1  0.5133120000000  0.4665580000000  0.5646670000000 1.0
C      1  0.4373400000000  0.4665620000000  0.4791920000000 1.0
C      1  0.5493500000000  0.4665660000000  0.4561350000000 1.0
C      1  0.4955320000000  0.5108800000000  0.5799720000000 1.0
C      1  0.4329760000000  0.5108870000000  0.4561460000000 1.0
C      1  0.5714910000000  0.5108890000000  0.4638840000000 1.0
C      1  0.5575130000000  0.5402700000000  0.5584670000000 1.0
C      1  0.4206110000000  0.5402690000000  0.5205790000000 1.0
C      1  0.5218740000000  0.5402780000000  0.4209620000000 1.0
C      1  0.4513890000000  0.4558560000000  0.5300160000000 1.0
C      1  0.4983100000000  0.4558630000000  0.4428880000000 1.0
C      1  0.5503040000000  0.4558580000000  0.5270870000000 1.0
C      1  0.5508600000000  0.4461290000000  0.4784650000000 1.0
C      1  0.4932190000000  0.4461230000000  0.5548080000000 1.0
C      1  0.4559240000000  0.4461280000000  0.4667170000000 1.0
C      1  0.5650970000000  0.4609880000000  0.5002980000000 1.0
C      1  0.4671930000000  0.4609830000000  0.5562220000000 1.0
C      1  0.4677130000000  0.4609900000000  0.4434720000000 1.0
C      1  0.4160850000000  0.4896600000000  0.5185800000000 1.0
C      1  0.5258670000000  0.4896680000000  0.4180360000000 1.0
C      1  0.5580490000000  0.4896600000000  0.5633820000000 1.0
C      1  0.5094680000000  0.5749980000000  0.4850280000000 1.0
C      1  0.5082340000000  0.5749960000000  0.5156940000000 1.0
C      1  0.4822940000000  0.5749960000000  0.4992920000000 1.0
C      1  0.4624600000000  0.5334860000000  0.5417790000000 1.0
C      1  0.4825890000000  0.5334930000000  0.4466030000000 1.0
C      1  0.5549490000000  0.5334900000000  0.5116240000000 1.0
C      1  0.5180030000000  0.4838260000000  0.5156070000000 1.0
C      1  0.4774820000000  0.4838250000000  0.5077860000000 1.0
C      1  0.5045160000000  0.4838280000000  0.4766040000000 1.0
C      1  0.4102370000000  0.5156390000000  0.5201100000000 1.0
C      1  0.5274660000000  0.5156480000000  0.4122100000000 1.0
C      1  0.5622960000000  0.5156390000000  0.5676840000000 1.0
C      1  0.4773790000000  0.4397310000000  0.4845540000000 1.0
C      1  0.5246850000000  0.4397320000000  0.4881260000000 1.0
C      1  0.4979390000000  0.4397290000000  0.5273080000000 1.0
C      1  0.4482070000000  0.5321330000000  0.4647030000000 1.0
C      1  0.5564650000000  0.5321350000000  0.4727980000000 1.0
C      1  0.4953260000000  0.5321280000000  0.5625050000000 1.0
C      1  0.5316450000000  0.5713600000000  0.5305110000000 1.0
C      1  0.4577560000000  0.5713600000000  0.5121580000000 1.0
C      1  0.5105940000000  0.5713640000000  0.4573450000000 1.0
C      1  0.5050850000000  0.5497320000000  0.4408420000000 1.0
C      1  0.5486910000000  0.5497270000000  0.5339890000000 1.0
C      1  0.4462210000000  0.5497260000000  0.5251790000000 1.0
C      1  0.5406300000000  0.4718680000000  0.5511800000000 1.0
C      1  0.4353610000000  0.4718680000000  0.5095930000000 1.0
C      1  0.5240110000000  0.4718740000000  0.4392210000000 1.0
C      1  0.4890020000000  0.5247780000000  0.5354170000000 1.0
C      1  0.4748270000000  0.5247820000000  0.4727700000000 1.0
C      1  0.5361690000000  0.5247820000000  0.4918180000000 1.0
C      1  0.4385390000000  0.4839190000000  0.4542300000000 1.0
C      1  0.5703680000000  0.4839200000000  0.4696560000000 1.0
C      1  0.4910940000000  0.4839120000000  0.5761100000000 1.0
END
