TITL C-38195-9455-57 0.000211659670115816 125000 -368.293426598333 0 0 60 (C1) n - 1
REM
REM in /home/bkarasulu/CARBON/AIRSS/Generating-Clusters/EDIP-Nigel-Params/Higher-Symm/Box-15A/Only-C60/SD-CG/FIRE-HFTN
REM
REM
REM
REM
REM
REM ./C.cell (414f73aa93bd7a1190c7fd0f31ff2f98)
REM
REM compiler GCC version 9.2.1 20190827 (Red Hat 9.2.1-1)
REM options -cpp -mtune=generic -march=x86-64 -g -O0 -fpre-include=/usr/include/finclude/math-vector-fortran.h
REM seed -637713485 -1371116417 1881188161 1354078474 1629581238 -666836540 140549700 -1776884510 543751570 1278551979 -1177320471 985848234 1597503580 701079803 1455262254 1072570686 -87107230 484431768 -105684587 -1541525439 1165037340 -79949681 702345178 2028701842 -1134591022 1879803122 1251332508 1585159449 469722297 -1402775530 1996496726 734561287 -1230554374
REM
CELL 1.54180   50.00000   50.00000   50.00000   90.00000   90.00000   90.00000
LATT -1
SFAC C  
C      1  0.4465090000000  0.5014310000000  0.5425500000000 1.0
C      1  0.5290840000000  0.5454860000000  0.5476190000000 1.0
C      1  0.5291540000000  0.4497970000000  0.5466970000000 1.0
C      1  0.5114050000000  0.5748630000000  0.4714890000000 1.0
C      1  0.5593660000000  0.4542260000000  0.4639090000000 1.0
C      1  0.4265420000000  0.4709150000000  0.4730990000000 1.0
C      1  0.4559990000000  0.4434520000000  0.5506390000000 1.0
C      1  0.4701470000000  0.5708810000000  0.5454440000000 1.0
C      1  0.5673570000000  0.4824930000000  0.5450290000000 1.0
C      1  0.4719590000000  0.4664550000000  0.4397060000000 1.0
C      1  0.4905270000000  0.5308870000000  0.4428860000000 1.0
C      1  0.5429580000000  0.4987980000000  0.4373810000000 1.0
C      1  0.5634390000000  0.5260800000000  0.4762970000000 1.0
C      1  0.4912500000000  0.4374120000000  0.4778770000000 1.0
C      1  0.4500790000000  0.5355500000000  0.4755410000000 1.0
C      1  0.5162170000000  0.4355630000000  0.4663320000000 1.0
C      1  0.4315530000000  0.5176970000000  0.4653000000000 1.0
C      1  0.5540750000000  0.5511030000000  0.4678540000000 1.0
C      1  0.4830120000000  0.5116060000000  0.5735220000000 1.0
C      1  0.5121360000000  0.5081920000000  0.5757740000000 1.0
C      1  0.5046010000000  0.4798680000000  0.5772610000000 1.0
C      1  0.5230770000000  0.4780090000000  0.4429120000000 1.0
C      1  0.4513360000000  0.4866180000000  0.4350390000000 1.0
C      1  0.5172990000000  0.5405600000000  0.4383190000000 1.0
C      1  0.4690290000000  0.5192560000000  0.5479850000000 1.0
C      1  0.5276650000000  0.5163480000000  0.5505370000000 1.0
C      1  0.5039400000000  0.4635600000000  0.5523270000000 1.0
C      1  0.5575930000000  0.5082180000000  0.5501610000000 1.0
C      1  0.4836440000000  0.4400040000000  0.5532700000000 1.0
C      1  0.4556100000000  0.5472610000000  0.5491700000000 1.0
C      1  0.4368980000000  0.5416240000000  0.5263360000000 1.0
C      1  0.5655970000000  0.5278910000000  0.5293640000000 1.0
C      1  0.4956350000000  0.4260020000000  0.5296670000000 1.0
C      1  0.5128510000000  0.5055600000000  0.5263880000000 1.0
C      1  0.4978590000000  0.4812000000000  0.5295640000000 1.0
C      1  0.4872240000000  0.5181870000000  0.5245150000000 1.0
C      1  0.4822900000000  0.5078480000000  0.4276480000000 1.0
C      1  0.5344970000000  0.5227550000000  0.4257120000000 1.0
C      1  0.4958750000000  0.4816510000000  0.4313870000000 1.0
C      1  0.5627110000000  0.5023610000000  0.4588300000000 1.0
C      1  0.4708990000000  0.4532080000000  0.4655260000000 1.0
C      1  0.4732610000000  0.5454780000000  0.4610140000000 1.0
C      1  0.5507840000000  0.5517560000000  0.5321330000000 1.0
C      1  0.5238190000000  0.4282640000000  0.5305010000000 1.0
C      1  0.4277920000000  0.5148150000000  0.5276850000000 1.0
C      1  0.4707600000000  0.5695280000000  0.5011570000000 1.0
C      1  0.5728450000000  0.4867030000000  0.5012600000000 1.0
C      1  0.4538150000000  0.4428400000000  0.5063960000000 1.0
C      1  0.5334190000000  0.4530500000000  0.4537010000000 1.0
C      1  0.4310980000000  0.4918750000000  0.4550610000000 1.0
C      1  0.5293180000000  0.5588520000000  0.4573580000000 1.0
C      1  0.5686280000000  0.5152430000000  0.5030270000000 1.0
C      1  0.4813980000000  0.4340400000000  0.5051540000000 1.0
C      1  0.4488460000000  0.5505660000000  0.5006290000000 1.0
C      1  0.4855630000000  0.5662190000000  0.4768270000000 1.0
C      1  0.5691610000000  0.4784270000000  0.4738800000000 1.0
C      1  0.4467660000000  0.4535140000000  0.4806540000000 1.0
C      1  0.5780190000000  0.4703310000000  0.5233050000000 1.0
C      1  0.4386790000000  0.4425430000000  0.5298640000000 1.0
C      1  0.4771340000000  0.5850820000000  0.5235290000000 1.0
END
