TITL C-38189-4514-548 0.0103124641989341 125000 -361.767187871497 0 0 60 (C1) n - 1
REM
REM in /home/bkarasulu/CARBON/AIRSS/Generating-Clusters/EDIP-Nigel-Params/Higher-Symm/Box-15A/Only-C60/SD-CG/FIRE-HFTN
REM
REM
REM
REM
REM
REM ./C.cell (414f73aa93bd7a1190c7fd0f31ff2f98)
REM
REM compiler GCC version 9.2.1 20190827 (Red Hat 9.2.1-1)
REM options -cpp -mtune=generic -march=x86-64 -g -O0 -fpre-include=/usr/include/finclude/math-vector-fortran.h
REM seed -366353804 -1256831981 100465133 -1197615649 673161775 -1954412580 1396359271 1061201233 -1563349003 -225645556 -1552257910 2047112050 118063838 -249634723 -2143684789 1780372584 -1577793267 1146161081 -1190309269 218199041 -1081141292 1976520472 201215168 -1382098264 811624283 1014335137 1871480951 -1151122600 -2079414978 185129471 -1552974864 1879489753 -1554961873
REM
CELL 1.54180   50.00000   50.00000   50.00000   90.00000   90.00000   90.00000
LATT -1
SFAC C  
C      1  0.4425690000000  0.5023670000000  0.4646290000000 1.0
C      1  0.5072760000000  0.4654380000000  0.4455840000000 1.0
C      1  0.4639920000000  0.4497270000000  0.4938380000000 1.0
C      1  0.4445430000000  0.4996580000000  0.5368040000000 1.0
C      1  0.5550450000000  0.5012490000000  0.5370770000000 1.0
C      1  0.5582090000000  0.4992550000000  0.4643450000000 1.0
C      1  0.5022480000000  0.5350010000000  0.5541720000000 1.0
C      1  0.4957180000000  0.4626470000000  0.5520200000000 1.0
C      1  0.4933730000000  0.5336300000000  0.4428860000000 1.0
C      1  0.4642600000000  0.5548420000000  0.4994360000000 1.0
C      1  0.5356520000000  0.4487540000000  0.5043930000000 1.0
C      1  0.5357080000000  0.5538240000000  0.5005880000000 1.0
C      1  0.4418450000000  0.4651350000000  0.5023450000000 1.0
C      1  0.5077050000000  0.4445620000000  0.4651330000000 1.0
C      1  0.4646870000000  0.4952450000000  0.4487300000000 1.0
C      1  0.4425660000000  0.5367150000000  0.4981710000000 1.0
C      1  0.5571950000000  0.5357530000000  0.5038790000000 1.0
C      1  0.5581660000000  0.4649480000000  0.4987910000000 1.0
C      1  0.5033420000000  0.5555230000000  0.5349540000000 1.0
C      1  0.4966220000000  0.5532690000000  0.4632810000000 1.0
C      1  0.4927830000000  0.4426850000000  0.5319110000000 1.0
C      1  0.4647120000000  0.4981900000000  0.5563920000000 1.0
C      1  0.5359270000000  0.5043790000000  0.4478940000000 1.0
C      1  0.5346220000000  0.4995540000000  0.5562700000000 1.0
C      1  0.4679210000000  0.5174870000000  0.5761160000000 1.0
C      1  0.5151340000000  0.5741240000000  0.4603490000000 1.0
C      1  0.5781400000000  0.4686740000000  0.5176550000000 1.0
C      1  0.4652160000000  0.4803550000000  0.4249390000000 1.0
C      1  0.5350400000000  0.5171430000000  0.4229480000000 1.0
C      1  0.5343700000000  0.4804160000000  0.5766800000000 1.0
C      1  0.5118150000000  0.4221490000000  0.5304090000000 1.0
C      1  0.4841940000000  0.5755550000000  0.5332040000000 1.0
C      1  0.4871970000000  0.4255400000000  0.4649760000000 1.0
C      1  0.5769670000000  0.5342070000000  0.4844370000000 1.0
C      1  0.4182000000000  0.4665680000000  0.4874840000000 1.0
C      1  0.4240780000000  0.5346800000000  0.5187680000000 1.0
C      1  0.4639990000000  0.5777870000000  0.5156190000000 1.0
C      1  0.5161930000000  0.4616730000000  0.5707060000000 1.0
C      1  0.5805990000000  0.5159620000000  0.4651340000000 1.0
C      1  0.4645550000000  0.4254580000000  0.4798020000000 1.0
C      1  0.5348430000000  0.4232500000000  0.5161450000000 1.0
C      1  0.5343050000000  0.5709450000000  0.4788040000000 1.0
C      1  0.5123160000000  0.5317980000000  0.4224250000000 1.0
C      1  0.4867640000000  0.5366020000000  0.5775370000000 1.0
C      1  0.4874390000000  0.4649580000000  0.4258690000000 1.0
C      1  0.5786280000000  0.4861280000000  0.5380810000000 1.0
C      1  0.4212170000000  0.4851200000000  0.4683610000000 1.0
C      1  0.4225460000000  0.5169370000000  0.5388710000000 1.0
C      1  0.4882540000000  0.5396740000000  0.4890410000000 1.0
C      1  0.5431250000000  0.4894490000000  0.4889930000000 1.0
C      1  0.4876200000000  0.4885730000000  0.5394590000000 1.0
C      1  0.4872420000000  0.4614050000000  0.5085070000000 1.0
C      1  0.5116300000000  0.5394590000000  0.5109990000000 1.0
C      1  0.5128590000000  0.4614420000000  0.4897090000000 1.0
C      1  0.5417000000000  0.5113380000000  0.5121840000000 1.0
C      1  0.4575160000000  0.4897580000000  0.5115310000000 1.0
C      1  0.4575580000000  0.5122810000000  0.4889670000000 1.0
C      1  0.4877130000000  0.5098860000000  0.4608320000000 1.0
C      1  0.5129040000000  0.4907520000000  0.4610100000000 1.0
C      1  0.5114400000000  0.5101200000000  0.5399240000000 1.0
END
