TITL C-38189-4514-128 5.30737441629165e-06 125000 -363.094690728385 0 0 60 (C1) n - 1
REM
REM in /home/bkarasulu/CARBON/AIRSS/Generating-Clusters/EDIP-Nigel-Params/Higher-Symm/Box-15A/Only-C60/SD-CG/FIRE-HFTN
REM
REM
REM
REM
REM
REM ./C.cell (414f73aa93bd7a1190c7fd0f31ff2f98)
REM
REM compiler GCC version 9.2.1 20190827 (Red Hat 9.2.1-1)
REM options -cpp -mtune=generic -march=x86-64 -g -O0 -fpre-include=/usr/include/finclude/math-vector-fortran.h
REM seed -1074107295 990031048 1859250339 -757675641 -1878959746 1889772254 -1906304951 -1126350839 -894710121 -1748036581 384998269 -834477376 -453192778 1122587891 595890631 -648358643 512905849 -1972995645 -430186125 1031705614 -1206860779 290394177 1347858526 1335814925 -2116748660 1059015093 1673225643 1972070342 52063385 456248673 -2095605370 -24398835 -888527956
REM
CELL 1.54180   50.00000   50.00000   50.00000   90.00000   90.00000   90.00000
LATT -1
SFAC C  
C      1  0.5455400000000  0.4955970000000  0.5198390000000 1.0
C      1  0.5452480000000  0.4761660000000  0.4962020000000 1.0
C      1  0.5460300000000  0.4932790000000  0.4699440000000 1.0
C      1  0.5461120000000  0.5237060000000  0.4787840000000 1.0
C      1  0.5455790000000  0.5248210000000  0.5111080000000 1.0
C      1  0.4509330000000  0.5231530000000  0.5243010000000 1.0
C      1  0.4452010000000  0.5328030000000  0.4965390000000 1.0
C      1  0.4535010000000  0.5134140000000  0.4753380000000 1.0
C      1  0.4597910000000  0.4804230000000  0.4943540000000 1.0
C      1  0.4571890000000  0.4907930000000  0.5236080000000 1.0
C      1  0.4818090000000  0.4579440000000  0.4961360000000 1.0
C      1  0.4976640000000  0.4854300000000  0.4508010000000 1.0
C      1  0.4983960000000  0.5397670000000  0.4759760000000 1.0
C      1  0.4732870000000  0.5415090000000  0.5344920000000 1.0
C      1  0.4779760000000  0.4777000000000  0.5442050000000 1.0
C      1  0.5189320000000  0.5658660000000  0.5097290000000 1.0
C      1  0.5078890000000  0.5243490000000  0.4263130000000 1.0
C      1  0.5175870000000  0.4416670000000  0.4710930000000 1.0
C      1  0.5114940000000  0.4489330000000  0.5403500000000 1.0
C      1  0.5040340000000  0.5160700000000  0.5638410000000 1.0
C      1  0.4109170000000  0.4782200000000  0.4912030000000 1.0
C      1  0.4085090000000  0.5033340000000  0.4755560000000 1.0
C      1  0.4015140000000  0.5257850000000  0.4942510000000 1.0
C      1  0.3981780000000  0.5144250000000  0.5223120000000 1.0
C      1  0.4040050000000  0.4842230000000  0.5198950000000 1.0
C      1  0.5968560000000  0.5215600000000  0.4820900000000 1.0
C      1  0.5968210000000  0.4931750000000  0.4738780000000 1.0
C      1  0.5942920000000  0.4761500000000  0.4983230000000 1.0
C      1  0.5931230000000  0.4944480000000  0.5220220000000 1.0
C      1  0.5947340000000  0.5226340000000  0.5118950000000 1.0
C      1  0.5233570000000  0.5417020000000  0.5238870000000 1.0
C      1  0.5227620000000  0.4948020000000  0.5617110000000 1.0
C      1  0.5252590000000  0.4368640000000  0.5191080000000 1.0
C      1  0.5311870000000  0.4534830000000  0.4493780000000 1.0
C      1  0.5274360000000  0.5397890000000  0.4359620000000 1.0
C      1  0.4723190000000  0.4374990000000  0.5140240000000 1.0
C      1  0.4697260000000  0.4836310000000  0.5715400000000 1.0
C      1  0.4742290000000  0.5611210000000  0.5142170000000 1.0
C      1  0.4762560000000  0.5269220000000  0.4604290000000 1.0
C      1  0.4819760000000  0.4622980000000  0.4470950000000 1.0
C      1  0.5107270000000  0.4790000000000  0.5410940000000 1.0
C      1  0.5211210000000  0.4556730000000  0.4977450000000 1.0
C      1  0.5267040000000  0.4812390000000  0.4495330000000 1.0
C      1  0.5255190000000  0.5401480000000  0.4640030000000 1.0
C      1  0.4999590000000  0.5295780000000  0.5382860000000 1.0
C      1  0.4807210000000  0.5078050000000  0.5769120000000 1.0
C      1  0.4952010000000  0.5612270000000  0.4957810000000 1.0
C      1  0.4873370000000  0.5101330000000  0.4389500000000 1.0
C      1  0.4885410000000  0.4461380000000  0.4692560000000 1.0
C      1  0.4810420000000  0.4465170000000  0.5389770000000 1.0
C      1  0.5728050000000  0.4911380000000  0.4588630000000 1.0
C      1  0.5728450000000  0.5317400000000  0.4706090000000 1.0
C      1  0.5709980000000  0.5364140000000  0.5190710000000 1.0
C      1  0.5684140000000  0.4905740000000  0.5358950000000 1.0
C      1  0.5701710000000  0.4611750000000  0.4968510000000 1.0
C      1  0.4305920000000  0.5086130000000  0.4582220000000 1.0
C      1  0.4359540000000  0.4660300000000  0.4880600000000 1.0
C      1  0.4291500000000  0.4865630000000  0.5371580000000 1.0
C      1  0.4238260000000  0.5183160000000  0.5401530000000 1.0
C      1  0.4207280000000  0.5465240000000  0.4928480000000 1.0
END
