TITL C-38194-9318-192 -3.7190528551814e-06 125000 -359.074789654636 0 0 60 (C3) n - 1
REM
REM in /home/bkarasulu/CARBON/AIRSS/Generating-Clusters/EDIP-Nigel-Params/Higher-Symm/Box-15A/Only-C60/SD-CG/FIRE-HFTN
REM
REM
REM
REM
REM
REM ./C.cell (414f73aa93bd7a1190c7fd0f31ff2f98)
REM
REM compiler GCC version 9.2.1 20190827 (Red Hat 9.2.1-1)
REM options -cpp -mtune=generic -march=x86-64 -g -O0 -fpre-include=/usr/include/finclude/math-vector-fortran.h
REM seed -1841123440 -1835109282 1700796058 -620556946 -310770272 1892361411 821903868 793658757 706427060 -1679348466 -1479009363 705464515 -1521749219 192751389 -279657126 -1354984796 -639992122 -663355886 47654574 -795891157 1274823831 1376419311 -1321678614 -1535141276 -686040637 1329828231 -1723842091 -1507408680 418745781 -907802356 714339777 -1727243479 -1180557595
REM
CELL 1.54180   50.00000   50.00000   50.00000   90.00000   90.00000   90.00000
LATT -1
SFAC C  
C      1  0.4353810000000  0.4848580000000  0.4957190000000 1.0
C      1  0.5454230000000  0.4516090000000  0.4957190000000 1.0
C      1  0.5191960000000  0.5635330000000  0.4957190000000 1.0
C      1  0.5144290000000  0.5306560000000  0.5664300000000 1.0
C      1  0.4662370000000  0.4971690000000  0.5664300000000 1.0
C      1  0.5193340000000  0.4721760000000  0.5664300000000 1.0
C      1  0.4424520000000  0.4623630000000  0.4775100000000 1.0
C      1  0.5613690000000  0.4689810000000  0.4775100000000 1.0
C      1  0.4961790000000  0.5686560000000  0.4775100000000 1.0
C      1  0.5595840000000  0.5304410000000  0.5515980000000 1.0
C      1  0.4438460000000  0.5363810000000  0.5515980000000 1.0
C      1  0.4965710000000  0.4331790000000  0.5515980000000 1.0
C      1  0.5708660000000  0.4942610000000  0.4890670000000 1.0
C      1  0.4695370000000  0.5642410000000  0.4890670000000 1.0
C      1  0.4595970000000  0.4414980000000  0.4890670000000 1.0
C      1  0.4986650000000  0.5644930000000  0.4498550000000 1.0
C      1  0.4448150000000  0.4665970000000  0.4498550000000 1.0
C      1  0.5565210000000  0.4689100000000  0.4498550000000 1.0
C      1  0.5355050000000  0.4902320000000  0.5527900000000 1.0
C      1  0.4907070000000  0.5356320000000  0.5527900000000 1.0
C      1  0.4737880000000  0.4741360000000  0.5527900000000 1.0
C      1  0.4882810000000  0.4231350000000  0.5270370000000 1.0
C      1  0.5724260000000  0.5282840000000  0.5270370000000 1.0
C      1  0.4392920000000  0.5485810000000  0.5270370000000 1.0
C      1  0.5489910000000  0.4835820000000  0.5263910000000 1.0
C      1  0.4897230000000  0.5506370000000  0.5263910000000 1.0
C      1  0.4612860000000  0.4657820000000  0.5263910000000 1.0
C      1  0.5331910000000  0.5135900000000  0.4812550000000 1.0
C      1  0.4716350000000  0.5219490000000  0.4812550000000 1.0
C      1  0.4951740000000  0.4644600000000  0.4812550000000 1.0
C      1  0.4632230000000  0.5645150000000  0.5181960000000 1.0
C      1  0.4625170000000  0.4358930000000  0.5181960000000 1.0
C      1  0.5742600000000  0.4995920000000  0.5181960000000 1.0
C      1  0.4778310000000  0.4737360000000  0.5015140000000 1.0
C      1  0.5338300000000  0.4939330000000  0.5015140000000 1.0
C      1  0.4883400000000  0.5323310000000  0.5015140000000 1.0
C      1  0.5521520000000  0.4544640000000  0.5231440000000 1.0
C      1  0.5133590000000  0.5679330000000  0.5231440000000 1.0
C      1  0.4344890000000  0.4776030000000  0.5231440000000 1.0
C      1  0.5474400000000  0.5342520000000  0.4678870000000 1.0
C      1  0.4466170000000  0.5239590000000  0.4678870000000 1.0
C      1  0.5059430000000  0.4417890000000  0.4678870000000 1.0
C      1  0.4262160000000  0.5322820000000  0.5081830000000 1.0
C      1  0.5089350000000  0.4199600000000  0.5081830000000 1.0
C      1  0.5648490000000  0.5477580000000  0.5081830000000 1.0
C      1  0.4856470000000  0.4893120000000  0.4340790000000 1.0
C      1  0.5164320000000  0.4929140000000  0.4340790000000 1.0
C      1  0.4979210000000  0.5177740000000  0.4340790000000 1.0
C      1  0.5247630000000  0.4311750000000  0.4877710000000 1.0
C      1  0.5472230000000  0.5558580000000  0.4877710000000 1.0
C      1  0.4280140000000  0.5129670000000  0.4877710000000 1.0
C      1  0.4446460000000  0.5125190000000  0.4423020000000 1.0
C      1  0.5168350000000  0.4458020000000  0.4423030000000 1.0
C      1  0.5385190000000  0.5416780000000  0.4423020000000 1.0
C      1  0.4564740000000  0.4880440000000  0.4363590000000 1.0
C      1  0.5321170000000  0.4682840000000  0.4363590000000 1.0
C      1  0.5114080000000  0.5436730000000  0.4363590000000 1.0
C      1  0.4956060000000  0.4584170000000  0.5629140000000 1.0
C      1  0.5382090000000  0.5169860000000  0.5629140000000 1.0
C      1  0.4661850000000  0.5245970000000  0.5629140000000 1.0
END
