TITL C-38191-7580-151 3.92614247536852e-06 125000 -357.972184851503 0 0 60 (C1) n - 1
REM
REM in /home/bkarasulu/CARBON/AIRSS/Generating-Clusters/EDIP-Nigel-Params/Higher-Symm/Box-15A/Only-C60/SD-CG/FIRE-HFTN
REM
REM
REM
REM
REM
REM ./C.cell (414f73aa93bd7a1190c7fd0f31ff2f98)
REM
REM compiler GCC version 9.2.1 20190827 (Red Hat 9.2.1-1)
REM options -cpp -mtune=generic -march=x86-64 -g -O0 -fpre-include=/usr/include/finclude/math-vector-fortran.h
REM seed -1986284244 332416308 -2010611308 9888547 -1969795624 163021807 -2141111936 -27107273 1259715867 1362062763 732112234 1323292587 424768037 -2068259236 -24271859 1537901692 874799571 -339777954 -758400713 1210761422 1479152944 747167779 -1786351989 -671779986 2084723733 1399047675 -664020240 1160286622 1331529861 -76162973 -1961304078 683533847 -1296786643
REM
CELL 1.54180   50.00000   50.00000   50.00000   90.00000   90.00000   90.00000
LATT -1
SFAC C  
C      1  0.4380160000000  0.4855750000000  0.4806480000000 1.0
C      1  0.4362680000000  0.5159170000000  0.4798640000000 1.0
C      1  0.4663530000000  0.5376280000000  0.4432850000000 1.0
C      1  0.4655830000000  0.4629420000000  0.4440960000000 1.0
C      1  0.5078770000000  0.4849910000000  0.4648560000000 1.0
C      1  0.5083590000000  0.5142230000000  0.4670300000000 1.0
C      1  0.4514990000000  0.5563300000000  0.4905070000000 1.0
C      1  0.4518480000000  0.4444730000000  0.4906170000000 1.0
C      1  0.5334900000000  0.5560800000000  0.4658440000000 1.0
C      1  0.5315990000000  0.4432670000000  0.4660780000000 1.0
C      1  0.5328770000000  0.4487440000000  0.5411110000000 1.0
C      1  0.5300660000000  0.5469110000000  0.5406460000000 1.0
C      1  0.4335590000000  0.4724180000000  0.5071290000000 1.0
C      1  0.4333440000000  0.5291460000000  0.5069970000000 1.0
C      1  0.5052760000000  0.4313870000000  0.4559930000000 1.0
C      1  0.5073050000000  0.5682620000000  0.4562390000000 1.0
C      1  0.5096830000000  0.4182640000000  0.5005270000000 1.0
C      1  0.5117040000000  0.5784210000000  0.5010090000000 1.0
C      1  0.5417100000000  0.5388860000000  0.5145330000000 1.0
C      1  0.5444150000000  0.4542420000000  0.5144400000000 1.0
C      1  0.4969540000000  0.5843600000000  0.4777100000000 1.0
C      1  0.4945610000000  0.4145630000000  0.4769300000000 1.0
C      1  0.5348960000000  0.4848750000000  0.5060970000000 1.0
C      1  0.5255570000000  0.5161840000000  0.5023180000000 1.0
C      1  0.5060840000000  0.5616990000000  0.5411210000000 1.0
C      1  0.5068800000000  0.4374810000000  0.5403130000000 1.0
C      1  0.4736730000000  0.5700210000000  0.5049310000000 1.0
C      1  0.4723580000000  0.4288210000000  0.5051260000000 1.0
C      1  0.5357360000000  0.5628430000000  0.4951730000000 1.0
C      1  0.5333950000000  0.4339660000000  0.4944230000000 1.0
C      1  0.4792330000000  0.5598750000000  0.5323470000000 1.0
C      1  0.4802810000000  0.4408090000000  0.5310990000000 1.0
C      1  0.4609440000000  0.5334510000000  0.4725150000000 1.0
C      1  0.4624250000000  0.4673180000000  0.4736540000000 1.0
C      1  0.4892340000000  0.5534360000000  0.4403320000000 1.0
C      1  0.4875820000000  0.4462300000000  0.4396870000000 1.0
C      1  0.4519960000000  0.5157800000000  0.5249100000000 1.0
C      1  0.4505560000000  0.4854610000000  0.5267080000000 1.0
C      1  0.5384800000000  0.5313350000000  0.5623170000000 1.0
C      1  0.5395900000000  0.4700470000000  0.5584150000000 1.0
C      1  0.4896240000000  0.4744810000000  0.4854960000000 1.0
C      1  0.4860540000000  0.5240120000000  0.4851030000000 1.0
C      1  0.4676910000000  0.5341870000000  0.5418160000000 1.0
C      1  0.4695230000000  0.4667420000000  0.5403510000000 1.0
C      1  0.4914480000000  0.5217790000000  0.5515580000000 1.0
C      1  0.4934870000000  0.4780590000000  0.5511580000000 1.0
C      1  0.4948410000000  0.5146630000000  0.5139930000000 1.0
C      1  0.4997810000000  0.4837110000000  0.5137870000000 1.0
C      1  0.5614300000000  0.5177490000000  0.5526240000000 1.0
C      1  0.5605630000000  0.4872370000000  0.5497910000000 1.0
C      1  0.5341720000000  0.4728830000000  0.4638290000000 1.0
C      1  0.5348510000000  0.5270630000000  0.4607440000000 1.0
C      1  0.4929590000000  0.5131790000000  0.5781050000000 1.0
C      1  0.4952920000000  0.4863130000000  0.5777700000000 1.0
C      1  0.4647520000000  0.5136480000000  0.4292660000000 1.0
C      1  0.4639520000000  0.4868040000000  0.4297550000000 1.0
C      1  0.5664730000000  0.5218150000000  0.5225490000000 1.0
C      1  0.5632540000000  0.4891570000000  0.5193490000000 1.0
C      1  0.5533630000000  0.4864610000000  0.4484620000000 1.0
C      1  0.5552460000000  0.5133970000000  0.4469180000000 1.0
END
