TITL C-38187-2739-550 5.74914623471226e-06 125000 -366.7350837538 0 0 60 (C1) n - 1
REM
REM in /home/bkarasulu/CARBON/AIRSS/Generating-Clusters/EDIP-Nigel-Params/Higher-Symm/Box-15A/Only-C60/SD-CG/FIRE-HFTN
REM
REM
REM
REM
REM
REM ./C.cell (414f73aa93bd7a1190c7fd0f31ff2f98)
REM
REM compiler GCC version 9.2.1 20190827 (Red Hat 9.2.1-1)
REM options -cpp -mtune=generic -march=x86-64 -g -O0 -fpre-include=/usr/include/finclude/math-vector-fortran.h
REM seed 714628657 -1051052709 137726917 -435939335 1754164793 655937157 1542860356 -412707153 610063403 222778111 -560953316 -227192492 -1917507976 -105219664 971211700 -1445580020 -151532052 -456626792 -975973226 -1372823229 714476064 535456507 -80396314 1622406956 2012542886 -1244906823 1686399666 -444969953 -392492404 -372310044 -883270090 2110510893 -765229965
REM
CELL 1.54180   50.00000   50.00000   50.00000   90.00000   90.00000   90.00000
LATT -1
SFAC C  
C      1  0.5002420000000  0.5778640000000  0.5125990000000 1.0
C      1  0.4377600000000  0.5314290000000  0.5237700000000 1.0
C      1  0.4371920000000  0.4694390000000  0.5172360000000 1.0
C      1  0.4796760000000  0.4202420000000  0.5104430000000 1.0
C      1  0.5381640000000  0.4320640000000  0.5174200000000 1.0
C      1  0.5611720000000  0.5061030000000  0.5273620000000 1.0
C      1  0.5419980000000  0.5544300000000  0.5185480000000 1.0
C      1  0.5354410000000  0.4796220000000  0.4609420000000 1.0
C      1  0.5348020000000  0.5085980000000  0.4564810000000 1.0
C      1  0.5062720000000  0.5355060000000  0.4537160000000 1.0
C      1  0.4780960000000  0.5308410000000  0.4603680000000 1.0
C      1  0.4671670000000  0.5034470000000  0.4579490000000 1.0
C      1  0.4863360000000  0.4810120000000  0.4699240000000 1.0
C      1  0.5098090000000  0.4661290000000  0.4555120000000 1.0
C      1  0.5392210000000  0.5478600000000  0.4881910000000 1.0
C      1  0.4927400000000  0.5681030000000  0.4873780000000 1.0
C      1  0.4391980000000  0.5307130000000  0.4945110000000 1.0
C      1  0.4422050000000  0.4732200000000  0.4895170000000 1.0
C      1  0.4829830000000  0.4340420000000  0.4841540000000 1.0
C      1  0.5311280000000  0.4480320000000  0.4949930000000 1.0
C      1  0.5469660000000  0.5004430000000  0.5001790000000 1.0
C      1  0.4701080000000  0.5034600000000  0.5065170000000 1.0
C      1  0.4787600000000  0.4566960000000  0.5212950000000 1.0
C      1  0.5082920000000  0.4614130000000  0.5300820000000 1.0
C      1  0.5175790000000  0.4888730000000  0.5351400000000 1.0
C      1  0.5178800000000  0.5028020000000  0.5099650000000 1.0
C      1  0.5104580000000  0.5308730000000  0.5163820000000 1.0
C      1  0.4805360000000  0.5318720000000  0.5105960000000 1.0
C      1  0.4432420000000  0.5028620000000  0.4785230000000 1.0
C      1  0.4672910000000  0.4598210000000  0.4791470000000 1.0
C      1  0.5111510000000  0.4401960000000  0.4737710000000 1.0
C      1  0.5468310000000  0.4720660000000  0.4868550000000 1.0
C      1  0.5501750000000  0.5219510000000  0.4789370000000 1.0
C      1  0.5158740000000  0.5573640000000  0.4719150000000 1.0
C      1  0.4701350000000  0.5463290000000  0.4847950000000 1.0
C      1  0.4667920000000  0.4837590000000  0.5539290000000 1.0
C      1  0.4760780000000  0.4551980000000  0.5592660000000 1.0
C      1  0.5062430000000  0.4591700000000  0.5685490000000 1.0
C      1  0.5375350000000  0.5016860000000  0.5721730000000 1.0
C      1  0.5365730000000  0.5304990000000  0.5618300000000 1.0
C      1  0.5110510000000  0.5414210000000  0.5477420000000 1.0
C      1  0.4827140000000  0.5322630000000  0.5567610000000 1.0
C      1  0.5551430000000  0.5336880000000  0.5380470000000 1.0
C      1  0.5183970000000  0.5703280000000  0.5324600000000 1.0
C      1  0.4639010000000  0.5405100000000  0.5337200000000 1.0
C      1  0.4527920000000  0.4901860000000  0.5288970000000 1.0
C      1  0.4684370000000  0.4309030000000  0.5360130000000 1.0
C      1  0.5258030000000  0.4400980000000  0.5412840000000 1.0
C      1  0.5460070000000  0.4883360000000  0.5462830000000 1.0
C      1  0.5177910000000  0.4927550000000  0.4125970000000 1.0
C      1  0.5334340000000  0.5139970000000  0.4265810000000 1.0
C      1  0.5137230000000  0.5357830000000  0.4235830000000 1.0
C      1  0.4686970000000  0.5177950000000  0.4126030000000 1.0
C      1  0.4618960000000  0.4965350000000  0.4293210000000 1.0
C      1  0.4754730000000  0.4730900000000  0.4221440000000 1.0
C      1  0.5032520000000  0.4704080000000  0.4258830000000 1.0
C      1  0.4894320000000  0.5021910000000  0.5584760000000 1.0
C      1  0.5098220000000  0.4893390000000  0.5781630000000 1.0
C      1  0.4944080000000  0.4901530000000  0.4966800000000 1.0
C      1  0.4952290000000  0.5221720000000  0.4053120000000 1.0
END
