TITL C-38191-7580-475 -0.000172375660733744 125000 -360.46482295633 0 0 60 (C1) n - 1
REM
REM in /home/bkarasulu/CARBON/AIRSS/Generating-Clusters/EDIP-Nigel-Params/Higher-Symm/Box-15A/Only-C60/SD-CG/FIRE-HFTN
REM
REM
REM
REM
REM
REM ./C.cell (414f73aa93bd7a1190c7fd0f31ff2f98)
REM
REM compiler GCC version 9.2.1 20190827 (Red Hat 9.2.1-1)
REM options -cpp -mtune=generic -march=x86-64 -g -O0 -fpre-include=/usr/include/finclude/math-vector-fortran.h
REM seed 140764196 -1382837777 -954406780 -1698835121 971889694 -1998176471 1856463418 449683317 -533199862 -1132260811 -389500352 -1879406177 -1580359936 -538510374 -666335654 290032500 2006647920 -1478347881 740766929 -35994765 2016764766 -723955347 1678584465 -1639060038 -1188276836 -1541199717 -1193603533 1091361504 -379466072 1235946776 -2120691618 1230082982 498616154
REM
CELL 1.54180   50.00000   50.00000   50.00000   90.00000   90.00000   90.00000
LATT -1
SFAC C  
C      1  0.4265030000000  0.5295620000000  0.4666010000000 1.0
C      1  0.5099650000000  0.5333070000000  0.4189470000000 1.0
C      1  0.5799620000000  0.5330940000000  0.4842760000000 1.0
C      1  0.5407170000000  0.5305700000000  0.5693100000000 1.0
C      1  0.4440160000000  0.5349600000000  0.5592140000000 1.0
C      1  0.4637550000000  0.4735080000000  0.4413900000000 1.0
C      1  0.5457020000000  0.4685850000000  0.4483580000000 1.0
C      1  0.5642380000000  0.4683170000000  0.5265570000000 1.0
C      1  0.4949030000000  0.4755770000000  0.5695280000000 1.0
C      1  0.4317210000000  0.4691280000000  0.5165860000000 1.0
C      1  0.5597970000000  0.5441070000000  0.4692070000000 1.0
C      1  0.5480710000000  0.5441760000000  0.5465760000000 1.0
C      1  0.4694610000000  0.5453590000000  0.5594620000000 1.0
C      1  0.4331800000000  0.5441460000000  0.4889520000000 1.0
C      1  0.4894330000000  0.5445280000000  0.4333770000000 1.0
C      1  0.4744900000000  0.4484480000000  0.5000110000000 1.0
C      1  0.4937590000000  0.4527500000000  0.4762720000000 1.0
C      1  0.5218140000000  0.4500230000000  0.4877050000000 1.0
C      1  0.5185850000000  0.4471910000000  0.5193050000000 1.0
C      1  0.4904930000000  0.4552440000000  0.5243160000000 1.0
C      1  0.4824470000000  0.5675790000000  0.5177150000000 1.0
C      1  0.4771540000000  0.5670260000000  0.4884070000000 1.0
C      1  0.5035410000000  0.5674550000000  0.4745520000000 1.0
C      1  0.5250160000000  0.5671340000000  0.4953150000000 1.0
C      1  0.5119270000000  0.5668780000000  0.5219830000000 1.0
C      1  0.5143240000000  0.4904730000000  0.5819770000000 1.0
C      1  0.4361670000000  0.4943940000000  0.5275140000000 1.0
C      1  0.4408390000000  0.4886080000000  0.4422410000000 1.0
C      1  0.5349120000000  0.4933710000000  0.4412390000000 1.0
C      1  0.5669020000000  0.4933240000000  0.5143780000000 1.0
C      1  0.4312960000000  0.5016040000000  0.4656060000000 1.0
C      1  0.5170690000000  0.5057900000000  0.4202800000000 1.0
C      1  0.5812360000000  0.5055150000000  0.4910350000000 1.0
C      1  0.5358660000000  0.5026580000000  0.5681410000000 1.0
C      1  0.4383150000000  0.5074720000000  0.5546360000000 1.0
C      1  0.5176230000000  0.4148020000000  0.5145980000000 1.0
C      1  0.4911590000000  0.4048340000000  0.5179430000000 1.0
C      1  0.4769900000000  0.4171870000000  0.4965120000000 1.0
C      1  0.4951060000000  0.4141630000000  0.4733990000000 1.0
C      1  0.5220750000000  0.4194200000000  0.4844220000000 1.0
C      1  0.5062680000000  0.5433790000000  0.4567880000000 1.0
C      1  0.5428300000000  0.5428390000000  0.4925320000000 1.0
C      1  0.5204070000000  0.5425190000000  0.5380800000000 1.0
C      1  0.4694800000000  0.5438810000000  0.5306350000000 1.0
C      1  0.4607910000000  0.5425270000000  0.4803550000000 1.0
C      1  0.5031760000000  0.5178570000000  0.4734960000000 1.0
C      1  0.5261370000000  0.5170150000000  0.4947670000000 1.0
C      1  0.5128780000000  0.5163810000000  0.5234940000000 1.0
C      1  0.4813570000000  0.5180340000000  0.5192000000000 1.0
C      1  0.4753480000000  0.5165670000000  0.4883260000000 1.0
C      1  0.4662450000000  0.4969880000000  0.5350930000000 1.0
C      1  0.4567900000000  0.4910680000000  0.4788730000000 1.0
C      1  0.5060920000000  0.4958660000000  0.4527230000000 1.0
C      1  0.5472570000000  0.4941130000000  0.4904150000000 1.0
C      1  0.5227490000000  0.4915830000000  0.5427580000000 1.0
C      1  0.5432450000000  0.4675870000000  0.4762330000000 1.0
C      1  0.5370470000000  0.4665570000000  0.5331370000000 1.0
C      1  0.4822650000000  0.4740220000000  0.5446240000000 1.0
C      1  0.4508070000000  0.4667050000000  0.4962100000000 1.0
C      1  0.4882980000000  0.4722430000000  0.4544210000000 1.0
END
