TITL C-38192-7909-45 1.24788796355246e-05 125000 -359.220283563065 0 0 60 (C1) n - 1
REM
REM in /home/bkarasulu/CARBON/AIRSS/Generating-Clusters/EDIP-Nigel-Params/Higher-Symm/Box-15A/Only-C60/SD-CG/FIRE-HFTN
REM
REM
REM
REM
REM
REM ./C.cell (414f73aa93bd7a1190c7fd0f31ff2f98)
REM
REM compiler GCC version 9.2.1 20190827 (Red Hat 9.2.1-1)
REM options -cpp -mtune=generic -march=x86-64 -g -O0 -fpre-include=/usr/include/finclude/math-vector-fortran.h
REM seed -1980727678 -1446415305 601348811 1365758735 -2080045592 -781444463 -1045354063 -1656755171 744618346 -522564474 -972052559 -1412872960 393894700 -487844445 1955118523 893465277 1678789848 -1574839578 -1394925277 -864578493 426844793 955882359 -202390181 -1038630496 -1916193842 2023034054 1839072673 -543723688 -1995735491 1655646296 -449486360 341022852 166815022
REM
CELL 1.54180   50.00000   50.00000   50.00000   90.00000   90.00000   90.00000
LATT -1
SFAC C  
C      1  0.4426570000000  0.4306320000000  0.4775830000000 1.0
C      1  0.4857310000000  0.4240690000000  0.5225850000000 1.0
C      1  0.5313960000000  0.4275630000000  0.5100100000000 1.0
C      1  0.5077510000000  0.4238260000000  0.4697700000000 1.0
C      1  0.4698310000000  0.5748600000000  0.5126640000000 1.0
C      1  0.4741500000000  0.5707980000000  0.4514900000000 1.0
C      1  0.5233970000000  0.5797720000000  0.4868550000000 1.0
C      1  0.5099120000000  0.5709940000000  0.5317700000000 1.0
C      1  0.4658730000000  0.5613390000000  0.5375750000000 1.0
C      1  0.5380760000000  0.5674410000000  0.5312210000000 1.0
C      1  0.5203660000000  0.5728690000000  0.4599850000000 1.0
C      1  0.4547130000000  0.5806600000000  0.4672760000000 1.0
C      1  0.4607460000000  0.4278960000000  0.4583420000000 1.0
C      1  0.5348450000000  0.4332530000000  0.4652500000000 1.0
C      1  0.5309750000000  0.4315130000000  0.5381510000000 1.0
C      1  0.4582300000000  0.4291790000000  0.5219640000000 1.0
C      1  0.4914380000000  0.4667940000000  0.4648920000000 1.0
C      1  0.4409480000000  0.4704090000000  0.5042790000000 1.0
C      1  0.5035530000000  0.4673960000000  0.5361770000000 1.0
C      1  0.5333060000000  0.4726400000000  0.4950140000000 1.0
C      1  0.4975140000000  0.5257150000000  0.5252240000000 1.0
C      1  0.4622150000000  0.5375870000000  0.4858570000000 1.0
C      1  0.4998810000000  0.5299580000000  0.4525950000000 1.0
C      1  0.5325450000000  0.5356410000000  0.4997060000000 1.0
C      1  0.4318060000000  0.4850810000000  0.5271930000000 1.0
C      1  0.5213120000000  0.4808560000000  0.5603820000000 1.0
C      1  0.5824470000000  0.4873190000000  0.4958530000000 1.0
C      1  0.5081590000000  0.4731770000000  0.4397260000000 1.0
C      1  0.4431480000000  0.5172460000000  0.4940970000000 1.0
C      1  0.5182960000000  0.5154670000000  0.4328540000000 1.0
C      1  0.5774000000000  0.5168740000000  0.5204230000000 1.0
C      1  0.5056140000000  0.5131170000000  0.5755720000000 1.0
C      1  0.5429730000000  0.5635730000000  0.5035090000000 1.0
C      1  0.4990300000000  0.5588640000000  0.4486390000000 1.0
C      1  0.4536320000000  0.5648790000000  0.4904200000000 1.0
C      1  0.4915930000000  0.5503920000000  0.5428090000000 1.0
C      1  0.5457760000000  0.4447410000000  0.4893730000000 1.0
C      1  0.5034910000000  0.4379820000000  0.5428590000000 1.0
C      1  0.4418630000000  0.4414020000000  0.5029980000000 1.0
C      1  0.4862310000000  0.4382560000000  0.4559710000000 1.0
C      1  0.4761750000000  0.5107140000000  0.4455740000000 1.0
C      1  0.4748670000000  0.5051830000000  0.5281260000000 1.0
C      1  0.5282460000000  0.5127460000000  0.5306700000000 1.0
C      1  0.5495190000000  0.5208040000000  0.4793100000000 1.0
C      1  0.4794360000000  0.4823670000000  0.5465380000000 1.0
C      1  0.4692820000000  0.4877480000000  0.4636390000000 1.0
C      1  0.5369460000000  0.4943240000000  0.4733430000000 1.0
C      1  0.5409840000000  0.4850840000000  0.5218240000000 1.0
C      1  0.5704170000000  0.4878490000000  0.5232940000000 1.0
C      1  0.5322120000000  0.4906640000000  0.4449400000000 1.0
C      1  0.4468490000000  0.4898970000000  0.4826950000000 1.0
C      1  0.4868060000000  0.4919610000000  0.5732470000000 1.0
C      1  0.5772370000000  0.5165030000000  0.4903350000000 1.0
C      1  0.5302670000000  0.5113550000000  0.5604590000000 1.0
C      1  0.4460370000000  0.5100240000000  0.5229240000000 1.0
C      1  0.4935350000000  0.4964160000000  0.4246400000000 1.0
C      1  0.5036560000000  0.4650910000000  0.4968890000000 1.0
C      1  0.4989280000000  0.5382470000000  0.4958500000000 1.0
C      1  0.4987670000000  0.5691980000000  0.5031370000000 1.0
C      1  0.5036710000000  0.4336830000000  0.4986930000000 1.0
END
