TITL C-38193-7935-582 -5.12267299530665e-05 125000 -363.132405852846 0 0 60 (D2d) n - 1
REM
REM in /home/bkarasulu/CARBON/AIRSS/Generating-Clusters/EDIP-Nigel-Params/Higher-Symm/Box-15A/Only-C60/SD-CG/FIRE-HFTN
REM
REM
REM
REM
REM
REM ./C.cell (414f73aa93bd7a1190c7fd0f31ff2f98)
REM
REM compiler GCC version 9.2.1 20190827 (Red Hat 9.2.1-1)
REM options -cpp -mtune=generic -march=x86-64 -g -O0 -fpre-include=/usr/include/finclude/math-vector-fortran.h
REM seed 1235672856 146943821 1838944697 440311959 2106909538 1153987597 -893230125 -1820024869 215580175 -61555020 513528824 423670673 -1436171931 1405285463 727648167 895491656 1679096824 -259727613 -1304930269 1844731334 117107419 1089208247 -497328707 1302007633 -1935275519 1625255229 -1027919761 1599820528 1056385080 2090430349 1635823164 -46304215 -79774164
REM
CELL 1.54180   50.00000   50.00000   50.00000   90.00000   90.00000   90.00000
LATT -1
SFAC C  
C      1  0.5385670000000  0.5595940000000  0.5217580000000 1.0
C      1  0.4614330000000  0.4404060000000  0.5217580000000 1.0
C      1  0.4614400000000  0.5596350000000  0.4781370000000 1.0
C      1  0.5385600000000  0.4403650000000  0.4781370000000 1.0
C      1  0.5596350000000  0.5385600000000  0.5218630000000 1.0
C      1  0.4403650000000  0.4614400000000  0.5218630000000 1.0
C      1  0.5595940000000  0.4614330000000  0.4782420000000 1.0
C      1  0.4404060000000  0.5385670000000  0.4782420000000 1.0
C      1  0.5465760000000  0.4913920000000  0.4401530000000 1.0
C      1  0.4534240000000  0.5086080000000  0.4401530000000 1.0
C      1  0.4535760000000  0.4912620000000  0.5599600000000 1.0
C      1  0.5464240000000  0.5087380000000  0.5599600000000 1.0
C      1  0.4912620000000  0.5464240000000  0.4400400000000 1.0
C      1  0.5087380000000  0.4535760000000  0.4400400000000 1.0
C      1  0.4913920000000  0.4534240000000  0.5598470000000 1.0
C      1  0.5086080000000  0.5465760000000  0.5598470000000 1.0
C      1  0.4717830000000  0.4352230000000  0.5482690000000 1.0
C      1  0.5282170000000  0.5647770000000  0.5482690000000 1.0
C      1  0.5282890000000  0.4352960000000  0.4515830000000 1.0
C      1  0.4717110000000  0.5647040000000  0.4515830000000 1.0
C      1  0.4352960000000  0.4717110000000  0.5484170000000 1.0
C      1  0.5647040000000  0.5282890000000  0.5484170000000 1.0
C      1  0.4352230000000  0.5282170000000  0.4517310000000 1.0
C      1  0.5647770000000  0.4717830000000  0.4517310000000 1.0
C      1  0.5300780000000  0.5516090000000  0.4721570000000 1.0
C      1  0.4699220000000  0.4483910000000  0.4721570000000 1.0
C      1  0.4699640000000  0.5521190000000  0.5276790000000 1.0
C      1  0.5300360000000  0.4478810000000  0.5276790000000 1.0
C      1  0.5521190000000  0.5300360000000  0.4723210000000 1.0
C      1  0.4478810000000  0.4699640000000  0.4723210000000 1.0
C      1  0.5516090000000  0.4699220000000  0.5278430000000 1.0
C      1  0.4483910000000  0.5300780000000  0.5278430000000 1.0
C      1  0.5291280000000  0.4920030000000  0.4868850000000 1.0
C      1  0.4708720000000  0.5079970000000  0.4868850000000 1.0
C      1  0.4709760000000  0.4918580000000  0.5132140000000 1.0
C      1  0.5290240000000  0.5081420000000  0.5132140000000 1.0
C      1  0.4918580000000  0.5290240000000  0.4867860000000 1.0
C      1  0.5081420000000  0.4709760000000  0.4867860000000 1.0
C      1  0.4920030000000  0.4708720000000  0.5131150000000 1.0
C      1  0.5079970000000  0.5291280000000  0.5131150000000 1.0
C      1  0.5625920000000  0.4805420000000  0.5017650000000 1.0
C      1  0.4374080000000  0.5194580000000  0.5017650000000 1.0
C      1  0.4373290000000  0.4806700000000  0.4984990000000 1.0
C      1  0.5626710000000  0.5193300000000  0.4984990000000 1.0
C      1  0.4806700000000  0.5626710000000  0.5015010000000 1.0
C      1  0.5193300000000  0.4373290000000  0.5015010000000 1.0
C      1  0.4805420000000  0.4374080000000  0.4982350000000 1.0
C      1  0.5194580000000  0.5625920000000  0.4982350000000 1.0
C      1  0.5083120000000  0.4667470000000  0.5383510000000 1.0
C      1  0.4916880000000  0.5332530000000  0.5383510000000 1.0
C      1  0.4918780000000  0.4670110000000  0.4614990000000 1.0
C      1  0.5081220000000  0.5329890000000  0.4614990000000 1.0
C      1  0.4670110000000  0.5081220000000  0.5385010000000 1.0
C      1  0.5329890000000  0.4918780000000  0.5385010000000 1.0
C      1  0.4667470000000  0.4916880000000  0.4616490000000 1.0
C      1  0.5332530000000  0.5083120000000  0.4616490000000 1.0
C      1  0.4658710000000  0.5339600000000  0.4282220000000 1.0
C      1  0.4660400000000  0.4658710000000  0.5717780000000 1.0
C      1  0.5341290000000  0.4660400000000  0.4282220000000 1.0
C      1  0.5339600000000  0.5341290000000  0.5717780000000 1.0
END
