TITL C-38189-4514-303 0.00021022349080128 125000 -362.167180051156 0 0 60 (C2) n - 1
REM
REM in /home/bkarasulu/CARBON/AIRSS/Generating-Clusters/EDIP-Nigel-Params/Higher-Symm/Box-15A/Only-C60/SD-CG/FIRE-HFTN
REM
REM
REM
REM
REM
REM ./C.cell (414f73aa93bd7a1190c7fd0f31ff2f98)
REM
REM compiler GCC version 9.2.1 20190827 (Red Hat 9.2.1-1)
REM options -cpp -mtune=generic -march=x86-64 -g -O0 -fpre-include=/usr/include/finclude/math-vector-fortran.h
REM seed -29428823 -1061807112 -456259810 1891255955 -1586598846 1658542190 771149507 -1352827371 1841941244 1600838863 -1093885538 -1732419982 1532174244 1889422892 1684009729 -739832498 212300476 -61566413 1335220116 531362929 253261379 -78132319 1556886603 1055486452 -1136542029 -384419883 -1520865206 -1132408576 -1486144284 1158549517 202462328 376410485 1811186241
REM
CELL 1.54180   50.00000   50.00000   50.00000   90.00000   90.00000   90.00000
LATT -1
SFAC C  
C      1  0.4651540000000  0.5511810000000  0.4688990000000 1.0
C      1  0.5348460000000  0.5511810000000  0.5311010000000 1.0
C      1  0.4213650000000  0.5159870000000  0.5105030000000 1.0
C      1  0.5786350000000  0.5159870000000  0.4894970000000 1.0
C      1  0.5274440000000  0.5446620000000  0.4476440000000 1.0
C      1  0.4725560000000  0.5446620000000  0.5523560000000 1.0
C      1  0.5073300000000  0.5762650000000  0.4886530000000 1.0
C      1  0.4926700000000  0.5762650000000  0.5113470000000 1.0
C      1  0.5269270000000  0.5295950000000  0.5141420000000 1.0
C      1  0.4730730000000  0.5295950000000  0.4858580000000 1.0
C      1  0.4774020000000  0.5464240000000  0.4450370000000 1.0
C      1  0.5225980000000  0.5464240000000  0.5549630000000 1.0
C      1  0.5011640000000  0.4340530000000  0.4846870000000 1.0
C      1  0.4988360000000  0.4340530000000  0.5153130000000 1.0
C      1  0.5327690000000  0.4996610000000  0.4313230000000 1.0
C      1  0.4672310000000  0.4996610000000  0.5686770000000 1.0
C      1  0.4222320000000  0.5130380000000  0.4721960000000 1.0
C      1  0.5777680000000  0.5130380000000  0.5278040000000 1.0
C      1  0.4728300000000  0.4388870000000  0.5286960000000 1.0
C      1  0.5271700000000  0.4388870000000  0.4713040000000 1.0
C      1  0.4989830000000  0.5344210000000  0.5641310000000 1.0
C      1  0.5010170000000  0.5344210000000  0.4358690000000 1.0
C      1  0.5240700000000  0.5297550000000  0.4836690000000 1.0
C      1  0.4759300000000  0.5297550000000  0.5163310000000 1.0
C      1  0.5424930000000  0.4732130000000  0.4407880000000 1.0
C      1  0.4575070000000  0.4732130000000  0.5592120000000 1.0
C      1  0.5051320000000  0.4872830000000  0.5140060000000 1.0
C      1  0.4948680000000  0.4872830000000  0.4859940000000 1.0
C      1  0.5456020000000  0.4576500000000  0.4841250000000 1.0
C      1  0.4543980000000  0.4576500000000  0.5158750000000 1.0
C      1  0.5493670000000  0.4568160000000  0.5121410000000 1.0
C      1  0.4506330000000  0.4568160000000  0.4878590000000 1.0
C      1  0.5038000000000  0.5048030000000  0.4333890000000 1.0
C      1  0.4962000000000  0.5048030000000  0.5666110000000 1.0
C      1  0.5576450000000  0.4774530000000  0.4660100000000 1.0
C      1  0.4423550000000  0.4774530000000  0.5339900000000 1.0
C      1  0.5774570000000  0.5345530000000  0.5101370000000 1.0
C      1  0.4225430000000  0.5345530000000  0.4898630000000 1.0
C      1  0.5417870000000  0.4847620000000  0.5516500000000 1.0
C      1  0.4582130000000  0.4847620000000  0.4483500000000 1.0
C      1  0.5167780000000  0.4823600000000  0.5688370000000 1.0
C      1  0.4832220000000  0.4823600000000  0.4311630000000 1.0
C      1  0.4527180000000  0.5206990000000  0.5527530000000 1.0
C      1  0.5472820000000  0.5206990000000  0.4472470000000 1.0
C      1  0.5206350000000  0.4427730000000  0.5347970000000 1.0
C      1  0.4793650000000  0.4427730000000  0.4652030000000 1.0
C      1  0.5228320000000  0.4501670000000  0.4438970000000 1.0
C      1  0.4771680000000  0.4501670000000  0.5561030000000 1.0
C      1  0.4744820000000  0.5593740000000  0.5243930000000 1.0
C      1  0.5255180000000  0.5593740000000  0.4756070000000 1.0
C      1  0.5067000000000  0.4539350000000  0.5611990000000 1.0
C      1  0.4933000000000  0.4539350000000  0.4388010000000 1.0
C      1  0.5033470000000  0.5152730000000  0.5244390000000 1.0
C      1  0.4966530000000  0.5152730000000  0.4755610000000 1.0
C      1  0.5576790000000  0.5065020000000  0.4717800000000 1.0
C      1  0.4423210000000  0.5065020000000  0.5282200000000 1.0
C      1  0.5585450000000  0.5069730000000  0.5470680000000 1.0
C      1  0.4414550000000  0.5069730000000  0.4529320000000 1.0
C      1  0.5295690000000  0.4714820000000  0.5273250000000 1.0
C      1  0.4704310000000  0.4714820000000  0.4726750000000 1.0
END
