TITL C-38196-2854-32 -1.61761185537887e-05 125000 -366.222699918045 0 0 60 (C1) n - 1
REM
REM in /home/bkarasulu/CARBON/AIRSS/Generating-Clusters/EDIP-Nigel-Params/Higher-Symm/Box-15A/Only-C60/SD-CG/FIRE-HFTN
REM
REM
REM
REM
REM
REM ./C.cell (414f73aa93bd7a1190c7fd0f31ff2f98)
REM
REM compiler GCC version 9.2.1 20190827 (Red Hat 9.2.1-1)
REM options -cpp -mtune=generic -march=x86-64 -g -O0 -fpre-include=/usr/include/finclude/math-vector-fortran.h
REM seed 712094483 1476951865 81885479 531342998 -1896315917 -1114859806 -639841075 619165075 392718536 1325741950 10372588 -939558402 -1408757148 2038531717 811942187 -325354057 594889477 -1273358931 222553583 1954937979 1253015009 1236178074 -1041619805 -2109637688 622798698 248677514 -1127112243 -1338665102 114528090 773466090 -170061051 1892902735 -1237893615
REM
CELL 1.54180   50.00000   50.00000   50.00000   90.00000   90.00000   90.00000
LATT -1
SFAC C  
C      1  0.5159770000000  0.5194890000000  0.5073280000000 1.0
C      1  0.4902910000000  0.4428680000000  0.5302450000000 1.0
C      1  0.5195910000000  0.4442380000000  0.5298280000000 1.0
C      1  0.4788890000000  0.4777900000000  0.5060460000000 1.0
C      1  0.5743370000000  0.5280470000000  0.5076760000000 1.0
C      1  0.4853040000000  0.4566910000000  0.4545300000000 1.0
C      1  0.4936140000000  0.4405400000000  0.4781720000000 1.0
C      1  0.4584590000000  0.5073160000000  0.5554510000000 1.0
C      1  0.4909990000000  0.5469360000000  0.5507940000000 1.0
C      1  0.5287760000000  0.4636700000000  0.5493900000000 1.0
C      1  0.4821480000000  0.4614100000000  0.5518330000000 1.0
C      1  0.4794040000000  0.5530380000000  0.5003640000000 1.0
C      1  0.5554260000000  0.4754150000000  0.5463830000000 1.0
C      1  0.4376150000000  0.5519300000000  0.5237620000000 1.0
C      1  0.4806660000000  0.4886290000000  0.4236740000000 1.0
C      1  0.5342900000000  0.4391620000000  0.5055700000000 1.0
C      1  0.5012560000000  0.4689380000000  0.4322870000000 1.0
C      1  0.5273350000000  0.4947810000000  0.4960540000000 1.0
C      1  0.5200690000000  0.4320780000000  0.4826010000000 1.0
C      1  0.5059260000000  0.4725430000000  0.5645060000000 1.0
C      1  0.4548610000000  0.4745600000000  0.5532300000000 1.0
C      1  0.5306500000000  0.5580870000000  0.4913010000000 1.0
C      1  0.4411500000000  0.4713430000000  0.4726890000000 1.0
C      1  0.4496890000000  0.5034530000000  0.5262010000000 1.0
C      1  0.5270150000000  0.4801780000000  0.4335310000000 1.0
C      1  0.4542820000000  0.4968770000000  0.4831170000000 1.0
C      1  0.5582880000000  0.5033940000000  0.5451600000000 1.0
C      1  0.4307870000000  0.5244370000000  0.5166540000000 1.0
C      1  0.5706440000000  0.4594880000000  0.5291830000000 1.0
C      1  0.4429830000000  0.5486910000000  0.4771500000000 1.0
C      1  0.5023610000000  0.5341960000000  0.4464330000000 1.0
C      1  0.4890080000000  0.5246560000000  0.4982790000000 1.0
C      1  0.4630890000000  0.5540860000000  0.4583400000000 1.0
C      1  0.5179310000000  0.5509600000000  0.5444250000000 1.0
C      1  0.4358840000000  0.5212600000000  0.4877740000000 1.0
C      1  0.5627080000000  0.4444940000000  0.5069340000000 1.0
C      1  0.5459610000000  0.5426700000000  0.4698740000000 1.0
C      1  0.5386110000000  0.5043940000000  0.4372770000000 1.0
C      1  0.5702620000000  0.4744860000000  0.4753310000000 1.0
C      1  0.4945000000000  0.5145010000000  0.5875380000000 1.0
C      1  0.4566870000000  0.4615280000000  0.4493670000000 1.0
C      1  0.4835540000000  0.5208590000000  0.5625280000000 1.0
C      1  0.5524830000000  0.4961330000000  0.4783770000000 1.0
C      1  0.5303960000000  0.5289680000000  0.4482900000000 1.0
C      1  0.5324790000000  0.5399540000000  0.5221730000000 1.0
C      1  0.4835870000000  0.5146320000000  0.4366500000000 1.0
C      1  0.4462950000000  0.4573610000000  0.4999260000000 1.0
C      1  0.4827730000000  0.5067330000000  0.4748700000000 1.0
C      1  0.5762360000000  0.4493150000000  0.4829400000000 1.0
C      1  0.5058790000000  0.4902940000000  0.5857060000000 1.0
C      1  0.4909100000000  0.5582410000000  0.4578670000000 1.0
C      1  0.4768480000000  0.4456020000000  0.5031300000000 1.0
C      1  0.4438550000000  0.5663260000000  0.4995900000000 1.0
C      1  0.4390160000000  0.4741900000000  0.5245820000000 1.0
C      1  0.4743310000000  0.5582510000000  0.5301010000000 1.0
C      1  0.5586170000000  0.5273910000000  0.5304670000000 1.0
C      1  0.5018560000000  0.4837380000000  0.4850190000000 1.0
C      1  0.5024690000000  0.5682860000000  0.4844930000000 1.0
C      1  0.5661860000000  0.5230100000000  0.4810720000000 1.0
C      1  0.4545040000000  0.4774720000000  0.4259390000000 1.0
END
