TITL C-38196-2854-634 2.16891516210411e-05 125000 -345.618284661844 0 0 60 (C2) n - 1
REM
REM in /home/bkarasulu/CARBON/AIRSS/Generating-Clusters/EDIP-Nigel-Params/Higher-Symm/Box-15A/Only-C60/SD-CG/FIRE-HFTN
REM
REM
REM
REM
REM
REM ./C.cell (414f73aa93bd7a1190c7fd0f31ff2f98)
REM
REM compiler GCC version 9.2.1 20190827 (Red Hat 9.2.1-1)
REM options -cpp -mtune=generic -march=x86-64 -g -O0 -fpre-include=/usr/include/finclude/math-vector-fortran.h
REM seed -1595560917 1255450014 -224817320 1271277307 -630837874 854368646 305351993 -1170801563 -2077215036 1994554805 901030614 2140754772 -1586133883 1921400891 1039393176 -1900368214 -811931245 -1678191628 1170512419 -1376466027 -1415062576 484775682 593229010 -259133042 -878412209 1493895752 131525392 -482850761 -830927055 2124938431 514563733 413936905 306123235
REM
CELL 1.54180   50.00000   50.00000   50.00000   90.00000   90.00000   90.00000
LATT -1
SFAC C  
C      1  0.5445570000000  0.5197310000000  0.4569220000000 1.0
C      1  0.4756150000000  0.5460690000000  0.4577950000000 1.0
C      1  0.4554430000000  0.4802690000000  0.4569220000000 1.0
C      1  0.5243850000000  0.4539310000000  0.4577950000000 1.0
C      1  0.4497820000000  0.5429260000000  0.4739820000000 1.0
C      1  0.4497910000000  0.4546660000000  0.4722230000000 1.0
C      1  0.5502180000000  0.4570740000000  0.4739830000000 1.0
C      1  0.5502090000000  0.5453340000000  0.4722230000000 1.0
C      1  0.5591780000000  0.4677940000000  0.4475520000000 1.0
C      1  0.5372650000000  0.5571280000000  0.4490350000000 1.0
C      1  0.4408220000000  0.5322060000000  0.4475520000000 1.0
C      1  0.4627350000000  0.4428710000000  0.4490360000000 1.0
C      1  0.4397150000000  0.4985920000000  0.5127610000000 1.0
C      1  0.4924340000000  0.4434210000000  0.5175860000000 1.0
C      1  0.5602850000000  0.5014090000000  0.5127600000000 1.0
C      1  0.5075670000000  0.5565800000000  0.5175850000000 1.0
C      1  0.5664570000000  0.4551240000000  0.5272730000000 1.0
C      1  0.5445800000000  0.5666270000000  0.5463590000000 1.0
C      1  0.4335430000000  0.5448760000000  0.5272730000000 1.0
C      1  0.4554200000000  0.4333740000000  0.5463590000000 1.0
C      1  0.4764590000000  0.5075200000000  0.5296200000000 1.0
C      1  0.4933460000000  0.4795130000000  0.5328710000000 1.0
C      1  0.5235410000000  0.4924800000000  0.5296200000000 1.0
C      1  0.5066540000000  0.5204870000000  0.5328710000000 1.0
C      1  0.5213810000000  0.5060360000000  0.4692430000000 1.0
C      1  0.4935900000000  0.5210400000000  0.4626950000000 1.0
C      1  0.4786190000000  0.4939630000000  0.4692440000000 1.0
C      1  0.5064100000000  0.4789600000000  0.4626950000000 1.0
C      1  0.5397690000000  0.5460520000000  0.4989300000000 1.0
C      1  0.4571520000000  0.5309680000000  0.5004220000000 1.0
C      1  0.4602310000000  0.4539480000000  0.4989310000000 1.0
C      1  0.5428480000000  0.4690320000000  0.5004220000000 1.0
C      1  0.4454640000000  0.4603980000000  0.5456900000000 1.0
C      1  0.5409970000000  0.4436590000000  0.5365960000000 1.0
C      1  0.5545360000000  0.5396020000000  0.5456900000000 1.0
C      1  0.4590030000000  0.5563420000000  0.5365960000000 1.0
C      1  0.4339170000000  0.5167270000000  0.5352270000000 1.0
C      1  0.4837440000000  0.4385710000000  0.5459490000000 1.0
C      1  0.5660830000000  0.4832730000000  0.5352270000000 1.0
C      1  0.5162560000000  0.5614290000000  0.5459490000000 1.0
C      1  0.4597150000000  0.4734370000000  0.5672980000000 1.0
C      1  0.5361900000000  0.4574590000000  0.5613250000000 1.0
C      1  0.5402850000000  0.5265630000000  0.5672970000000 1.0
C      1  0.4638100000000  0.5425410000000  0.5613250000000 1.0
C      1  0.4684340000000  0.4599610000000  0.4269760000000 1.0
C      1  0.5356190000000  0.4615990000000  0.4301900000000 1.0
C      1  0.5315650000000  0.5400390000000  0.4269760000000 1.0
C      1  0.4643810000000  0.5384010000000  0.4301890000000 1.0
C      1  0.5131920000000  0.5341400000000  0.5597440000000 1.0
C      1  0.4582300000000  0.5154480000000  0.5532160000000 1.0
C      1  0.4868080000000  0.4658600000000  0.5597440000000 1.0
C      1  0.5417700000000  0.4845520000000  0.5532160000000 1.0
C      1  0.5116040000000  0.5184990000000  0.4280980000000 1.0
C      1  0.4826020000000  0.5187480000000  0.4200120000000 1.0
C      1  0.4883960000000  0.4815010000000  0.4280980000000 1.0
C      1  0.5173980000000  0.4812520000000  0.4200120000000 1.0
C      1  0.5217780000000  0.4508470000000  0.5150280000000 1.0
C      1  0.5484130000000  0.5273640000000  0.5193820000000 1.0
C      1  0.4782220000000  0.5491530000000  0.5150280000000 1.0
C      1  0.4515870000000  0.4726360000000  0.5193830000000 1.0
END
