TITL C-38186-4112-432 -9.07181455574867e-07 125000 -368.260841743905 0 0 60 (Ci) n - 1
REM
REM in /home/bkarasulu/CARBON/AIRSS/Generating-Clusters/EDIP-Nigel-Params/Higher-Symm/Box-15A/Only-C60/SD-CG/FIRE-HFTN
REM
REM
REM
REM
REM
REM ./C.cell (414f73aa93bd7a1190c7fd0f31ff2f98)
REM
REM compiler GCC version 9.2.1 20190827 (Red Hat 9.2.1-1)
REM options -cpp -mtune=generic -march=x86-64 -g -O0 -fpre-include=/usr/include/finclude/math-vector-fortran.h
REM seed -90470234 -88177058 -1931181466 1572704178 1995985180 839182353 1847870881 -2121931996 1771228845 -2101788056 -467019980 -1324752002 -1429703341 1489057977 1334836430 -500530822 695844918 1600162216 -1013049545 -942409260 -1326806741 -641429156 -967501684 154640978 230014899 -1319231369 1349750185 1515218788 1396117748 -1343521942 -1855538059 1149958251 1984877606
REM
CELL 1.54180   50.00000   50.00000   50.00000   90.00000   90.00000   90.00000
LATT -1
SFAC C  
C      1  0.4824650000000  0.5551240000000  0.4659990000000 1.0
C      1  0.5175350000000  0.4448760000000  0.5340010000000 1.0
C      1  0.4688120000000  0.4693150000000  0.4740460000000 1.0
C      1  0.5311880000000  0.5306850000000  0.5259540000000 1.0
C      1  0.5253130000000  0.5509670000000  0.4550160000000 1.0
C      1  0.4746870000000  0.4490330000000  0.5449840000000 1.0
C      1  0.5504320000000  0.4675800000000  0.4927920000000 1.0
C      1  0.4495680000000  0.5324200000000  0.5072080000000 1.0
C      1  0.4848000000000  0.5444170000000  0.5391020000000 1.0
C      1  0.5152000000000  0.4555830000000  0.4608980000000 1.0
C      1  0.5628340000000  0.5178020000000  0.5542850000000 1.0
C      1  0.4371660000000  0.4821980000000  0.4457150000000 1.0
C      1  0.5018320000000  0.5131730000000  0.4821960000000 1.0
C      1  0.4981680000000  0.4868270000000  0.5178040000000 1.0
C      1  0.4431170000000  0.5157940000000  0.5286180000000 1.0
C      1  0.5568830000000  0.4842060000000  0.4713820000000 1.0
C      1  0.4756600000000  0.4786970000000  0.5399200000000 1.0
C      1  0.5243400000000  0.5213030000000  0.4600800000000 1.0
C      1  0.4372970000000  0.5101390000000  0.4384760000000 1.0
C      1  0.5627030000000  0.4898610000000  0.5615240000000 1.0
C      1  0.4965570000000  0.4808030000000  0.4829850000000 1.0
C      1  0.5034430000000  0.5191970000000  0.5170150000000 1.0
C      1  0.5688310000000  0.4725130000000  0.5396460000000 1.0
C      1  0.4311690000000  0.5274870000000  0.4603540000000 1.0
C      1  0.4429580000000  0.4453790000000  0.5065910000000 1.0
C      1  0.5570420000000  0.5546210000000  0.4934090000000 1.0
C      1  0.5523800000000  0.5114230000000  0.4674710000000 1.0
C      1  0.4476200000000  0.4885770000000  0.5325290000000 1.0
C      1  0.5279120000000  0.4504280000000  0.4859030000000 1.0
C      1  0.4720880000000  0.5495720000000  0.5140970000000 1.0
C      1  0.4739050000000  0.5351920000000  0.5625460000000 1.0
C      1  0.5260950000000  0.4648080000000  0.4374540000000 1.0
C      1  0.5220710000000  0.4745430000000  0.5327590000000 1.0
C      1  0.4779290000000  0.5254570000000  0.4672410000000 1.0
C      1  0.4620270000000  0.4684330000000  0.4456440000000 1.0
C      1  0.5379730000000  0.5315670000000  0.5543560000000 1.0
C      1  0.5493010000000  0.4811510000000  0.5198180000000 1.0
C      1  0.4506990000000  0.5188490000000  0.4801820000000 1.0
C      1  0.5158520000000  0.5718770000000  0.4986080000000 1.0
C      1  0.4841480000000  0.4281230000000  0.5013920000000 1.0
C      1  0.4461740000000  0.4878480000000  0.4826790000000 1.0
C      1  0.5538260000000  0.5121520000000  0.5173210000000 1.0
C      1  0.5184090000000  0.4869880000000  0.5596790000000 1.0
C      1  0.4815910000000  0.5130120000000  0.4403210000000 1.0
C      1  0.4636360000000  0.4419280000000  0.4859040000000 1.0
C      1  0.5363640000000  0.5580720000000  0.5140960000000 1.0
C      1  0.4570140000000  0.4334650000000  0.5290200000000 1.0
C      1  0.5429860000000  0.5665350000000  0.4709800000000 1.0
C      1  0.5399690000000  0.4837010000000  0.5773970000000 1.0
C      1  0.4600310000000  0.5162990000000  0.4226030000000 1.0
C      1  0.5015600000000  0.5637770000000  0.4472660000000 1.0
C      1  0.4984400000000  0.4362230000000  0.5527340000000 1.0
C      1  0.5109270000000  0.4384090000000  0.5064630000000 1.0
C      1  0.4890730000000  0.5615910000000  0.4935370000000 1.0
C      1  0.5214450000000  0.4874580000000  0.4239530000000 1.0
C      1  0.4785550000000  0.5125420000000  0.5760470000000 1.0
C      1  0.4365590000000  0.4750220000000  0.5086450000000 1.0
C      1  0.5634410000000  0.5249780000000  0.4913550000000 1.0
C      1  0.5107050000000  0.5104240000000  0.4350560000000 1.0
C      1  0.4892950000000  0.4895760000000  0.5649440000000 1.0
END
