TITL C-38199-1586-188 -2.23109495955875e-06 125000 -357.071196537201 0 0 60 (Ci) n - 1
REM
REM in /home/bkarasulu/CARBON/AIRSS/Generating-Clusters/EDIP-Nigel-Params/Higher-Symm/Box-15A/Only-C60/SD-CG/FIRE-HFTN
REM
REM
REM
REM
REM
REM ./C.cell (414f73aa93bd7a1190c7fd0f31ff2f98)
REM
REM compiler GCC version 9.2.1 20190827 (Red Hat 9.2.1-1)
REM options -cpp -mtune=generic -march=x86-64 -g -O0 -fpre-include=/usr/include/finclude/math-vector-fortran.h
REM seed 898405320 1308036493 2045711258 1611955734 1242752756 805966526 1290227324 1809533652 -1502214022 -179214326 664867071 1139337609 2020054532 167332827 -1062967548 -1793167633 -1480282260 1739688600 1482669169 490844975 -297646724 -1965174884 -818859933 -475346307 -1395133934 504846046 698066269 698892347 -1031234457 1807450551 1996262233 1846596317 1897596443
REM
CELL 1.54180   50.00000   50.00000   50.00000   90.00000   90.00000   90.00000
LATT -1
SFAC C  
C      1  0.5586880000000  0.5538710000000  0.4881320000000 1.0
C      1  0.5593400000000  0.5178330000000  0.4475290000000 1.0
C      1  0.5563660000000  0.4630270000000  0.4589120000000 1.0
C      1  0.5556120000000  0.4462670000000  0.5103510000000 1.0
C      1  0.5575520000000  0.4836790000000  0.5520360000000 1.0
C      1  0.5565280000000  0.5367550000000  0.5409850000000 1.0
C      1  0.4443880000000  0.5537330000000  0.4896490000000 1.0
C      1  0.4424480000000  0.5163210000000  0.4479640000000 1.0
C      1  0.4434720000000  0.4632450000000  0.4590150000000 1.0
C      1  0.4413120000000  0.4461290000000  0.5118680000000 1.0
C      1  0.4406600000000  0.4821670000000  0.5524710000000 1.0
C      1  0.4436340000000  0.5369730000000  0.5410880000000 1.0
C      1  0.5172900000000  0.4769160000000  0.4911010000000 1.0
C      1  0.5271990000000  0.4808880000000  0.5194210000000 1.0
C      1  0.5153140000000  0.5077110000000  0.5248730000000 1.0
C      1  0.5278330000000  0.5286440000000  0.5074490000000 1.0
C      1  0.5165510000000  0.5213850000000  0.4815980000000 1.0
C      1  0.5284510000000  0.4966900000000  0.4711740000000 1.0
C      1  0.4721670000000  0.4713560000000  0.4925510000000 1.0
C      1  0.4834490000000  0.4786150000000  0.5184020000000 1.0
C      1  0.4715490000000  0.5033100000000  0.5288260000000 1.0
C      1  0.4827100000000  0.5230840000000  0.5088990000000 1.0
C      1  0.4728010000000  0.5191120000000  0.4805790000000 1.0
C      1  0.4846860000000  0.4922890000000  0.4751270000000 1.0
C      1  0.4716110000000  0.5614210000000  0.4896000000000 1.0
C      1  0.4700300000000  0.5161730000000  0.4412160000000 1.0
C      1  0.4704320000000  0.4572270000000  0.4521830000000 1.0
C      1  0.4683820000000  0.4378210000000  0.5148590000000 1.0
C      1  0.4683660000000  0.4783920000000  0.5588590000000 1.0
C      1  0.4707540000000  0.5431780000000  0.5464680000000 1.0
C      1  0.5316180000000  0.5621790000000  0.4851410000000 1.0
C      1  0.5316340000000  0.5216080000000  0.4411410000000 1.0
C      1  0.5292460000000  0.4568220000000  0.4535320000000 1.0
C      1  0.5283890000000  0.4385790000000  0.5104000000000 1.0
C      1  0.5299700000000  0.4838270000000  0.5587840000000 1.0
C      1  0.5295680000000  0.5427730000000  0.5478170000000 1.0
C      1  0.5162210000000  0.4851330000000  0.4438400000000 1.0
C      1  0.5154520000000  0.4480400000000  0.4816690000000 1.0
C      1  0.5159630000000  0.4550510000000  0.5362850000000 1.0
C      1  0.5154330000000  0.5144430000000  0.5541870000000 1.0
C      1  0.5161510000000  0.5555270000000  0.5201250000000 1.0
C      1  0.5163000000000  0.5441860000000  0.4627940000000 1.0
C      1  0.4845670000000  0.4855570000000  0.4458130000000 1.0
C      1  0.4838490000000  0.4444730000000  0.4798750000000 1.0
C      1  0.4837000000000  0.4558140000000  0.5372060000000 1.0
C      1  0.4837790000000  0.5148670000000  0.5561600000000 1.0
C      1  0.4845480000000  0.5519600000000  0.5183310000000 1.0
C      1  0.4840370000000  0.5449490000000  0.4637150000000 1.0
C      1  0.4314500000000  0.5198210000000  0.5221450000000 1.0
C      1  0.4322530000000  0.5286950000000  0.4943740000000 1.0
C      1  0.4309920000000  0.5090210000000  0.4724660000000 1.0
C      1  0.4317730000000  0.4804040000000  0.4782700000000 1.0
C      1  0.4304410000000  0.4714330000000  0.5060670000000 1.0
C      1  0.4295220000000  0.4909670000000  0.5280890000000 1.0
C      1  0.5682270000000  0.5195960000000  0.5217300000000 1.0
C      1  0.5695590000000  0.5285670000000  0.4939330000000 1.0
C      1  0.5704780000000  0.5090330000000  0.4719110000000 1.0
C      1  0.5685500000000  0.4801790000000  0.4778550000000 1.0
C      1  0.5677470000000  0.4713050000000  0.5056260000000 1.0
C      1  0.5690080000000  0.4909790000000  0.5275340000000 1.0
END
