TITL C-38192-7909-80 5.63943681626466e-05 125000 -357.449109823917 0 0 60 (C1) n - 1
REM
REM in /home/bkarasulu/CARBON/AIRSS/Generating-Clusters/EDIP-Nigel-Params/Higher-Symm/Box-15A/Only-C60/SD-CG/FIRE-HFTN
REM
REM
REM
REM
REM
REM ./C.cell (414f73aa93bd7a1190c7fd0f31ff2f98)
REM
REM compiler GCC version 9.2.1 20190827 (Red Hat 9.2.1-1)
REM options -cpp -mtune=generic -march=x86-64 -g -O0 -fpre-include=/usr/include/finclude/math-vector-fortran.h
REM seed -1854067199 -418675277 1446533162 1254473698 223882668 -19322608 -923612066 -1214691675 -1949508589 462267142 -1312344007 -302444757 1960263290 -166196134 1802315742 347342327 -1624321759 1747307225 -929626920 1500429035 -133763492 2039804822 -541657483 500027882 2050166999 -1532984415 -140699370 -320879179 1437136566 1148903256 119264604 -1257499533 -2108979182
REM
CELL 1.54180   50.00000   50.00000   50.00000   90.00000   90.00000   90.00000
LATT -1
SFAC C  
C      1  0.5418310000000  0.4223690000000  0.4935700000000 1.0
C      1  0.5458760000000  0.4333980000000  0.5187000000000 1.0
C      1  0.5257980000000  0.4303410000000  0.5390180000000 1.0
C      1  0.4876900000000  0.4356920000000  0.5394010000000 1.0
C      1  0.4635450000000  0.4526370000000  0.5299820000000 1.0
C      1  0.4587530000000  0.4633200000000  0.5019530000000 1.0
C      1  0.4510320000000  0.4427170000000  0.4812050000000 1.0
C      1  0.4709250000000  0.4252330000000  0.4726530000000 1.0
C      1  0.4876540000000  0.4327320000000  0.4515000000000 1.0
C      1  0.5140470000000  0.4241840000000  0.4542920000000 1.0
C      1  0.5323980000000  0.4359330000000  0.4715200000000 1.0
C      1  0.4585320000000  0.4733770000000  0.4452710000000 1.0
C      1  0.4850190000000  0.4603660000000  0.4424040000000 1.0
C      1  0.5184860000000  0.4753900000000  0.4491020000000 1.0
C      1  0.5334970000000  0.4646100000000  0.4717070000000 1.0
C      1  0.5465510000000  0.4775820000000  0.4948520000000 1.0
C      1  0.5488900000000  0.4621410000000  0.5191000000000 1.0
C      1  0.5256140000000  0.4574240000000  0.5497320000000 1.0
C      1  0.4976150000000  0.4592440000000  0.5568980000000 1.0
C      1  0.4730630000000  0.4763900000000  0.5468650000000 1.0
C      1  0.4368300000000  0.4847820000000  0.5022110000000 1.0
C      1  0.4406650000000  0.4558600000000  0.4586230000000 1.0
C      1  0.4350420000000  0.5023710000000  0.4779780000000 1.0
C      1  0.4553960000000  0.5006510000000  0.4563760000000 1.0
C      1  0.4999560000000  0.5092790000000  0.4209520000000 1.0
C      1  0.5196610000000  0.5019160000000  0.4390820000000 1.0
C      1  0.5509350000000  0.5063190000000  0.4976980000000 1.0
C      1  0.5703530000000  0.5167280000000  0.5170790000000 1.0
C      1  0.5619100000000  0.5235230000000  0.5440280000000 1.0
C      1  0.5381130000000  0.5270600000000  0.5739500000000 1.0
C      1  0.5126610000000  0.5193670000000  0.5821470000000 1.0
C      1  0.4594990000000  0.5020660000000  0.5434000000000 1.0
C      1  0.4361890000000  0.5029850000000  0.5257770000000 1.0
C      1  0.4275300000000  0.5298440000000  0.4872780000000 1.0
C      1  0.4594450000000  0.5261970000000  0.4421820000000 1.0
C      1  0.4825380000000  0.5311630000000  0.4246390000000 1.0
C      1  0.5250880000000  0.5225810000000  0.4576350000000 1.0
C      1  0.5470410000000  0.5251570000000  0.4757820000000 1.0
C      1  0.5795800000000  0.5410400000000  0.5061260000000 1.0
C      1  0.5630320000000  0.5526310000000  0.5477460000000 1.0
C      1  0.5433890000000  0.5553650000000  0.5687410000000 1.0
C      1  0.4951140000000  0.5315260000000  0.5642020000000 1.0
C      1  0.4674230000000  0.5260560000000  0.5574590000000 1.0
C      1  0.4271470000000  0.5301150000000  0.5166750000000 1.0
C      1  0.5502370000000  0.5686610000000  0.5269490000000 1.0
C      1  0.5227340000000  0.5699030000000  0.5538670000000 1.0
C      1  0.4963510000000  0.5594060000000  0.5564580000000 1.0
C      1  0.4608590000000  0.5522310000000  0.5455440000000 1.0
C      1  0.4459160000000  0.5520490000000  0.5210840000000 1.0
C      1  0.4467370000000  0.5512230000000  0.4828490000000 1.0
C      1  0.4604560000000  0.5507880000000  0.4577940000000 1.0
C      1  0.4936080000000  0.5543450000000  0.4397990000000 1.0
C      1  0.5194650000000  0.5500790000000  0.4517450000000 1.0
C      1  0.5458190000000  0.5545720000000  0.4795560000000 1.0
C      1  0.5626900000000  0.5630380000000  0.5013660000000 1.0
C      1  0.4942470000000  0.5011500000000  0.4975630000000 1.0
C      1  0.4980600000000  0.5536300000000  0.5028380000000 1.0
C      1  0.4948410000000  0.5271900000000  0.5028900000000 1.0
C      1  0.4969730000000  0.5792140000000  0.5004300000000 1.0
C      1  0.4830390000000  0.4769750000000  0.4944810000000 1.0
END
