TITL C-38193-7935-166 -3.30517607829291e-05 125000 -365.31700948223 0 0 60 (C1) n - 1
REM
REM in /home/bkarasulu/CARBON/AIRSS/Generating-Clusters/EDIP-Nigel-Params/Higher-Symm/Box-15A/Only-C60/SD-CG/FIRE-HFTN
REM
REM
REM
REM
REM
REM ./C.cell (414f73aa93bd7a1190c7fd0f31ff2f98)
REM
REM compiler GCC version 9.2.1 20190827 (Red Hat 9.2.1-1)
REM options -cpp -mtune=generic -march=x86-64 -g -O0 -fpre-include=/usr/include/finclude/math-vector-fortran.h
REM seed 1426629964 546188351 -1247694586 -561911552 1103999046 832521674 -963472396 472730839 266447383 -1235913179 -2121574987 1651320941 -914799320 -913155621 165702526 128922133 -1869686086 64765449 1789285055 -10123504 -1407656091 1730533491 1384406333 -1188268442 -835673745 -9594436 -1154277728 1954598707 1391933264 2125233120 2003447164 914861940 -1633263436
REM
CELL 1.54180   50.00000   50.00000   50.00000   90.00000   90.00000   90.00000
LATT -1
SFAC C  
C      1  0.5681830000000  0.4718660000000  0.4941120000000 1.0
C      1  0.4888870000000  0.5507480000000  0.4698670000000 1.0
C      1  0.4676990000000  0.4861230000000  0.5618180000000 1.0
C      1  0.4286910000000  0.5290320000000  0.4925680000000 1.0
C      1  0.4329440000000  0.4740370000000  0.5117170000000 1.0
C      1  0.5684570000000  0.5283080000000  0.5074450000000 1.0
C      1  0.5149790000000  0.4405660000000  0.4692210000000 1.0
C      1  0.5134860000000  0.5556430000000  0.5300700000000 1.0
C      1  0.4889330000000  0.4361320000000  0.5327560000000 1.0
C      1  0.5293190000000  0.5127470000000  0.5715410000000 1.0
C      1  0.5297790000000  0.4887200000000  0.4258090000000 1.0
C      1  0.4738110000000  0.5108820000000  0.4288170000000 1.0
C      1  0.4775260000000  0.5654080000000  0.4911270000000 1.0
C      1  0.5666770000000  0.4880710000000  0.4718710000000 1.0
C      1  0.4919580000000  0.4764930000000  0.5726320000000 1.0
C      1  0.5257430000000  0.4346470000000  0.4942910000000 1.0
C      1  0.4756990000000  0.4321410000000  0.5084060000000 1.0
C      1  0.5256840000000  0.5626430000000  0.5061600000000 1.0
C      1  0.4483860000000  0.5156450000000  0.4777300000000 1.0
C      1  0.5691670000000  0.5117470000000  0.5288730000000 1.0
C      1  0.4260500000000  0.4934570000000  0.5305390000000 1.0
C      1  0.5063650000000  0.5269730000000  0.5705880000000 1.0
C      1  0.4941760000000  0.5292320000000  0.4240160000000 1.0
C      1  0.5088050000000  0.4706060000000  0.4256830000000 1.0
C      1  0.4655990000000  0.4868230000000  0.4424280000000 1.0
C      1  0.4433000000000  0.4664380000000  0.4856350000000 1.0
C      1  0.4866720000000  0.4440210000000  0.4612640000000 1.0
C      1  0.5382570000000  0.5140370000000  0.4387400000000 1.0
C      1  0.5369590000000  0.4885550000000  0.5597440000000 1.0
C      1  0.4582920000000  0.5163620000000  0.5622240000000 1.0
C      1  0.5572500000000  0.5343740000000  0.4822650000000 1.0
C      1  0.5556740000000  0.4662800000000  0.5188800000000 1.0
C      1  0.4428150000000  0.5368470000000  0.5164860000000 1.0
C      1  0.5162140000000  0.5570190000000  0.4580550000000 1.0
C      1  0.5156030000000  0.4454160000000  0.5410110000000 1.0
C      1  0.4851880000000  0.5549520000000  0.5374540000000 1.0
C      1  0.4851260000000  0.4649560000000  0.4402790000000 1.0
C      1  0.4658320000000  0.4442180000000  0.4839120000000 1.0
C      1  0.4448650000000  0.4886970000000  0.4646950000000 1.0
C      1  0.5195110000000  0.5379620000000  0.4345270000000 1.0
C      1  0.4817130000000  0.5354920000000  0.5598450000000 1.0
C      1  0.5160920000000  0.4679510000000  0.5607380000000 1.0
C      1  0.5366640000000  0.5558650000000  0.4809730000000 1.0
C      1  0.4658980000000  0.5570970000000  0.5155150000000 1.0
C      1  0.5338460000000  0.4468560000000  0.5183270000000 1.0
C      1  0.5558840000000  0.5126480000000  0.4630840000000 1.0
C      1  0.4364810000000  0.5187160000000  0.5403800000000 1.0
C      1  0.5570280000000  0.4881560000000  0.5382060000000 1.0
C      1  0.4898470000000  0.4719640000000  0.5176690000000 1.0
C      1  0.4971310000000  0.5222940000000  0.4781200000000 1.0
C      1  0.5311030000000  0.4906360000000  0.4921510000000 1.0
C      1  0.5112030000000  0.4781830000000  0.4737520000000 1.0
C      1  0.5045570000000  0.5020850000000  0.4551540000000 1.0
C      1  0.5168220000000  0.4875360000000  0.5214950000000 1.0
C      1  0.5061960000000  0.5177950000000  0.5275860000000 1.0
C      1  0.4668660000000  0.4864560000000  0.5312300000000 1.0
C      1  0.4746490000000  0.5083240000000  0.4912380000000 1.0
C      1  0.4846670000000  0.4783090000000  0.4889880000000 1.0
C      1  0.4752520000000  0.5148890000000  0.5212750000000 1.0
C      1  0.5195380000000  0.5199240000000  0.4990210000000 1.0
END
