TITL C-38188-488-6 0.0578917556903648 125000 -369.983664452845 0 0 60 (C1) n - 1
REM
REM in /home/bkarasulu/CARBON/AIRSS/Generating-Clusters/EDIP-Nigel-Params/Higher-Symm/Box-15A/Only-C60/SD-CG/FIRE-HFTN
REM
REM
REM
REM
REM
REM ./C.cell (414f73aa93bd7a1190c7fd0f31ff2f98)
REM
REM compiler GCC version 9.2.1 20190827 (Red Hat 9.2.1-1)
REM options -cpp -mtune=generic -march=x86-64 -g -O0 -fpre-include=/usr/include/finclude/math-vector-fortran.h
REM seed -1289678174 -1110146667 771610879 -786342636 1714971633 186865922 -669339850 -213028727 -1002352276 2023465786 -48703033 2053076123 1613179238 -1597431266 -2009262934 -1844797731 590294052 -1531008073 -1638694407 522184837 -467962387 131096245 -1545289910 998610862 -1364461237 2129939047 -2093455754 1731956201 724931880 1089083868 -1955277464 1704597612 -2132056360
REM
CELL 1.54180   50.00000   50.00000   50.00000   90.00000   90.00000   90.00000
LATT -1
SFAC C  
C      1  0.5486490000000  0.4716100000000  0.4470890000000 1.0
C      1  0.4596980000000  0.4477570000000  0.5529570000000 1.0
C      1  0.4284140000000  0.5067320000000  0.5171500000000 1.0
C      1  0.4951450000000  0.4354410000000  0.5138580000000 1.0
C      1  0.4477300000000  0.5304330000000  0.4340800000000 1.0
C      1  0.5292520000000  0.4501360000000  0.4463840000000 1.0
C      1  0.4439290000000  0.4512520000000  0.5066960000000 1.0
C      1  0.5837460000000  0.5021500000000  0.5198360000000 1.0
C      1  0.5335640000000  0.4531610000000  0.5391040000000 1.0
C      1  0.4641020000000  0.5297760000000  0.5582020000000 1.0
C      1  0.5030920000000  0.4614770000000  0.4480040000000 1.0
C      1  0.5031090000000  0.4856290000000  0.4328530000000 1.0
C      1  0.4912160000000  0.5749170000000  0.5319240000000 1.0
C      1  0.5062260000000  0.5061770000000  0.5583790000000 1.0
C      1  0.5470180000000  0.5349550000000  0.4546370000000 1.0
C      1  0.5064280000000  0.5160010000000  0.4936840000000 1.0
C      1  0.4845160000000  0.4870620000000  0.5655730000000 1.0
C      1  0.5673360000000  0.4476770000000  0.5021490000000 1.0
C      1  0.4631580000000  0.5144040000000  0.4502320000000 1.0
C      1  0.4354750000000  0.5354590000000  0.5174500000000 1.0
C      1  0.4438010000000  0.4898860000000  0.5364690000000 1.0
C      1  0.4310500000000  0.4692170000000  0.4891260000000 1.0
C      1  0.4679730000000  0.5614340000000  0.4924990000000 1.0
C      1  0.5481540000000  0.5274750000000  0.5435670000000 1.0
C      1  0.5557760000000  0.5364180000000  0.4810810000000 1.0
C      1  0.5703800000000  0.5256910000000  0.5261990000000 1.0
C      1  0.5340820000000  0.5029190000000  0.5498790000000 1.0
C      1  0.5281830000000  0.5210990000000  0.4403840000000 1.0
C      1  0.4307370000000  0.5426870000000  0.4163630000000 1.0
C      1  0.4422470000000  0.4606500000000  0.5349900000000 1.0
C      1  0.4563870000000  0.5135400000000  0.4801270000000 1.0
C      1  0.5396870000000  0.5543600000000  0.4971800000000 1.0
C      1  0.4928550000000  0.5312770000000  0.5539060000000 1.0
C      1  0.5643440000000  0.4476030000000  0.4730840000000 1.0
C      1  0.5561530000000  0.5092890000000  0.4940610000000 1.0
C      1  0.5153870000000  0.4692500000000  0.4835420000000 1.0
C      1  0.4807040000000  0.5018120000000  0.4934090000000 1.0
C      1  0.5043270000000  0.4530480000000  0.5363090000000 1.0
C      1  0.4731110000000  0.4487480000000  0.4978800000000 1.0
C      1  0.5873150000000  0.4554050000000  0.5203040000000 1.0
C      1  0.5383330000000  0.4343540000000  0.4689530000000 1.0
C      1  0.5281710000000  0.4965740000000  0.4934730000000 1.0
C      1  0.4856920000000  0.4736390000000  0.4864460000000 1.0
C      1  0.5064000000000  0.5553360000000  0.5456590000000 1.0
C      1  0.4578110000000  0.5008070000000  0.5604300000000 1.0
C      1  0.4379310000000  0.5672000000000  0.4040780000000 1.0
C      1  0.4185650000000  0.5674570000000  0.4228310000000 1.0
C      1  0.5428550000000  0.4399220000000  0.5148210000000 1.0
C      1  0.5486970000000  0.4779340000000  0.5437660000000 1.0
C      1  0.4909970000000  0.5104550000000  0.4421460000000 1.0
C      1  0.4311790000000  0.4971940000000  0.4888810000000 1.0
C      1  0.4854390000000  0.4582480000000  0.5578560000000 1.0
C      1  0.4918780000000  0.5659730000000  0.5052340000000 1.0
C      1  0.5337540000000  0.5513610000000  0.5352480000000 1.0
C      1  0.5316120000000  0.4927430000000  0.4339860000000 1.0
C      1  0.5124270000000  0.5444180000000  0.5033520000000 1.0
C      1  0.4461580000000  0.5441630000000  0.5420430000000 1.0
C      1  0.5212310000000  0.4394220000000  0.4949850000000 1.0
C      1  0.4499830000000  0.5405360000000  0.4923020000000 1.0
C      1  0.5764360000000  0.4782490000000  0.5329100000000 1.0
END
