TITL C-38187-2739-167 1.2956831506145e-05 125000 -372.936076295865 0 0 60 (C1) n - 1
REM
REM in /home/bkarasulu/CARBON/AIRSS/Generating-Clusters/EDIP-Nigel-Params/Higher-Symm/Box-15A/Only-C60/SD-CG/FIRE-HFTN
REM
REM
REM
REM
REM
REM ./C.cell (414f73aa93bd7a1190c7fd0f31ff2f98)
REM
REM compiler GCC version 9.2.1 20190827 (Red Hat 9.2.1-1)
REM options -cpp -mtune=generic -march=x86-64 -g -O0 -fpre-include=/usr/include/finclude/math-vector-fortran.h
REM seed 900757655 -639584508 1702188069 1364883397 357575083 363650312 -2116982011 -240228732 -581473761 -1584065411 84687111 523745761 -189456770 -1265456482 1829551068 256314609 -342677767 270599109 972385388 -303211487 990199232 -1339772737 371035334 -1618652907 -850161572 -1419897176 1204513838 1148328929 -428630310 -322365479 1219368714 1123480764 -6601963
REM
CELL 1.54180   50.00000   50.00000   50.00000   90.00000   90.00000   90.00000
LATT -1
SFAC C  
C      1  0.5237570000000  0.5563860000000  0.4622970000000 1.0
C      1  0.4762220000000  0.4389330000000  0.4620780000000 1.0
C      1  0.5259900000000  0.5555980000000  0.5404240000000 1.0
C      1  0.4770610000000  0.4455440000000  0.5403660000000 1.0
C      1  0.4795520000000  0.5577030000000  0.4619940000000 1.0
C      1  0.5207940000000  0.4386440000000  0.4606280000000 1.0
C      1  0.4774080000000  0.5552940000000  0.5398470000000 1.0
C      1  0.5211590000000  0.4421230000000  0.5434230000000 1.0
C      1  0.5164270000000  0.4391390000000  0.5147390000000 1.0
C      1  0.4870000000000  0.5567070000000  0.5120720000000 1.0
C      1  0.5151850000000  0.4587740000000  0.4826260000000 1.0
C      1  0.4683840000000  0.5553470000000  0.4888690000000 1.0
C      1  0.4872050000000  0.4423770000000  0.5120350000000 1.0
C      1  0.5166770000000  0.5608560000000  0.5121970000000 1.0
C      1  0.4825400000000  0.4582730000000  0.4848480000000 1.0
C      1  0.5345300000000  0.5532280000000  0.4890920000000 1.0
C      1  0.5303490000000  0.4683040000000  0.5526870000000 1.0
C      1  0.4665550000000  0.5301350000000  0.5500150000000 1.0
C      1  0.5309580000000  0.4642020000000  0.4470700000000 1.0
C      1  0.4744940000000  0.5327860000000  0.4478490000000 1.0
C      1  0.4681120000000  0.4713000000000  0.5513170000000 1.0
C      1  0.5338850000000  0.5284610000000  0.5494460000000 1.0
C      1  0.4671190000000  0.4649190000000  0.4487120000000 1.0
C      1  0.5295630000000  0.5323290000000  0.4467810000000 1.0
C      1  0.5251690000000  0.5244770000000  0.5766200000000 1.0
C      1  0.4743190000000  0.4755390000000  0.5793540000000 1.0
C      1  0.5291670000000  0.5140260000000  0.3998600000000 1.0
C      1  0.4703660000000  0.4842240000000  0.4035400000000 1.0
C      1  0.4702950000000  0.5011300000000  0.5891530000000 1.0
C      1  0.5284680000000  0.4997540000000  0.5889490000000 1.0
C      1  0.4732570000000  0.5108660000000  0.4043300000000 1.0
C      1  0.5255440000000  0.4879450000000  0.4049530000000 1.0
C      1  0.4377910000000  0.5240280000000  0.5113000000000 1.0
C      1  0.5595230000000  0.4700980000000  0.5140900000000 1.0
C      1  0.4498410000000  0.5324320000000  0.4875140000000 1.0
C      1  0.5558180000000  0.4723740000000  0.4875610000000 1.0
C      1  0.5633740000000  0.5202570000000  0.5120570000000 1.0
C      1  0.4375530000000  0.4735130000000  0.5144670000000 1.0
C      1  0.5501530000000  0.5284650000000  0.4889740000000 1.0
C      1  0.4433540000000  0.4753220000000  0.4883850000000 1.0
C      1  0.4465680000000  0.4853810000000  0.5378430000000 1.0
C      1  0.5534720000000  0.5113200000000  0.5364720000000 1.0
C      1  0.4547130000000  0.4865130000000  0.4658670000000 1.0
C      1  0.5454390000000  0.5137360000000  0.4638670000000 1.0
C      1  0.5513120000000  0.4820800000000  0.5377990000000 1.0
C      1  0.4463130000000  0.5145920000000  0.5360880000000 1.0
C      1  0.5460050000000  0.4842400000000  0.4644740000000 1.0
C      1  0.4557200000000  0.5159850000000  0.4634730000000 1.0
C      1  0.4984490000000  0.4642620000000  0.5882350000000 1.0
C      1  0.5005720000000  0.5410970000000  0.5811320000000 1.0
C      1  0.4839480000000  0.4732010000000  0.4253880000000 1.0
C      1  0.5161400000000  0.5284900000000  0.4203910000000 1.0
C      1  0.5234570000000  0.4740750000000  0.5801370000000 1.0
C      1  0.4745910000000  0.5260820000000  0.5774070000000 1.0
C      1  0.5131460000000  0.4739980000000  0.4253860000000 1.0
C      1  0.4863400000000  0.5288110000000  0.4211990000000 1.0
C      1  0.4981010000000  0.4259670000000  0.4504780000000 1.0
C      1  0.5022400000000  0.5738620000000  0.4574750000000 1.0
C      1  0.4972630000000  0.4331040000000  0.5566660000000 1.0
C      1  0.5012920000000  0.5613890000000  0.5577060000000 1.0
END
