TITL C-38197-8510-367 0.683237253927051 125000 -341.016040348357 0 0 60 (S4) n - 1
REM
REM in /home/bkarasulu/CARBON/AIRSS/Generating-Clusters/EDIP-Nigel-Params/Higher-Symm/Box-15A/Only-C60/SD-CG/FIRE-HFTN
REM
REM
REM
REM
REM
REM ./C.cell (414f73aa93bd7a1190c7fd0f31ff2f98)
REM
REM compiler GCC version 9.2.1 20190827 (Red Hat 9.2.1-1)
REM options -cpp -mtune=generic -march=x86-64 -g -O0 -fpre-include=/usr/include/finclude/math-vector-fortran.h
REM seed -1467226151 1889350306 -2070050595 -1615372830 -1297083006 -1725785798 1564732093 -720429452 1180870208 1790229749 230058295 285054694 -1644144336 -131412381 -1567866945 2109132646 -1851945419 -1391164166 -454695614 -445532883 -1933078035 -463388106 121668663 1869670988 1498482287 -1577802771 1505046890 -821629365 -1646677958 1491524596 -108814131 -834752421 54702632
REM
CELL 1.54180   50.00000   50.00000   50.00000   90.00000   90.00000   90.00000
LATT -1
SFAC C  
C      1  0.5324420000000  0.5646740000000  0.4432270000000 1.0
C      1  0.4432270000000  0.4353260000000  0.4675580000000 1.0
C      1  0.4675580000000  0.5646740000000  0.5567730000000 1.0
C      1  0.5567730000000  0.4353260000000  0.5324420000000 1.0
C      1  0.4977130000000  0.5771830000000  0.5922050000000 1.0
C      1  0.5922050000000  0.4228170000000  0.5022870000000 1.0
C      1  0.5022870000000  0.5771830000000  0.4077940000000 1.0
C      1  0.4077940000000  0.4228170000000  0.4977130000000 1.0
C      1  0.5488190000000  0.4829370000000  0.5431900000000 1.0
C      1  0.5431900000000  0.5170630000000  0.4511810000000 1.0
C      1  0.4511810000000  0.4829370000000  0.4568100000000 1.0
C      1  0.4568100000000  0.5170630000000  0.5488190000000 1.0
C      1  0.5549690000000  0.4924910000000  0.4374460000000 1.0
C      1  0.4374460000000  0.5075090000000  0.4450310000000 1.0
C      1  0.4450310000000  0.4924910000000  0.5625540000000 1.0
C      1  0.5625540000000  0.5075090000000  0.5549690000000 1.0
C      1  0.4571100000000  0.5582260000000  0.4239420000000 1.0
C      1  0.4239420000000  0.4417740000000  0.5428900000000 1.0
C      1  0.5428900000000  0.5582260000000  0.5760580000000 1.0
C      1  0.5760580000000  0.4417740000000  0.4571100000000 1.0
C      1  0.5375240000000  0.4733350000000  0.4538110000000 1.0
C      1  0.4538110000000  0.5266650000000  0.4624760000000 1.0
C      1  0.4624760000000  0.4733350000000  0.5461890000000 1.0
C      1  0.5461890000000  0.5266650000000  0.5375240000000 1.0
C      1  0.4103540000000  0.4592200000000  0.5595770000000 1.0
C      1  0.5595770000000  0.5407800000000  0.5896460000000 1.0
C      1  0.5896460000000  0.4592200000000  0.4404230000000 1.0
C      1  0.4404230000000  0.5407800000000  0.4103540000000 1.0
C      1  0.4168090000000  0.4858880000000  0.5639690000000 1.0
C      1  0.5639690000000  0.5141130000000  0.5831910000000 1.0
C      1  0.5831910000000  0.4858870000000  0.4360310000000 1.0
C      1  0.4360310000000  0.5141130000000  0.4168090000000 1.0
C      1  0.4762630000000  0.5723870000000  0.4102290000000 1.0
C      1  0.4102290000000  0.4276130000000  0.5237370000000 1.0
C      1  0.5237370000000  0.5723870000000  0.5897710000000 1.0
C      1  0.5897710000000  0.4276130000000  0.4762630000000 1.0
C      1  0.5988870000000  0.5005900000000  0.4206260000000 1.0
C      1  0.4206260000000  0.4994100000000  0.4011130000000 1.0
C      1  0.4011130000000  0.5005900000000  0.5793740000000 1.0
C      1  0.5793740000000  0.4994100000000  0.5988870000000 1.0
C      1  0.4360610000000  0.4620160000000  0.4688810000000 1.0
C      1  0.4688810000000  0.5379840000000  0.5639390000000 1.0
C      1  0.5639390000000  0.4620160000000  0.5311190000000 1.0
C      1  0.5311190000000  0.5379840000000  0.4360610000000 1.0
C      1  0.5026090000000  0.5012350000000  0.5335440000000 1.0
C      1  0.5335440000000  0.4987650000000  0.4973910000000 1.0
C      1  0.4973910000000  0.5012350000000  0.4664560000000 1.0
C      1  0.4664560000000  0.4987650000000  0.5026090000000 1.0
C      1  0.5505980000000  0.4505770000000  0.4632440000000 1.0
C      1  0.4632440000000  0.5494230000000  0.4494020000000 1.0
C      1  0.4494020000000  0.4505770000000  0.5367560000000 1.0
C      1  0.5367560000000  0.5494230000000  0.5505980000000 1.0
C      1  0.5255390000000  0.4981960000000  0.4700020000000 1.0
C      1  0.4700020000000  0.5018040000000  0.4744610000000 1.0
C      1  0.4744610000000  0.4981960000000  0.5299980000000 1.0
C      1  0.5299980000000  0.5018040000000  0.5255390000000 1.0
C      1  0.5833540000000  0.4294670000000  0.5272830000000 1.0
C      1  0.5272830000000  0.5705330000000  0.4166460000000 1.0
C      1  0.4166460000000  0.4294670000000  0.4727170000000 1.0
C      1  0.4727170000000  0.5705330000000  0.5833540000000 1.0
END
