TITL C-38185-7677-178 0.000198691588899801 125000 -351.037997439741 0 0 60 (C1) n - 1
REM
REM in /home/bkarasulu/CARBON/AIRSS/Generating-Clusters/EDIP-Nigel-Params/Higher-Symm/Box-15A/Only-C60/SD-CG/FIRE-HFTN
REM
REM
REM
REM
REM
REM ./C.cell (414f73aa93bd7a1190c7fd0f31ff2f98)
REM
REM compiler GCC version 9.2.1 20190827 (Red Hat 9.2.1-1)
REM options -cpp -mtune=generic -march=x86-64 -g -O0 -fpre-include=/usr/include/finclude/math-vector-fortran.h
REM seed 453958138 1147368902 1144879032 -1765842805 161575990 -1112548193 1314286544 70580891 1354411671 -1545202912 -1004953840 944026996 1916071079 2079481824 1869565435 -551661152 -1209626484 -440196912 -1253757993 -274682426 -964855563 -1732770808 -1449447116 909494494 1767188798 -1665538788 463474448 1551135564 1550140489 1491968607 -731782673 -816614204 -2009186150
REM
CELL 1.54180   50.00000   50.00000   50.00000   90.00000   90.00000   90.00000
LATT -1
SFAC C  
C      1  0.4882060000000  0.4850720000000  0.4465020000000 1.0
C      1  0.4847080000000  0.4745550000000  0.5286400000000 1.0
C      1  0.4762030000000  0.5418500000000  0.4995450000000 1.0
C      1  0.5445260000000  0.5452070000000  0.5293150000000 1.0
C      1  0.5572430000000  0.5087750000000  0.4485680000000 1.0
C      1  0.5538670000000  0.4567840000000  0.5173600000000 1.0
C      1  0.5352220000000  0.4809960000000  0.4746180000000 1.0
C      1  0.5323500000000  0.4945620000000  0.5244400000000 1.0
C      1  0.5314460000000  0.5301610000000  0.4897210000000 1.0
C      1  0.4467230000000  0.5273870000000  0.5497820000000 1.0
C      1  0.4542760000000  0.5254040000000  0.4539350000000 1.0
C      1  0.4424220000000  0.4495630000000  0.5026310000000 1.0
C      1  0.4739550000000  0.4383940000000  0.4645150000000 1.0
C      1  0.4792580000000  0.4964750000000  0.5689170000000 1.0
C      1  0.4809810000000  0.5669820000000  0.4595810000000 1.0
C      1  0.5702760000000  0.4753250000000  0.5314260000000 1.0
C      1  0.5634710000000  0.5504850000000  0.5092190000000 1.0
C      1  0.5751370000000  0.4908760000000  0.4604810000000 1.0
C      1  0.5692890000000  0.5028400000000  0.5345150000000 1.0
C      1  0.5700880000000  0.5369260000000  0.4864540000000 1.0
C      1  0.5799010000000  0.4708460000000  0.4790390000000 1.0
C      1  0.5100520000000  0.5198330000000  0.5674060000000 1.0
C      1  0.5153810000000  0.5518710000000  0.4505690000000 1.0
C      1  0.5044720000000  0.4260870000000  0.4853970000000 1.0
C      1  0.5543370000000  0.4606010000000  0.4874480000000 1.0
C      1  0.5456660000000  0.5179670000000  0.5411200000000 1.0
C      1  0.5528480000000  0.5331990000000  0.4640840000000 1.0
C      1  0.4868410000000  0.4705660000000  0.4987190000000 1.0
C      1  0.4752000000000  0.5129600000000  0.5089510000000 1.0
C      1  0.4878470000000  0.5090010000000  0.4623180000000 1.0
C      1  0.5069710000000  0.5692300000000  0.4732880000000 1.0
C      1  0.5026680000000  0.4390380000000  0.4591700000000 1.0
C      1  0.5078250000000  0.4900020000000  0.5670600000000 1.0
C      1  0.5073700000000  0.5510770000000  0.4982230000000 1.0
C      1  0.5125030000000  0.4678450000000  0.4537440000000 1.0
C      1  0.5131940000000  0.4760210000000  0.5401440000000 1.0
C      1  0.4655890000000  0.5459060000000  0.4714560000000 1.0
C      1  0.4638040000000  0.4588900000000  0.4836740000000 1.0
C      1  0.4635490000000  0.5034250000000  0.5450560000000 1.0
C      1  0.4625310000000  0.5519160000000  0.5464730000000 1.0
C      1  0.4439450000000  0.5021840000000  0.4401240000000 1.0
C      1  0.4521110000000  0.4370490000000  0.5261870000000 1.0
C      1  0.5043000000000  0.5385280000000  0.5472100000000 1.0
C      1  0.5115700000000  0.5227230000000  0.4511940000000 1.0
C      1  0.5123180000000  0.4362930000000  0.5099030000000 1.0
C      1  0.4322070000000  0.5408590000000  0.5246430000000 1.0
C      1  0.4527080000000  0.4854910000000  0.4730790000000 1.0
C      1  0.4412850000000  0.4745190000000  0.5213730000000 1.0
C      1  0.4619450000000  0.4803600000000  0.4358730000000 1.0
C      1  0.4676060000000  0.4544960000000  0.5415820000000 1.0
C      1  0.4587430000000  0.5577970000000  0.5180050000000 1.0
C      1  0.5166300000000  0.5546210000000  0.5273510000000 1.0
C      1  0.5297040000000  0.5009650000000  0.4420910000000 1.0
C      1  0.5271420000000  0.4507020000000  0.5288840000000 1.0
C      1  0.5239890000000  0.5012270000000  0.4956350000000 1.0
C      1  0.4480830000000  0.4992120000000  0.5020240000000 1.0
C      1  0.4020870000000  0.5138120000000  0.4974180000000 1.0
C      1  0.4941120000000  0.4984510000000  0.4910150000000 1.0
C      1  0.4270990000000  0.5200610000000  0.5035320000000 1.0
C      1  0.5976360000000  0.4740900000000  0.4987920000000 1.0
END
