TITL C-38195-9455-143 3.28153786247789e-05 125000 -369.458249768298 0 0 60 (Ci) n - 1
REM
REM in /home/bkarasulu/CARBON/AIRSS/Generating-Clusters/EDIP-Nigel-Params/Higher-Symm/Box-15A/Only-C60/SD-CG/FIRE-HFTN
REM
REM
REM
REM
REM
REM ./C.cell (414f73aa93bd7a1190c7fd0f31ff2f98)
REM
REM compiler GCC version 9.2.1 20190827 (Red Hat 9.2.1-1)
REM options -cpp -mtune=generic -march=x86-64 -g -O0 -fpre-include=/usr/include/finclude/math-vector-fortran.h
REM seed -1624308991 1239138925 1389586665 135680434 -838442892 -1642582977 109185511 -1064913997 606198024 894695081 -1210140441 -841109864 2079004783 -1658640158 1052620067 -2102322056 396377139 1565324343 1003100790 -642248964 211096952 1685142113 1191798995 -545791204 -1394236065 -1825373892 -1663560772 955987340 1160951361 2104285803 713369410 291175793 -1734033393
REM
CELL 1.54180   50.00000   50.00000   50.00000   90.00000   90.00000   90.00000
LATT -1
SFAC C  
C      1  0.4737430000000  0.5154710000000  0.5284440000000 1.0
C      1  0.5262570000000  0.4845290000000  0.4715560000000 1.0
C      1  0.4679140000000  0.4313500000000  0.4657450000000 1.0
C      1  0.5320860000000  0.5686500000000  0.5342550000000 1.0
C      1  0.4602210000000  0.5693740000000  0.5278730000000 1.0
C      1  0.5397790000000  0.4306260000000  0.4721270000000 1.0
C      1  0.5402370000000  0.4688370000000  0.4415280000000 1.0
C      1  0.4597630000000  0.5311630000000  0.5584720000000 1.0
C      1  0.4664120000000  0.4730540000000  0.4919240000000 1.0
C      1  0.5335880000000  0.5269460000000  0.5080760000000 1.0
C      1  0.5570600000000  0.5143300000000  0.4616580000000 1.0
C      1  0.4429400000000  0.4856700000000  0.5383420000000 1.0
C      1  0.5659090000000  0.4713170000000  0.4850910000000 1.0
C      1  0.4340910000000  0.5286830000000  0.5149090000000 1.0
C      1  0.4849380000000  0.5308520000000  0.5036960000000 1.0
C      1  0.5150620000000  0.4691480000000  0.4963040000000 1.0
C      1  0.5436680000000  0.5172860000000  0.5354950000000 1.0
C      1  0.4563320000000  0.4827140000000  0.4645050000000 1.0
C      1  0.5336230000000  0.5228370000000  0.5609880000000 1.0
C      1  0.4663770000000  0.4771630000000  0.4390120000000 1.0
C      1  0.4731830000000  0.4433740000000  0.4909480000000 1.0
C      1  0.5268170000000  0.5566260000000  0.5090520000000 1.0
C      1  0.4898320000000  0.4879690000000  0.5547490000000 1.0
C      1  0.5101680000000  0.5120310000000  0.4452510000000 1.0
C      1  0.4869620000000  0.5310980000000  0.4485730000000 1.0
C      1  0.5130380000000  0.4689020000000  0.5514270000000 1.0
C      1  0.4475400000000  0.5544590000000  0.5076740000000 1.0
C      1  0.5524600000000  0.4455410000000  0.4923260000000 1.0
C      1  0.4416390000000  0.4807930000000  0.5089290000000 1.0
C      1  0.5583610000000  0.5192070000000  0.4910710000000 1.0
C      1  0.5343870000000  0.5285830000000  0.4482410000000 1.0
C      1  0.4656130000000  0.4714170000000  0.5517590000000 1.0
C      1  0.4314700000000  0.5059380000000  0.4958080000000 1.0
C      1  0.5685300000000  0.4940620000000  0.5041920000000 1.0
C      1  0.4860840000000  0.5699190000000  0.4792230000000 1.0
C      1  0.5139160000000  0.4300810000000  0.5207770000000 1.0
C      1  0.5621640000000  0.4833340000000  0.4573280000000 1.0
C      1  0.4378360000000  0.5166660000000  0.5426720000000 1.0
C      1  0.5139470000000  0.4821030000000  0.4342490000000 1.0
C      1  0.4860530000000  0.5178970000000  0.5657510000000 1.0
C      1  0.5288300000000  0.5550340000000  0.4565880000000 1.0
C      1  0.4711700000000  0.4449660000000  0.5434120000000 1.0
C      1  0.5415530000000  0.4428250000000  0.5199020000000 1.0
C      1  0.4584470000000  0.5571750000000  0.4800980000000 1.0
C      1  0.5342220000000  0.4702000000000  0.5299630000000 1.0
C      1  0.4657780000000  0.5298000000000  0.4700370000000 1.0
C      1  0.5083900000000  0.5619200000000  0.5487440000000 1.0
C      1  0.4916100000000  0.4380800000000  0.4512560000000 1.0
C      1  0.5037190000000  0.4407120000000  0.4936050000000 1.0
C      1  0.4962810000000  0.5592880000000  0.5063950000000 1.0
C      1  0.5155350000000  0.4242150000000  0.4605870000000 1.0
C      1  0.4844650000000  0.5757850000000  0.5394130000000 1.0
C      1  0.4995410000000  0.4431530000000  0.5442290000000 1.0
C      1  0.5004590000000  0.5568470000000  0.4557710000000 1.0
C      1  0.4444250000000  0.5088830000000  0.4691280000000 1.0
C      1  0.5555750000000  0.4911170000000  0.5308720000000 1.0
C      1  0.4930310000000  0.4868690000000  0.5009610000000 1.0
C      1  0.5069690000000  0.5131310000000  0.4990390000000 1.0
C      1  0.5092770000000  0.5358270000000  0.5624860000000 1.0
C      1  0.4907230000000  0.4641730000000  0.4375140000000 1.0
END
