TITL C-38194-9318-63 1.1562476629526e-06 125000 -354.540681764584 0 0 60 (D3) n - 1
REM
REM in /home/bkarasulu/CARBON/AIRSS/Generating-Clusters/EDIP-Nigel-Params/Higher-Symm/Box-15A/Only-C60/SD-CG/FIRE-HFTN
REM
REM
REM
REM
REM
REM ./C.cell (414f73aa93bd7a1190c7fd0f31ff2f98)
REM
REM compiler GCC version 9.2.1 20190827 (Red Hat 9.2.1-1)
REM options -cpp -mtune=generic -march=x86-64 -g -O0 -fpre-include=/usr/include/finclude/math-vector-fortran.h
REM seed 977532734 1711030705 -1413261342 1514432410 -869532569 -1011071875 -2145418446 -130658871 727806604 -1951753896 50423586 -128696965 322702820 1457755960 -764508129 -1896026943 1878207356 -2115938397 -160990190 760381493 -1200067476 -1373526153 -1339626425 2098292255 1817422734 52375344 -2102418901 -414463496 1989431251 -2087490016 -1415354848 -2001507144 -468148905
REM
CELL 1.54180   50.00000   50.00000   50.00000   90.00000   90.00000   90.00000
LATT -1
SFAC C  
C      1  0.4700720000000  0.5118410000000  0.5193320000000 1.0
C      1  0.4700720000000  0.5108210000000  0.4800800000000 1.0
C      1  0.4700720000000  0.4773380000000  0.5005890000000 1.0
C      1  0.5299280000000  0.5118410000000  0.4806680000000 1.0
C      1  0.5299280000000  0.5108210000000  0.5199200000000 1.0
C      1  0.5299280000000  0.4773380000000  0.4994110000000 1.0
C      1  0.5196080000000  0.4084310000000  0.4700760000000 1.0
C      1  0.5196090000000  0.5198700000000  0.5942630000000 1.0
C      1  0.5196070000000  0.5716990000000  0.4356610000000 1.0
C      1  0.4803920000000  0.4084310000000  0.5299240000000 1.0
C      1  0.4803910000000  0.5198700000000  0.4057370000000 1.0
C      1  0.4803930000000  0.5716990000000  0.5643390000000 1.0
C      1  0.5131560000000  0.5173740000000  0.4565510000000 1.0
C      1  0.5131560000000  0.4536850000000  0.5066780000000 1.0
C      1  0.5131560000000  0.5289410000000  0.5367710000000 1.0
C      1  0.4868440000000  0.5173740000000  0.5434490000000 1.0
C      1  0.4868440000000  0.4536850000000  0.4933220000000 1.0
C      1  0.4868440000000  0.5289410000000  0.4632290000000 1.0
C      1  0.4655080000000  0.5874720000000  0.5471000000000 1.0
C      1  0.4655060000000  0.4970540000000  0.4006980000000 1.0
C      1  0.4655080000000  0.4154740000000  0.5522030000000 1.0
C      1  0.5344920000000  0.5874720000000  0.4529000000000 1.0
C      1  0.5344940000000  0.4970540000000  0.5993020000000 1.0
C      1  0.5344920000000  0.4154740000000  0.4477970000000 1.0
C      1  0.5496950000000  0.4849620000000  0.5799710000000 1.0
C      1  0.5496940000000  0.5767770000000  0.4730370000000 1.0
C      1  0.5496940000000  0.4382620000000  0.4469900000000 1.0
C      1  0.4503050000000  0.4849620000000  0.4200290000000 1.0
C      1  0.4503060000000  0.5767770000000  0.5269630000000 1.0
C      1  0.4503060000000  0.4382620000000  0.5530100000000 1.0
C      1  0.4855750000000  0.4979150000000  0.5650400000000 1.0
C      1  0.4855740000000  0.5573690000000  0.4692860000000 1.0
C      1  0.4855740000000  0.4447160000000  0.4656750000000 1.0
C      1  0.5144250000000  0.4979150000000  0.4349600000000 1.0
C      1  0.5144260000000  0.5573690000000  0.5307140000000 1.0
C      1  0.5144260000000  0.4447160000000  0.5343250000000 1.0
C      1  0.5506440000000  0.4652290000000  0.4523890000000 1.0
C      1  0.5506450000000  0.4761540000000  0.5539180000000 1.0
C      1  0.5506450000000  0.5586180000000  0.4936920000000 1.0
C      1  0.4493560000000  0.4652290000000  0.5476110000000 1.0
C      1  0.4493550000000  0.4761540000000  0.4460820000000 1.0
C      1  0.4493550000000  0.5586180000000  0.5063080000000 1.0
C      1  0.5367030000000  0.4530760000000  0.5482620000000 1.0
C      1  0.5367030000000  0.5652590000000  0.5165050000000 1.0
C      1  0.5367020000000  0.4816650000000  0.4352310000000 1.0
C      1  0.4632970000000  0.4530760000000  0.4517380000000 1.0
C      1  0.4632970000000  0.5652590000000  0.4834950000000 1.0
C      1  0.4632980000000  0.4816650000000  0.5647690000000 1.0
C      1  0.5488630000000  0.4724910000000  0.4790170000000 1.0
C      1  0.5488640000000  0.4955830000000  0.5343150000000 1.0
C      1  0.5488630000000  0.5319260000000  0.4866670000000 1.0
C      1  0.4511370000000  0.4724910000000  0.5209830000000 1.0
C      1  0.4511360000000  0.4955830000000  0.4656850000000 1.0
C      1  0.4511370000000  0.5319260000000  0.5133330000000 1.0
C      1  0.4978980000000  0.5030320000000  0.5902850000000 1.0
C      1  0.4978970000000  0.5766730000000  0.4522320000000 1.0
C      1  0.4978970000000  0.4202950000000  0.4574830000000 1.0
C      1  0.5021020000000  0.5030320000000  0.4097150000000 1.0
C      1  0.5021030000000  0.5766730000000  0.5477680000000 1.0
C      1  0.5021030000000  0.4202950000000  0.5425170000000 1.0
END
