TITL C-38186-4112-272 6.25890645709568e-06 125000 -367.691431219796 0 0 60 (C1) n - 1
REM
REM in /home/bkarasulu/CARBON/AIRSS/Generating-Clusters/EDIP-Nigel-Params/Higher-Symm/Box-15A/Only-C60/SD-CG/FIRE-HFTN
REM
REM
REM
REM
REM
REM ./C.cell (414f73aa93bd7a1190c7fd0f31ff2f98)
REM
REM compiler GCC version 9.2.1 20190827 (Red Hat 9.2.1-1)
REM options -cpp -mtune=generic -march=x86-64 -g -O0 -fpre-include=/usr/include/finclude/math-vector-fortran.h
REM seed -326583657 127129857 -2117836395 2086544187 357240638 868620413 1534370415 -677631480 -1788526955 718103083 885880434 1603250188 1673111931 1980945988 -2000521862 493594369 -1787963782 -1582077731 -1605248625 -829535903 -1651835891 -1752161612 16879497 -510563910 -589325270 2052119625 1021989330 1900786060 -100532407 1766677200 721100262 -1368626928 -951849605
REM
CELL 1.54180   50.00000   50.00000   50.00000   90.00000   90.00000   90.00000
LATT -1
SFAC C  
C      1  0.4439740000000  0.4857750000000  0.5435400000000 1.0
C      1  0.5590970000000  0.5132700000000  0.5446860000000 1.0
C      1  0.5605070000000  0.4841390000000  0.5450100000000 1.0
C      1  0.4443600000000  0.5147470000000  0.5427700000000 1.0
C      1  0.4792010000000  0.4294400000000  0.5098510000000 1.0
C      1  0.5168300000000  0.5659710000000  0.5126370000000 1.0
C      1  0.5178390000000  0.4318400000000  0.5123130000000 1.0
C      1  0.4786120000000  0.5709880000000  0.5087530000000 1.0
C      1  0.5248930000000  0.5360890000000  0.4738300000000 1.0
C      1  0.4744940000000  0.4648730000000  0.4766590000000 1.0
C      1  0.4742690000000  0.5353740000000  0.4762690000000 1.0
C      1  0.5256080000000  0.4649370000000  0.4770380000000 1.0
C      1  0.4849750000000  0.4374670000000  0.4830810000000 1.0
C      1  0.5146300000000  0.5627730000000  0.4841030000000 1.0
C      1  0.5146680000000  0.4378730000000  0.4845510000000 1.0
C      1  0.4847800000000  0.5632300000000  0.4819720000000 1.0
C      1  0.5608160000000  0.4845660000000  0.4940440000000 1.0
C      1  0.4394240000000  0.5145290000000  0.4933840000000 1.0
C      1  0.4397130000000  0.4852750000000  0.4936750000000 1.0
C      1  0.5620130000000  0.5143000000000  0.4952350000000 1.0
C      1  0.5143060000000  0.4710210000000  0.4503640000000 1.0
C      1  0.4852580000000  0.5282330000000  0.4493330000000 1.0
C      1  0.4858470000000  0.4713860000000  0.4502550000000 1.0
C      1  0.5135370000000  0.5324390000000  0.4469350000000 1.0
C      1  0.5171750000000  0.4850120000000  0.5005780000000 1.0
C      1  0.4860900000000  0.5174020000000  0.5006860000000 1.0
C      1  0.4836370000000  0.4846980000000  0.5012440000000 1.0
C      1  0.5149250000000  0.5151960000000  0.4932840000000 1.0
C      1  0.4377630000000  0.5286740000000  0.4686120000000 1.0
C      1  0.5621790000000  0.4709870000000  0.4686900000000 1.0
C      1  0.5544770000000  0.5299700000000  0.4708110000000 1.0
C      1  0.4379590000000  0.4711890000000  0.4687310000000 1.0
C      1  0.5357450000000  0.5502700000000  0.5277710000000 1.0
C      1  0.4603770000000  0.4448380000000  0.5255660000000 1.0
C      1  0.4599570000000  0.5553550000000  0.5242680000000 1.0
C      1  0.5369720000000  0.4471250000000  0.5274270000000 1.0
C      1  0.4707010000000  0.4495650000000  0.5519990000000 1.0
C      1  0.5321710000000  0.5485370000000  0.5561770000000 1.0
C      1  0.5311380000000  0.4511510000000  0.5548440000000 1.0
C      1  0.4694990000000  0.5519060000000  0.5512190000000 1.0
C      1  0.5150700000000  0.5156780000000  0.5460740000000 1.0
C      1  0.4863750000000  0.4793970000000  0.5336300000000 1.0
C      1  0.4869520000000  0.5221910000000  0.5347360000000 1.0
C      1  0.5167450000000  0.4847400000000  0.5390520000000 1.0
C      1  0.5492090000000  0.5249640000000  0.5198940000000 1.0
C      1  0.4455000000000  0.4706240000000  0.5186040000000 1.0
C      1  0.4467330000000  0.5289660000000  0.5175700000000 1.0
C      1  0.5538650000000  0.4706630000000  0.5195680000000 1.0
C      1  0.4442950000000  0.4850880000000  0.4435760000000 1.0
C      1  0.5543160000000  0.5152050000000  0.4441320000000 1.0
C      1  0.5557100000000  0.4852060000000  0.4438320000000 1.0
C      1  0.4434990000000  0.5149930000000  0.4433220000000 1.0
C      1  0.4607750000000  0.5274430000000  0.5623980000000 1.0
C      1  0.5448510000000  0.4725230000000  0.5658030000000 1.0
C      1  0.5454930000000  0.5258230000000  0.5669870000000 1.0
C      1  0.4616600000000  0.4740270000000  0.5627660000000 1.0
C      1  0.5325030000000  0.5244400000000  0.4277350000000 1.0
C      1  0.4671370000000  0.4749580000000  0.4294870000000 1.0
C      1  0.4657950000000  0.5260600000000  0.4289930000000 1.0
C      1  0.5331030000000  0.4746040000000  0.4296430000000 1.0
END
