TITL C-38191-7580-529 -4.41665812149945e-06 125000 -359.62390864685 0 0 60 (C1) n - 1
REM
REM in /home/bkarasulu/CARBON/AIRSS/Generating-Clusters/EDIP-Nigel-Params/Higher-Symm/Box-15A/Only-C60/SD-CG/FIRE-HFTN
REM
REM
REM
REM
REM
REM ./C.cell (414f73aa93bd7a1190c7fd0f31ff2f98)
REM
REM compiler GCC version 9.2.1 20190827 (Red Hat 9.2.1-1)
REM options -cpp -mtune=generic -march=x86-64 -g -O0 -fpre-include=/usr/include/finclude/math-vector-fortran.h
REM seed -566716185 -1782668926 1757953692 604428124 -111602399 -1982292248 -348393665 -1585692626 415594226 1217142036 178511185 -235993989 1815462457 -1232130656 -1793645794 2105302316 -1727473827 -1085392297 -896666960 -925939420 -1129102548 2144319802 -517906076 -1824441257 1710480003 1735730868 -2130930385 -1508952338 -1751713311 1140366365 2075493844 471841026 1885980318
REM
CELL 1.54180   50.00000   50.00000   50.00000   90.00000   90.00000   90.00000
LATT -1
SFAC C  
C      1  0.4857240000000  0.4202280000000  0.5090040000000 1.0
C      1  0.4862220000000  0.5478010000000  0.5647080000000 1.0
C      1  0.4856770000000  0.5318580000000  0.4264850000000 1.0
C      1  0.5141700000000  0.4205410000000  0.5090600000000 1.0
C      1  0.5146600000000  0.5476810000000  0.5646910000000 1.0
C      1  0.5141420000000  0.5319500000000  0.4263150000000 1.0
C      1  0.4849260000000  0.4854260000000  0.4811240000000 1.0
C      1  0.4840020000000  0.4919350000000  0.5147100000000 1.0
C      1  0.4833710000000  0.5212230000000  0.4981670000000 1.0
C      1  0.5160430000000  0.4915200000000  0.4849450000000 1.0
C      1  0.5150620000000  0.4912450000000  0.5222190000000 1.0
C      1  0.5152060000000  0.5216670000000  0.4973870000000 1.0
C      1  0.5635490000000  0.4728060000000  0.5091590000000 1.0
C      1  0.5635270000000  0.5215820000000  0.5188310000000 1.0
C      1  0.5636980000000  0.5055550000000  0.4717400000000 1.0
C      1  0.4363950000000  0.4727600000000  0.5093280000000 1.0
C      1  0.4364770000000  0.5214180000000  0.5192510000000 1.0
C      1  0.4365050000000  0.5055960000000  0.4720300000000 1.0
C      1  0.5147770000000  0.4539500000000  0.5578860000000 1.0
C      1  0.5149850000000  0.5726310000000  0.5109170000000 1.0
C      1  0.5147880000000  0.4730270000000  0.4313840000000 1.0
C      1  0.4851280000000  0.4543210000000  0.5573540000000 1.0
C      1  0.4853530000000  0.5726680000000  0.5110390000000 1.0
C      1  0.4851300000000  0.4728540000000  0.4311730000000 1.0
C      1  0.4319530000000  0.4799180000000  0.4824540000000 1.0
C      1  0.4320660000000  0.4945600000000  0.5265120000000 1.0
C      1  0.4323010000000  0.5253150000000  0.4917300000000 1.0
C      1  0.5680410000000  0.4798550000000  0.4822360000000 1.0
C      1  0.5679910000000  0.4947490000000  0.5261170000000 1.0
C      1  0.5678560000000  0.5253700000000  0.4913300000000 1.0
C      1  0.4701690000000  0.5362140000000  0.4508310000000 1.0
C      1  0.4701990000000  0.4391090000000  0.4930470000000 1.0
C      1  0.4702250000000  0.5246180000000  0.5567390000000 1.0
C      1  0.5299590000000  0.5362450000000  0.4504910000000 1.0
C      1  0.5297940000000  0.4393590000000  0.4930060000000 1.0
C      1  0.5298900000000  0.5242970000000  0.5561750000000 1.0
C      1  0.5154380000000  0.4982830000000  0.5527670000000 1.0
C      1  0.5160930000000  0.5458120000000  0.4752740000000 1.0
C      1  0.5158520000000  0.4551650000000  0.4719520000000 1.0
C      1  0.4840760000000  0.4984310000000  0.5529890000000 1.0
C      1  0.4841510000000  0.5460250000000  0.4753520000000 1.0
C      1  0.4844560000000  0.4552750000000  0.4721950000000 1.0
C      1  0.4697800000000  0.4403010000000  0.5372360000000 1.0
C      1  0.4700320000000  0.5622200000000  0.5333330000000 1.0
C      1  0.4697230000000  0.4973580000000  0.4297370000000 1.0
C      1  0.5301810000000  0.4406360000000  0.5372340000000 1.0
C      1  0.5303450000000  0.5619250000000  0.5329720000000 1.0
C      1  0.5301830000000  0.4974610000000  0.4292310000000 1.0
C      1  0.4732040000000  0.5709220000000  0.4857450000000 1.0
C      1  0.4731660000000  0.4518550000000  0.4455510000000 1.0
C      1  0.4728970000000  0.4769480000000  0.5686920000000 1.0
C      1  0.5271530000000  0.5706230000000  0.4856860000000 1.0
C      1  0.5269740000000  0.4519630000000  0.4454690000000 1.0
C      1  0.5267370000000  0.4768550000000  0.5689840000000 1.0
C      1  0.5401510000000  0.5342270000000  0.5310120000000 1.0
C      1  0.5408260000000  0.5096980000000  0.4538590000000 1.0
C      1  0.5399590000000  0.4562460000000  0.5142060000000 1.0
C      1  0.4593120000000  0.5348000000000  0.5319490000000 1.0
C      1  0.4598110000000  0.5095150000000  0.4547310000000 1.0
C      1  0.4595430000000  0.4556050000000  0.5142710000000 1.0
END
