TITL C-38193-7935-663 0.0194380547180833 125000 -358.173106227599 0 0 60 (Cs) n - 1
REM
REM in /home/bkarasulu/CARBON/AIRSS/Generating-Clusters/EDIP-Nigel-Params/Higher-Symm/Box-15A/Only-C60/SD-CG/FIRE-HFTN
REM
REM
REM
REM
REM
REM ./C.cell (414f73aa93bd7a1190c7fd0f31ff2f98)
REM
REM compiler GCC version 9.2.1 20190827 (Red Hat 9.2.1-1)
REM options -cpp -mtune=generic -march=x86-64 -g -O0 -fpre-include=/usr/include/finclude/math-vector-fortran.h
REM seed -259795366 603537816 1178293922 1482814157 -2127977613 1553638615 -1321636482 1188294052 1394527673 1419935208 637573282 1795165899 -1975432352 158678604 -486044455 1809468639 -1240217355 1375323781 -1152491389 -21244904 2101634294 1690349116 2105636370 1385088123 140795296 354310201 624281526 1613913175 524919306 769681108 -1910447535 -1277809534 664954190
REM
CELL 1.54180   50.00000   50.00000   50.00000   90.00000   90.00000   90.00000
LATT -1
SFAC C  
C      1  0.4958720000000  0.5604500000000  0.5516740000000 1.0
C      1  0.4958720000000  0.4395500000000  0.5516740000000 1.0
C      1  0.4592800000000  0.5555320000000  0.4853550000000 1.0
C      1  0.4592800000000  0.4444680000000  0.4853550000000 1.0
C      1  0.5684410000000  0.5301910000000  0.5060290000000 1.0
C      1  0.5684410000000  0.4698090000000  0.5060290000000 1.0
C      1  0.5556110000000  0.4841320000000  0.5291650000000 1.0
C      1  0.5556110000000  0.5158680000000  0.5291650000000 1.0
C      1  0.5093550000000  0.5572690000000  0.4948450000000 1.0
C      1  0.5093550000000  0.4427310000000  0.4948450000000 1.0
C      1  0.4915010000000  0.5141160000000  0.5197350000000 1.0
C      1  0.4915010000000  0.4858840000000  0.5197350000000 1.0
C      1  0.4419280000000  0.5155150000000  0.4540030000000 1.0
C      1  0.4419280000000  0.4844850000000  0.4540030000000 1.0
C      1  0.5510160000000  0.5712890000000  0.5033630000000 1.0
C      1  0.5510160000000  0.4287110000000  0.5033630000000 1.0
C      1  0.4342560000000  0.5186180000000  0.5101420000000 1.0
C      1  0.4342560000000  0.4813820000000  0.5101420000000 1.0
C      1  0.5654120000000  0.4623050000000  0.4778190000000 1.0
C      1  0.5654120000000  0.5376950000000  0.4778190000000 1.0
C      1  0.5239610000000  0.5136140000000  0.4378750000000 1.0
C      1  0.5239610000000  0.4863860000000  0.4378750000000 1.0
C      1  0.4900640000000  0.5158730000000  0.4722970000000 1.0
C      1  0.4900640000000  0.4841270000000  0.4722970000000 1.0
C      1  0.4769980000000  0.4707530000000  0.5399530000000 1.0
C      1  0.4769980000000  0.5292470000000  0.5399530000000 1.0
C      1  0.4807160000000  0.4722230000000  0.4275270000000 1.0
C      1  0.4807160000000  0.5277770000000  0.4275270000000 1.0
C      1  0.5263010000000  0.4303380000000  0.5168500000000 1.0
C      1  0.5263010000000  0.5696620000000  0.5168500000000 1.0
C      1  0.4811810000000  0.5666130000000  0.5025060000000 1.0
C      1  0.4811810000000  0.4333870000000  0.5025060000000 1.0
C      1  0.4553830000000  0.4841710000000  0.4261440000000 1.0
C      1  0.4553830000000  0.5158290000000  0.4261440000000 1.0
C      1  0.5063050000000  0.5262090000000  0.4966690000000 1.0
C      1  0.5063050000000  0.4737910000000  0.4966690000000 1.0
C      1  0.5447660000000  0.5583950000000  0.4786850000000 1.0
C      1  0.5447660000000  0.4416050000000  0.4786850000000 1.0
C      1  0.5607730000000  0.4861990000000  0.4630050000000 1.0
C      1  0.5607730000000  0.5138010000000  0.4630050000000 1.0
C      1  0.5008040000000  0.5266050000000  0.4464980000000 1.0
C      1  0.5008040000000  0.4733950000000  0.4464980000000 1.0
C      1  0.5339460000000  0.4855150000000  0.4963610000000 1.0
C      1  0.5339460000000  0.5144850000000  0.4963610000000 1.0
C      1  0.4289650000000  0.5151260000000  0.5386850000000 1.0
C      1  0.4289650000000  0.4848740000000  0.5386850000000 1.0
C      1  0.5288060000000  0.5134570000000  0.5693640000000 1.0
C      1  0.5288060000000  0.4865430000000  0.5693640000000 1.0
C      1  0.5232380000000  0.4442540000000  0.5428890000000 1.0
C      1  0.5232380000000  0.5557460000000  0.5428890000000 1.0
C      1  0.4758500000000  0.5667460000000  0.5315180000000 1.0
C      1  0.4758500000000  0.4332540000000  0.5315180000000 1.0
C      1  0.4369750000000  0.5454280000000  0.5006750000000 1.0
C      1  0.4369750000000  0.4545720000000  0.5006750000000 1.0
C      1  0.5371890000000  0.4702870000000  0.5483770000000 1.0
C      1  0.5371890000000  0.5297130000000  0.5483770000000 1.0
C      1  0.4548570000000  0.5161940000000  0.5557500000000 1.0
C      1  0.4548570000000  0.4838060000000  0.5557500000000 1.0
C      1  0.4602550000000  0.4746670000000  0.4762410000000 1.0
C      1  0.4602550000000  0.5253330000000  0.4762410000000 1.0
END
