TITL C-38187-2739-433 5.05724974174923e-06 125000 -366.172789540453 0 0 60 (C2) n - 1
REM
REM in /home/bkarasulu/CARBON/AIRSS/Generating-Clusters/EDIP-Nigel-Params/Higher-Symm/Box-15A/Only-C60/SD-CG/FIRE-HFTN
REM
REM
REM
REM
REM
REM ./C.cell (414f73aa93bd7a1190c7fd0f31ff2f98)
REM
REM compiler GCC version 9.2.1 20190827 (Red Hat 9.2.1-1)
REM options -cpp -mtune=generic -march=x86-64 -g -O0 -fpre-include=/usr/include/finclude/math-vector-fortran.h
REM seed -1949488809 1984647673 491775221 -1316410898 -686004442 1301300173 1091259956 1444926391 1396607821 -1757578154 -470185120 111775783 1827193909 134223228 655306100 426193156 1198582834 -1112539164 -1153766888 1064315301 -86645884 -1057183048 -1232588392 687359545 -1194308114 -452176267 828019725 384821946 431877624 -2052890435 1188827975 -1478646192 -1726259686
REM
CELL 1.54180   50.00000   50.00000   50.00000   90.00000   90.00000   90.00000
LATT -1
SFAC C  
C      1  0.5311350000000  0.5032740000000  0.5403330000000 1.0
C      1  0.5335380000000  0.5368750000000  0.4732660000000 1.0
C      1  0.5405050000000  0.4590030000000  0.4946790000000 1.0
C      1  0.4688650000000  0.5032740000000  0.4596670000000 1.0
C      1  0.4664620000000  0.5368750000000  0.5267340000000 1.0
C      1  0.4594950000000  0.4590030000000  0.5053210000000 1.0
C      1  0.5124340000000  0.4303450000000  0.5233820000000 1.0
C      1  0.5237240000000  0.5521120000000  0.5496880000000 1.0
C      1  0.5122470000000  0.5236720000000  0.4257640000000 1.0
C      1  0.4875660000000  0.4303450000000  0.4766180000000 1.0
C      1  0.4762760000000  0.5521120000000  0.4503120000000 1.0
C      1  0.4877530000000  0.5236720000000  0.5742360000000 1.0
C      1  0.5161230000000  0.4986790000000  0.4404830000000 1.0
C      1  0.5091780000000  0.4571720000000  0.5355720000000 1.0
C      1  0.5174680000000  0.5495530000000  0.5207330000000 1.0
C      1  0.4838770000000  0.4986790000000  0.5595170000000 1.0
C      1  0.4908220000000  0.4571720000000  0.4644280000000 1.0
C      1  0.4825320000000  0.5495530000000  0.4792670000000 1.0
C      1  0.5054320000000  0.4544470000000  0.4400220000000 1.0
C      1  0.4924560000000  0.4762570000000  0.5753400000000 1.0
C      1  0.4919830000000  0.5745790000000  0.4893670000000 1.0
C      1  0.4945680000000  0.4544470000000  0.5599780000000 1.0
C      1  0.5075440000000  0.4762570000000  0.4246600000000 1.0
C      1  0.5080170000000  0.5745790000000  0.5106330000000 1.0
C      1  0.5303720000000  0.5258490000000  0.5623900000000 1.0
C      1  0.5195420000000  0.5467350000000  0.4427490000000 1.0
C      1  0.5265790000000  0.4318740000000  0.4976720000000 1.0
C      1  0.4696280000000  0.5258490000000  0.4376100000000 1.0
C      1  0.4804580000000  0.5467350000000  0.5572510000000 1.0
C      1  0.4734210000000  0.4318740000000  0.5023280000000 1.0
C      1  0.4593850000000  0.5404140000000  0.4958080000000 1.0
C      1  0.4648940000000  0.4718820000000  0.4582520000000 1.0
C      1  0.4555880000000  0.4961010000000  0.5549090000000 1.0
C      1  0.5406150000000  0.5404140000000  0.5041920000000 1.0
C      1  0.5351060000000  0.4718820000000  0.5417480000000 1.0
C      1  0.5444120000000  0.4961010000000  0.4450910000000 1.0
C      1  0.5601470000000  0.4898160000000  0.4805810000000 1.0
C      1  0.5776300000000  0.4784170000000  0.5221430000000 1.0
C      1  0.5704530000000  0.5001280000000  0.5058250000000 1.0
C      1  0.4398530000000  0.4898160000000  0.5194190000000 1.0
C      1  0.4223700000000  0.4784170000000  0.4778570000000 1.0
C      1  0.4295470000000  0.5001280000000  0.4941750000000 1.0
C      1  0.4952140000000  0.5272730000000  0.5180120000000 1.0
C      1  0.4993650000000  0.5013970000000  0.4677280000000 1.0
C      1  0.4932910000000  0.4754130000000  0.5142090000000 1.0
C      1  0.5047860000000  0.5272730000000  0.4819880000000 1.0
C      1  0.5006350000000  0.5013970000000  0.5322720000000 1.0
C      1  0.5067090000000  0.4754130000000  0.4857910000000 1.0
C      1  0.4457910000000  0.4623680000000  0.4781140000000 1.0
C      1  0.4478740000000  0.5139900000000  0.5349090000000 1.0
C      1  0.4514900000000  0.5155210000000  0.4823220000000 1.0
C      1  0.5542090000000  0.4623680000000  0.5218860000000 1.0
C      1  0.5521260000000  0.5139900000000  0.4650910000000 1.0
C      1  0.5485100000000  0.5155210000000  0.5176780000000 1.0
C      1  0.5127380000000  0.4175130000000  0.4774820000000 1.0
C      1  0.5138160000000  0.5237370000000  0.5853110000000 1.0
C      1  0.4986580000000  0.5656050000000  0.4388660000000 1.0
C      1  0.4872620000000  0.4175130000000  0.5225180000000 1.0
C      1  0.4861840000000  0.5237370000000  0.4146890000000 1.0
C      1  0.5013420000000  0.5656050000000  0.5611340000000 1.0
END
