TITL C-38189-4514-556 76.2641014611948 125000 -345.352243422476 0 0 60 (C1) n - 1
REM
REM in /home/bkarasulu/CARBON/AIRSS/Generating-Clusters/EDIP-Nigel-Params/Higher-Symm/Box-15A/Only-C60/SD-CG/FIRE-HFTN
REM
REM
REM
REM
REM
REM ./C.cell (414f73aa93bd7a1190c7fd0f31ff2f98)
REM
REM compiler GCC version 9.2.1 20190827 (Red Hat 9.2.1-1)
REM options -cpp -mtune=generic -march=x86-64 -g -O0 -fpre-include=/usr/include/finclude/math-vector-fortran.h
REM seed 1155709027 -1344604516 1282024864 1565422138 924319590 679297160 -270453964 -204700151 2084387585 -1319730380 1650311348 17160765 387532079 663453208 -1479265331 1896405006 -1507075404 -1931732448 -1161879653 21827309 1626263030 1043213487 544602723 1624956918 -845132118 -1913833969 -1907108329 1579474132 2102576105 -847574609 -251862948 1794321396 -1660766353
REM
CELL 1.54180   50.00000   50.00000   50.00000   90.00000   90.00000   90.00000
LATT -1
SFAC C  
C      1  0.5380730000000  0.4883420000000  0.4653190000000 1.0
C      1  0.5596050000000  0.4970140000000  0.4819820000000 1.0
C      1  0.5084520000000  0.4248500000000  0.5054740000000 1.0
C      1  0.5227730000000  0.4602950000000  0.5143780000000 1.0
C      1  0.4834400000000  0.5116710000000  0.4726280000000 1.0
C      1  0.5817400000000  0.5344420000000  0.5064720000000 1.0
C      1  0.6182040000000  0.4707130000000  0.5197650000000 1.0
C      1  0.4371980000000  0.5472150000000  0.4291710000000 1.0
C      1  0.4209660000000  0.5074750000000  0.6365470000000 1.0
C      1  0.5775740000000  0.4528450000000  0.4853850000000 1.0
C      1  0.6353870000000  0.4507650000000  0.5275700000000 1.0
C      1  0.5030320000000  0.5099580000000  0.5922090000000 1.0
C      1  0.4393970000000  0.4686280000000  0.5213120000000 1.0
C      1  0.4417560000000  0.4969350000000  0.4423600000000 1.0
C      1  0.4631440000000  0.4374620000000  0.4910100000000 1.0
C      1  0.4396060000000  0.4850110000000  0.5720910000000 1.0
C      1  0.5063250000000  0.5052770000000  0.5223080000000 1.0
C      1  0.5296570000000  0.4617120000000  0.4648260000000 1.0
C      1  0.4361900000000  0.4737190000000  0.5482380000000 1.0
C      1  0.5170330000000  0.5291830000000  0.5179530000000 1.0
C      1  0.4508140000000  0.4970280000000  0.5940500000000 1.0
C      1  0.4636090000000  0.4917520000000  0.4846590000000 1.0
C      1  0.4161410000000  0.6070680000000  0.3953060000000 1.0
C      1  0.4559260000000  0.4789520000000  0.4591700000000 1.0
C      1  0.5248800000000  0.4311860000000  0.5510130000000 1.0
C      1  0.5988850000000  0.4875410000000  0.5099730000000 1.0
C      1  0.4533770000000  0.5692000000000  0.4381580000000 1.0
C      1  0.4774140000000  0.5036090000000  0.5940530000000 1.0
C      1  0.4851690000000  0.4691170000000  0.5463100000000 1.0
C      1  0.3781870000000  0.5456230000000  0.3841960000000 1.0
C      1  0.5621280000000  0.5467980000000  0.5247140000000 1.0
C      1  0.4678360000000  0.5335420000000  0.4600560000000 1.0
C      1  0.4003620000000  0.5865880000000  0.3889470000000 1.0
C      1  0.6630950000000  0.4559400000000  0.5305780000000 1.0
C      1  0.4354060000000  0.5024210000000  0.6160170000000 1.0
C      1  0.5610020000000  0.5364490000000  0.5506100000000 1.0
C      1  0.4669990000000  0.4723510000000  0.5078590000000 1.0
C      1  0.4463610000000  0.5244290000000  0.4437250000000 1.0
C      1  0.5382460000000  0.5435470000000  0.5080590000000 1.0
C      1  0.4791930000000  0.4435880000000  0.5560520000000 1.0
C      1  0.5980140000000  0.5141930000000  0.5171060000000 1.0
C      1  0.5021040000000  0.4565180000000  0.4670140000000 1.0
C      1  0.5628520000000  0.5252850000000  0.4859060000000 1.0
C      1  0.4370900000000  0.6099790000000  0.4114320000000 1.0
C      1  0.5792870000000  0.4784940000000  0.4914490000000 1.0
C      1  0.4153410000000  0.5484280000000  0.4125070000000 1.0
C      1  0.6483260000000  0.4518990000000  0.5527660000000 1.0
C      1  0.5290940000000  0.4336220000000  0.5235110000000 1.0
C      1  0.4511990000000  0.5945900000000  0.4278830000000 1.0
C      1  0.4914330000000  0.4412910000000  0.4893130000000 1.0
C      1  0.3975920000000  0.5599190000000  0.3949800000000 1.0
C      1  0.4434430000000  0.4419930000000  0.5109150000000 1.0
C      1  0.4735770000000  0.5610840000000  0.4562920000000 1.0
C      1  0.5183290000000  0.5069990000000  0.4570950000000 1.0
C      1  0.4843440000000  0.4733320000000  0.4499290000000 1.0
C      1  0.5047160000000  0.4421850000000  0.5661580000000 1.0
C      1  0.5053220000000  0.4784010000000  0.5281690000000 1.0
C      1  0.5273640000000  0.5176730000000  0.5853800000000 1.0
C      1  0.4979420000000  0.4970960000000  0.4400310000000 1.0
C      1  0.5480490000000  0.5267770000000  0.5716620000000 1.0
END
