TITL C-38194-9318-361 -4.87949447015113e-05 125000 -356.746105887008 0 0 60 (C3h) n - 1
REM
REM in /home/bkarasulu/CARBON/AIRSS/Generating-Clusters/EDIP-Nigel-Params/Higher-Symm/Box-15A/Only-C60/SD-CG/FIRE-HFTN
REM
REM
REM
REM
REM
REM ./C.cell (414f73aa93bd7a1190c7fd0f31ff2f98)
REM
REM compiler GCC version 9.2.1 20190827 (Red Hat 9.2.1-1)
REM options -cpp -mtune=generic -march=x86-64 -g -O0 -fpre-include=/usr/include/finclude/math-vector-fortran.h
REM seed 334663503 1583905050 -1460983950 1080174929 -989785933 -74378373 -1672872713 -21708910 225612183 -656303258 -727263184 216572499 -359228246 -746832721 -917772063 754237094 2047786979 -1747974607 640465794 1858769980 -1874193919 1260046349 1256191125 290442914 -1488561173 1538337184 -953486298 -398116548 1854878365 1852810315 233975182 2050321973 863139667
REM
CELL 1.54180   50.00000   50.00000   50.00000   90.00000   90.00000   90.00000
LATT -1
SFAC C  
C      1  0.5335440000000  0.4119100000000  0.4431260000000 1.0
C      1  0.5324820000000  0.4119100000000  0.5574870000000 1.0
C      1  0.4339740000000  0.4119100000000  0.4993870000000 1.0
C      1  0.5335440000000  0.5880900000000  0.4431260000000 1.0
C      1  0.5324820000000  0.5880900000000  0.5574870000000 1.0
C      1  0.4339740000000  0.5880900000000  0.4993870000000 1.0
C      1  0.4379140000000  0.5579930000000  0.4968060000000 1.0
C      1  0.5338100000000  0.5579930000000  0.4478290000000 1.0
C      1  0.5282770000000  0.5579930000000  0.5553650000000 1.0
C      1  0.4379140000000  0.4420070000000  0.4968060000000 1.0
C      1  0.5338100000000  0.4420070000000  0.4478290000000 1.0
C      1  0.5282770000000  0.4420070000000  0.5553650000000 1.0
C      1  0.5532450000000  0.3982250000000  0.4580090000000 1.0
C      1  0.5097420000000  0.3982250000000  0.5671070000000 1.0
C      1  0.4370120000000  0.3982250000000  0.4748830000000 1.0
C      1  0.5532450000000  0.6017750000000  0.4580090000000 1.0
C      1  0.5097420000000  0.6017750000000  0.5671070000000 1.0
C      1  0.4370120000000  0.6017750000000  0.4748830000000 1.0
C      1  0.5030360000000  0.5150020000000  0.5593380000000 1.0
C      1  0.4470940000000  0.5150020000000  0.4729610000000 1.0
C      1  0.5498700000000  0.5150020000000  0.4677010000000 1.0
C      1  0.5030360000000  0.4849980000000  0.5593380000000 1.0
C      1  0.4470940000000  0.4849980000000  0.4729610000000 1.0
C      1  0.5498700000000  0.4849980000000  0.4677010000000 1.0
C      1  0.4651480000000  0.4724720000000  0.4255120000000 1.0
C      1  0.5819350000000  0.4724720000000  0.5070610000000 1.0
C      1  0.4529170000000  0.4724720000000  0.5674270000000 1.0
C      1  0.4651480000000  0.5275280000000  0.4255120000000 1.0
C      1  0.5819350000000  0.5275280000000  0.5070610000000 1.0
C      1  0.4529170000000  0.5275280000000  0.5674270000000 1.0
C      1  0.5703280000000  0.4725330000000  0.5311690000000 1.0
C      1  0.4378430000000  0.4725330000000  0.5453210000000 1.0
C      1  0.4918290000000  0.4725330000000  0.4235100000000 1.0
C      1  0.5703280000000  0.5274670000000  0.5311690000000 1.0
C      1  0.4378430000000  0.5274670000000  0.5453210000000 1.0
C      1  0.4918290000000  0.5274670000000  0.4235100000000 1.0
C      1  0.5274730000000  0.5292040000000  0.5542910000000 1.0
C      1  0.4392460000000  0.5292040000000  0.4966470000000 1.0
C      1  0.5332810000000  0.5292040000000  0.4490620000000 1.0
C      1  0.5274730000000  0.4707960000000  0.5542910000000 1.0
C      1  0.4392460000000  0.4707960000000  0.4966470000000 1.0
C      1  0.5332810000000  0.4707960000000  0.4490620000000 1.0
C      1  0.5777380000000  0.5158560000000  0.4820860000000 1.0
C      1  0.4766450000000  0.5158560000000  0.5762800000000 1.0
C      1  0.4456170000000  0.5158560000000  0.4416340000000 1.0
C      1  0.5777380000000  0.4841440000000  0.4820860000000 1.0
C      1  0.4766450000000  0.4841440000000  0.5762800000000 1.0
C      1  0.4456170000000  0.4841440000000  0.4416340000000 1.0
C      1  0.4404540000000  0.5738820000000  0.4716560000000 1.0
C      1  0.5543190000000  0.5738820000000  0.4626040000000 1.0
C      1  0.5052270000000  0.5738820000000  0.5657400000000 1.0
C      1  0.4404540000000  0.4261180000000  0.4716560000000 1.0
C      1  0.5543190000000  0.4261180000000  0.4626040000000 1.0
C      1  0.5052270000000  0.4261180000000  0.5657400000000 1.0
C      1  0.5491700000000  0.4856530000000  0.5430690000000 1.0
C      1  0.4381160000000  0.4856530000000  0.5210480000000 1.0
C      1  0.5127140000000  0.4856530000000  0.4358830000000 1.0
C      1  0.5491700000000  0.5143470000000  0.5430690000000 1.0
C      1  0.4381160000000  0.5143470000000  0.5210480000000 1.0
C      1  0.5127140000000  0.5143470000000  0.4358830000000 1.0
END
