TITL C-38197-8510-658 3.38349951308503 125000 -356.441331971261 0 0 60 (C1) n - 1
REM
REM in /home/bkarasulu/CARBON/AIRSS/Generating-Clusters/EDIP-Nigel-Params/Higher-Symm/Box-15A/Only-C60/SD-CG/FIRE-HFTN
REM
REM
REM
REM
REM
REM ./C.cell (414f73aa93bd7a1190c7fd0f31ff2f98)
REM
REM compiler GCC version 9.2.1 20190827 (Red Hat 9.2.1-1)
REM options -cpp -mtune=generic -march=x86-64 -g -O0 -fpre-include=/usr/include/finclude/math-vector-fortran.h
REM seed 754281758 -881726940 -1656042396 -109958238 1106431428 1604678743 -1349706584 -519466121 1991674867 1477818686 -810750802 669576902 2023028691 138835227 -2110765379 -725061030 -1242404194 1060044064 -1088135078 1479091410 -2019561521 -1628138179 559582460 -150276607 1452132182 1080259967 -2041613853 1603077549 550451508 534020425 173416651 1597998259 1130979480
REM
CELL 1.54180   50.00000   50.00000   50.00000   90.00000   90.00000   90.00000
LATT -1
SFAC C  
C      1  0.5437620000000  0.5002410000000  0.4247320000000 1.0
C      1  0.5490950000000  0.4306480000000  0.5341800000000 1.0
C      1  0.5547790000000  0.5052520000000  0.5586030000000 1.0
C      1  0.4585390000000  0.5569480000000  0.4752730000000 1.0
C      1  0.5170940000000  0.5059400000000  0.4197800000000 1.0
C      1  0.4545060000000  0.4956860000000  0.4385490000000 1.0
C      1  0.5299030000000  0.4151390000000  0.5214650000000 1.0
C      1  0.5359090000000  0.4276490000000  0.4524590000000 1.0
C      1  0.5218430000000  0.5523980000000  0.5033190000000 1.0
C      1  0.4963380000000  0.4370170000000  0.5483850000000 1.0
C      1  0.5446630000000  0.4275350000000  0.4788120000000 1.0
C      1  0.4723000000000  0.4576060000000  0.4526360000000 1.0
C      1  0.5268960000000  0.4997590000000  0.5615060000000 1.0
C      1  0.4778460000000  0.5325880000000  0.4304590000000 1.0
C      1  0.5125420000000  0.5236030000000  0.4649350000000 1.0
C      1  0.5591860000000  0.5267510000000  0.4860810000000 1.0
C      1  0.4846740000000  0.5602850000000  0.4309660000000 1.0
C      1  0.4187310000000  0.5015300000000  0.5053010000000 1.0
C      1  0.5071790000000  0.5290980000000  0.4358180000000 1.0
C      1  0.4608250000000  0.5828400000000  0.5746840000000 1.0
C      1  0.5538600000000  0.4787100000000  0.4862020000000 1.0
C      1  0.4957710000000  0.5593760000000  0.5412130000000 1.0
C      1  0.4749810000000  0.4769800000000  0.4315940000000 1.0
C      1  0.4789000000000  0.5726910000000  0.5582410000000 1.0
C      1  0.4422540000000  0.5350650000000  0.4806730000000 1.0
C      1  0.5161670000000  0.4774030000000  0.5739810000000 1.0
C      1  0.4963550000000  0.5634950000000  0.5121760000000 1.0
C      1  0.4988650000000  0.4850640000000  0.4200910000000 1.0
C      1  0.4308450000000  0.5845900000000  0.6127090000000 1.0
C      1  0.5655270000000  0.5027590000000  0.5316550000000 1.0
C      1  0.4841990000000  0.4163940000000  0.5057820000000 1.0
C      1  0.5622520000000  0.5012950000000  0.4440690000000 1.0
C      1  0.4796030000000  0.4186730000000  0.4795140000000 1.0
C      1  0.4968660000000  0.4947350000000  0.5086830000000 1.0
C      1  0.5329430000000  0.5410270000000  0.4778570000000 1.0
C      1  0.4852760000000  0.4323890000000  0.4561680000000 1.0
C      1  0.5026690000000  0.4234340000000  0.5251240000000 1.0
C      1  0.4376850000000  0.4907190000000  0.4610930000000 1.0
C      1  0.4678480000000  0.4990010000000  0.4987760000000 1.0
C      1  0.5358980000000  0.5417570000000  0.5253630000000 1.0
C      1  0.5379190000000  0.4064530000000  0.4960710000000 1.0
C      1  0.5213450000000  0.5473130000000  0.5500220000000 1.0
C      1  0.4923340000000  0.5106040000000  0.4830010000000 1.0
C      1  0.4412460000000  0.5069580000000  0.4863880000000 1.0
C      1  0.5206400000000  0.4847090000000  0.5201100000000 1.0
C      1  0.4472000000000  0.4641950000000  0.4636980000000 1.0
C      1  0.4752390000000  0.5679140000000  0.4946960000000 1.0
C      1  0.5492110000000  0.4814450000000  0.5169100000000 1.0
C      1  0.4620740000000  0.5636360000000  0.4477350000000 1.0
C      1  0.5244490000000  0.5269040000000  0.5702140000000 1.0
C      1  0.5102330000000  0.4287090000000  0.4448880000000 1.0
C      1  0.5615230000000  0.4515720000000  0.5202590000000 1.0
C      1  0.5656010000000  0.5009080000000  0.4717900000000 1.0
C      1  0.5614300000000  0.4492110000000  0.4891910000000 1.0
C      1  0.4152520000000  0.4757900000000  0.5167030000000 1.0
C      1  0.5034590000000  0.4550380000000  0.5667590000000 1.0
C      1  0.4235880000000  0.4957180000000  0.5326640000000 1.0
C      1  0.4167240000000  0.5936390000000  0.5916040000000 1.0
C      1  0.5603240000000  0.5278910000000  0.5167960000000 1.0
C      1  0.4448340000000  0.5973270000000  0.5915940000000 1.0
END
