TITL C-38192-7909-5 0.00932899557280771 125000 -360.658616839063 0 0 60 (C1) n - 1
REM
REM in /home/bkarasulu/CARBON/AIRSS/Generating-Clusters/EDIP-Nigel-Params/Higher-Symm/Box-15A/Only-C60/SD-CG/FIRE-HFTN
REM
REM
REM
REM
REM
REM ./C.cell (414f73aa93bd7a1190c7fd0f31ff2f98)
REM
REM compiler GCC version 9.2.1 20190827 (Red Hat 9.2.1-1)
REM options -cpp -mtune=generic -march=x86-64 -g -O0 -fpre-include=/usr/include/finclude/math-vector-fortran.h
REM seed -247004451 1366209224 -1871245264 1696169973 -1868772446 -1949172799 1892470681 -927952433 -941928781 393021528 768082904 2106769305 -1489931004 -436945400 14406078 1267279564 720398365 -2072640731 1428357526 534671948 1351325264 -83844683 -570814257 -1106731712 1860745804 471553808 -1020792560 -951239077 -1452339880 -1192086324 1682538921 550464476 -649280891
REM
CELL 1.54180   50.00000   50.00000   50.00000   90.00000   90.00000   90.00000
LATT -1
SFAC C  
C      1  0.5239080000000  0.4548110000000  0.4563000000000 1.0
C      1  0.4778460000000  0.4545220000000  0.4570220000000 1.0
C      1  0.4591510000000  0.4367020000000  0.5411730000000 1.0
C      1  0.5373350000000  0.4338710000000  0.5310700000000 1.0
C      1  0.4513380000000  0.4951250000000  0.4529040000000 1.0
C      1  0.5495170000000  0.4962820000000  0.4520840000000 1.0
C      1  0.4388250000000  0.4787420000000  0.5498740000000 1.0
C      1  0.5597920000000  0.4725210000000  0.5468060000000 1.0
C      1  0.4364000000000  0.4879650000000  0.4752690000000 1.0
C      1  0.5654580000000  0.4893170000000  0.4738060000000 1.0
C      1  0.5443970000000  0.4490910000000  0.5557390000000 1.0
C      1  0.4494600000000  0.4547320000000  0.5635780000000 1.0
C      1  0.4758780000000  0.4807330000000  0.4480040000000 1.0
C      1  0.5252150000000  0.4812580000000  0.4476780000000 1.0
C      1  0.4404960000000  0.4719550000000  0.5217100000000 1.0
C      1  0.5615950000000  0.4685630000000  0.5180540000000 1.0
C      1  0.4754610000000  0.4941180000000  0.5696790000000 1.0
C      1  0.5247540000000  0.4900570000000  0.5677990000000 1.0
C      1  0.5567320000000  0.5474270000000  0.4479450000000 1.0
C      1  0.4416900000000  0.5458640000000  0.4459980000000 1.0
C      1  0.4503750000000  0.5435500000000  0.5122950000000 1.0
C      1  0.5467120000000  0.5402230000000  0.5144420000000 1.0
C      1  0.5505920000000  0.4968160000000  0.5582280000000 1.0
C      1  0.4501850000000  0.5027120000000  0.5600090000000 1.0
C      1  0.5532690000000  0.5593450000000  0.4956390000000 1.0
C      1  0.4443940000000  0.5618170000000  0.4924040000000 1.0
C      1  0.4343110000000  0.4927570000000  0.5026080000000 1.0
C      1  0.5668640000000  0.4918360000000  0.5015280000000 1.0
C      1  0.5231450000000  0.4607530000000  0.5731520000000 1.0
C      1  0.4733070000000  0.4654100000000  0.5789010000000 1.0
C      1  0.5577590000000  0.5628020000000  0.4696040000000 1.0
C      1  0.4399460000000  0.5630910000000  0.4661600000000 1.0
C      1  0.4752000000000  0.5468690000000  0.5268410000000 1.0
C      1  0.5186070000000  0.5395080000000  0.5224100000000 1.0
C      1  0.4370010000000  0.5190020000000  0.5116750000000 1.0
C      1  0.5621290000000  0.5168930000000  0.5132090000000 1.0
C      1  0.4478280000000  0.5202660000000  0.4420320000000 1.0
C      1  0.5516930000000  0.5219360000000  0.4420680000000 1.0
C      1  0.4455540000000  0.4444380000000  0.5170350000000 1.0
C      1  0.5556140000000  0.4416310000000  0.5101500000000 1.0
C      1  0.4995380000000  0.5463810000000  0.4304520000000 1.0
C      1  0.4991150000000  0.6123380000000  0.4639660000000 1.0
C      1  0.4960610000000  0.4483850000000  0.5695970000000 1.0
C      1  0.5096890000000  0.4243710000000  0.5272540000000 1.0
C      1  0.4999990000000  0.5198320000000  0.4301310000000 1.0
C      1  0.5003580000000  0.4940360000000  0.4398820000000 1.0
C      1  0.4996900000000  0.6378900000000  0.4624440000000 1.0
C      1  0.4975580000000  0.5726830000000  0.4901770000000 1.0
C      1  0.4987910000000  0.5850270000000  0.4656840000000 1.0
C      1  0.4888370000000  0.4356970000000  0.5441870000000 1.0
C      1  0.5009860000000  0.4398010000000  0.4600330000000 1.0
C      1  0.5032960000000  0.4123830000000  0.5032720000000 1.0
C      1  0.4896230000000  0.4969570000000  0.5022900000000 1.0
C      1  0.5012200000000  0.4186170000000  0.4775150000000 1.0
C      1  0.4991780000000  0.5697200000000  0.4429760000000 1.0
C      1  0.5142900000000  0.4863650000000  0.5039150000000 1.0
C      1  0.4986640000000  0.5594570000000  0.5144680000000 1.0
C      1  0.5001960000000  0.4990710000000  0.5522160000000 1.0
C      1  0.4971720000000  0.4836780000000  0.5264470000000 1.0
C      1  0.5026910000000  0.5277140000000  0.5447900000000 1.0
END
