TITL C-38198-1686-23 3.41205147975382e-05 125000 -354.64743458223 0 0 60 (C1) n - 1
REM
REM in /home/bkarasulu/CARBON/AIRSS/Generating-Clusters/EDIP-Nigel-Params/Higher-Symm/Box-15A/Only-C60/SD-CG/FIRE-HFTN
REM
REM
REM
REM
REM
REM ./C.cell (414f73aa93bd7a1190c7fd0f31ff2f98)
REM
REM compiler GCC version 9.2.1 20190827 (Red Hat 9.2.1-1)
REM options -cpp -mtune=generic -march=x86-64 -g -O0 -fpre-include=/usr/include/finclude/math-vector-fortran.h
REM seed 629245204 -357163773 -721832019 -1579071991 -1901355072 1110161516 1586649851 -981267561 2091697178 1284038988 -993115218 -1066651624 362975394 -693394967 -485918839 1701810197 263967501 -736651796 -846966115 -583203142 825881302 1075166157 -1029284417 -386824153 -400126346 290578245 -620435849 111010572 -1891938825 -999712673 91539876 -399557958 -2058944723
REM
CELL 1.54180   50.00000   50.00000   50.00000   90.00000   90.00000   90.00000
LATT -1
SFAC C  
C      1  0.5176290000000  0.4959940000000  0.4366180000000 1.0
C      1  0.4615540000000  0.5151060000000  0.4815580000000 1.0
C      1  0.4531310000000  0.5695290000000  0.4959130000000 1.0
C      1  0.4448630000000  0.5148720000000  0.4321880000000 1.0
C      1  0.4384560000000  0.4832190000000  0.5273680000000 1.0
C      1  0.4952830000000  0.4336710000000  0.5287220000000 1.0
C      1  0.5570880000000  0.4685630000000  0.4611980000000 1.0
C      1  0.5404270000000  0.4897710000000  0.5524070000000 1.0
C      1  0.5157590000000  0.4280040000000  0.5721120000000 1.0
C      1  0.5010980000000  0.5427900000000  0.5450190000000 1.0
C      1  0.5083500000000  0.4900670000000  0.4952090000000 1.0
C      1  0.5142470000000  0.5230350000000  0.4493480000000 1.0
C      1  0.5118480000000  0.4888710000000  0.5475590000000 1.0
C      1  0.4342630000000  0.5113530000000  0.4883590000000 1.0
C      1  0.5523370000000  0.5405450000000  0.5406400000000 1.0
C      1  0.5558910000000  0.4712080000000  0.5380510000000 1.0
C      1  0.4599430000000  0.5690170000000  0.4698750000000 1.0
C      1  0.4856480000000  0.4265900000000  0.4826350000000 1.0
C      1  0.4871970000000  0.5329050000000  0.4498710000000 1.0
C      1  0.4961000000000  0.4699510000000  0.5621040000000 1.0
C      1  0.4885250000000  0.4526070000000  0.4673770000000 1.0
C      1  0.5274780000000  0.5555450000000  0.5450660000000 1.0
C      1  0.4862880000000  0.4897910000000  0.4321370000000 1.0
C      1  0.4801680000000  0.4991180000000  0.4966570000000 1.0
C      1  0.5627100000000  0.4836980000000  0.5148310000000 1.0
C      1  0.5633880000000  0.5480340000000  0.5127470000000 1.0
C      1  0.5420370000000  0.5673760000000  0.5023220000000 1.0
C      1  0.4732140000000  0.5013350000000  0.5586520000000 1.0
C      1  0.4824170000000  0.4817520000000  0.5227420000000 1.0
C      1  0.5295990000000  0.5593470000000  0.4771930000000 1.0
C      1  0.5229320000000  0.5745830000000  0.5232590000000 1.0
C      1  0.4448720000000  0.4673150000000  0.4524820000000 1.0
C      1  0.4715180000000  0.5155050000000  0.4323870000000 1.0
C      1  0.5280160000000  0.4704980000000  0.4517890000000 1.0
C      1  0.5272780000000  0.5128780000000  0.4952400000000 1.0
C      1  0.5093950000000  0.4262810000000  0.5024050000000 1.0
C      1  0.4608090000000  0.5556740000000  0.5187320000000 1.0
C      1  0.5735990000000  0.5235850000000  0.4898260000000 1.0
C      1  0.4724520000000  0.4672440000000  0.4467530000000 1.0
C      1  0.4530650000000  0.5270600000000  0.5176550000000 1.0
C      1  0.4507170000000  0.5067850000000  0.5396150000000 1.0
C      1  0.5292520000000  0.4475020000000  0.4924180000000 1.0
C      1  0.5535690000000  0.5106080000000  0.5086470000000 1.0
C      1  0.5085120000000  0.4448660000000  0.5528270000000 1.0
C      1  0.4522460000000  0.4441800000000  0.5424850000000 1.0
C      1  0.5519250000000  0.5150410000000  0.5518310000000 1.0
C      1  0.5322670000000  0.5302890000000  0.4711160000000 1.0
C      1  0.4719560000000  0.4510760000000  0.5224410000000 1.0
C      1  0.4833770000000  0.5608870000000  0.4573420000000 1.0
C      1  0.5130510000000  0.4660280000000  0.4766970000000 1.0
C      1  0.4619890000000  0.4428440000000  0.4949230000000 1.0
C      1  0.4307360000000  0.4841340000000  0.4984680000000 1.0
C      1  0.4314480000000  0.4611190000000  0.5431450000000 1.0
C      1  0.4895640000000  0.5241030000000  0.5622690000000 1.0
C      1  0.4440190000000  0.4635350000000  0.4806790000000 1.0
C      1  0.5552830000000  0.4980460000000  0.4469240000000 1.0
C      1  0.4868950000000  0.5615690000000  0.5286220000000 1.0
C      1  0.5556440000000  0.4475460000000  0.4813000000000 1.0
C      1  0.5063950000000  0.5719340000000  0.4683250000000 1.0
C      1  0.5602840000000  0.5236220000000  0.4629200000000 1.0
END
