TITL C-38184-643-80 9.45379681519379e-05 125000 -349.106503588643 0 0 60 (C1) n - 1
REM
REM in /home/bkarasulu/CARBON/AIRSS/Generating-Clusters/EDIP-Nigel-Params/Higher-Symm/Box-15A/Only-C60/SD-CG/FIRE-HFTN
REM
REM
REM
REM
REM
REM ./C.cell (414f73aa93bd7a1190c7fd0f31ff2f98)
REM
REM compiler GCC version 9.2.1 20190827 (Red Hat 9.2.1-1)
REM options -cpp -mtune=generic -march=x86-64 -g -O0 -fpre-include=/usr/include/finclude/math-vector-fortran.h
REM seed 193368933 2002445645 28682798 -2089765610 -1138418103 383697568 -1443035379 -1626071670 1537545362 4805048 -1725191901 -633822968 -93574993 -1707842910 961255732 1428173634 -1433591143 -2140528647 -1232238838 -926568185 -1795635635 -1392983184 -725514080 -1987345146 816326833 -1547828339 -248511425 -1463360508 -1537533473 1290042295 1286884507 1620392953 -1173569611
REM
CELL 1.54180   50.00000   50.00000   50.00000   90.00000   90.00000   90.00000
LATT -1
SFAC C  
C      1  0.5293720000000  0.5177830000000  0.4443730000000 1.0
C      1  0.4371800000000  0.5177610000000  0.5024750000000 1.0
C      1  0.5336620000000  0.5179270000000  0.5536470000000 1.0
C      1  0.5337820000000  0.5652750000000  0.4575450000000 1.0
C      1  0.4460680000000  0.5652560000000  0.4918120000000 1.0
C      1  0.5199050000000  0.5653600000000  0.5507970000000 1.0
C      1  0.4628920000000  0.5772340000000  0.4732800000000 1.0
C      1  0.4954920000000  0.5773250000000  0.5452550000000 1.0
C      1  0.5412520000000  0.5772210000000  0.4814490000000 1.0
C      1  0.5608890000000  0.4979060000000  0.4844580000000 1.0
C      1  0.4563860000000  0.4977380000000  0.4553370000000 1.0
C      1  0.4831480000000  0.4981080000000  0.5601990000000 1.0
C      1  0.5283260000000  0.4305250000000  0.4996150000000 1.0
C      1  0.4857250000000  0.4306200000000  0.4756150000000 1.0
C      1  0.4862590000000  0.4305530000000  0.5245260000000 1.0
C      1  0.4158970000000  0.4881170000000  0.5433560000000 1.0
C      1  0.5788350000000  0.4870000000000  0.5516770000000 1.0
C      1  0.5049060000000  0.4876100000000  0.4057270000000 1.0
C      1  0.4781000000000  0.4809410000000  0.4030230000000 1.0
C      1  0.4271310000000  0.4814140000000  0.5678350000000 1.0
C      1  0.5948660000000  0.4808590000000  0.5298670000000 1.0
C      1  0.5142020000000  0.4205070000000  0.4748330000000 1.0
C      1  0.4713230000000  0.4205440000000  0.5002160000000 1.0
C      1  0.5147500000000  0.4204720000000  0.5246760000000 1.0
C      1  0.4508360000000  0.5618580000000  0.4536790000000 1.0
C      1  0.4844140000000  0.5621690000000  0.5655890000000 1.0
C      1  0.5644070000000  0.5620790000000  0.4807950000000 1.0
C      1  0.4626530000000  0.5443900000000  0.5607470000000 1.0
C      1  0.5712110000000  0.5443310000000  0.5020460000000 1.0
C      1  0.4659730000000  0.5440850000000  0.4373120000000 1.0
C      1  0.5280150000000  0.4268890000000  0.5470720000000 1.0
C      1  0.5268820000000  0.4277140000000  0.4523560000000 1.0
C      1  0.4455300000000  0.4278000000000  0.5005090000000 1.0
C      1  0.5099100000000  0.5043440000000  0.5574570000000 1.0
C      1  0.5445810000000  0.5042650000000  0.4630850000000 1.0
C      1  0.4459480000000  0.5040510000000  0.4801250000000 1.0
C      1  0.4283100000000  0.5028740000000  0.5238960000000 1.0
C      1  0.5566050000000  0.5029630000000  0.5507460000000 1.0
C      1  0.5153610000000  0.5027270000000  0.4260390000000 1.0
C      1  0.5118080000000  0.4715810000000  0.5197670000000 1.0
C      1  0.5133630000000  0.4701470000000  0.4769070000000 1.0
C      1  0.4735600000000  0.4700930000000  0.5003210000000 1.0
C      1  0.4808040000000  0.4656530000000  0.4260090000000 1.0
C      1  0.4455490000000  0.4660970000000  0.5538440000000 1.0
C      1  0.5737940000000  0.4656090000000  0.5202260000000 1.0
C      1  0.5284060000000  0.4613250000000  0.4990480000000 1.0
C      1  0.4857930000000  0.4613740000000  0.4757770000000 1.0
C      1  0.4857820000000  0.4613560000000  0.5243620000000 1.0
C      1  0.4492070000000  0.5429700000000  0.5094140000000 1.0
C      1  0.5336420000000  0.5429910000000  0.5395150000000 1.0
C      1  0.5171550000000  0.5428900000000  0.4513250000000 1.0
C      1  0.4566300000000  0.5178300000000  0.4361420000000 1.0
C      1  0.4663190000000  0.5181650000000  0.5695280000000 1.0
C      1  0.5770750000000  0.5181370000000  0.4944850000000 1.0
C      1  0.5553050000000  0.4744010000000  0.5003140000000 1.0
C      1  0.4726700000000  0.4740690000000  0.4520690000000 1.0
C      1  0.4722040000000  0.4743770000000  0.5477400000000 1.0
C      1  0.5571440000000  0.5481370000000  0.5257330000000 1.0
C      1  0.4935050000000  0.5479990000000  0.4377840000000 1.0
C      1  0.4493010000000  0.5482070000000  0.5366450000000 1.0
END
