TITL C-38199-1586-156 2.15413609404139e-06 125000 -356.465792603867 0 0 60 (S10) n - 1
REM
REM in /home/bkarasulu/CARBON/AIRSS/Generating-Clusters/EDIP-Nigel-Params/Higher-Symm/Box-15A/Only-C60/SD-CG/FIRE-HFTN
REM
REM
REM
REM
REM
REM ./C.cell (414f73aa93bd7a1190c7fd0f31ff2f98)
REM
REM compiler GCC version 9.2.1 20190827 (Red Hat 9.2.1-1)
REM options -cpp -mtune=generic -march=x86-64 -g -O0 -fpre-include=/usr/include/finclude/math-vector-fortran.h
REM seed -962377738 -1037710559 217264183 -192205016 1784875962 -117410262 1091952733 777254984 488577936 -1252904643 1837987097 -461040942 2117151258 1420372679 1013958088 -501920993 1131863177 -1941801053 -1509156954 -307229439 1649792134 709230612 1110545960 -1681712919 750360684 1447480800 1614413157 353618958 1214430827 -452783496 -1909231070 -263673002 -2106481376
REM
CELL 1.54180   50.00000   50.00000   50.00000   90.00000   90.00000   90.00000
LATT -1
SFAC C  
C      1  0.5764060000000  0.5138220000000  0.5174530000000 1.0
C      1  0.5515550000000  0.4861780000000  0.5590300000000 1.0
C      1  0.5070120000000  0.5138220000000  0.5780600000000 1.0
C      1  0.4597910000000  0.4861780000000  0.5672730000000 1.0
C      1  0.4279280000000  0.5138220000000  0.5307900000000 1.0
C      1  0.4235940000000  0.4861780000000  0.4825470000000 1.0
C      1  0.4484450000000  0.5138220000000  0.4409700000000 1.0
C      1  0.4929880000000  0.4861780000000  0.4219400000000 1.0
C      1  0.5402090000000  0.5138220000000  0.4327270000000 1.0
C      1  0.5720720000000  0.4861780000000  0.4692100000000 1.0
C      1  0.4762870000000  0.5352700000000  0.5146350000000 1.0
C      1  0.4722130000000  0.4647300000000  0.4979020000000 1.0
C      1  0.4787530000000  0.5352700000000  0.4819700000000 1.0
C      1  0.4934090000000  0.4647300000000  0.4729250000000 1.0
C      1  0.5105820000000  0.5352700000000  0.4742220000000 1.0
C      1  0.5237130000000  0.4647300000000  0.4853650000000 1.0
C      1  0.5277870000000  0.5352700000000  0.5020980000000 1.0
C      1  0.5212470000000  0.4647300000000  0.5180300000000 1.0
C      1  0.5065910000000  0.5352700000000  0.5270750000000 1.0
C      1  0.4894180000000  0.4647300000000  0.5257780000000 1.0
C      1  0.5496890000000  0.5140250000000  0.5612010000000 1.0
C      1  0.5042260000000  0.4859750000000  0.5787190000000 1.0
C      1  0.4571490000000  0.5140250000000  0.5661690000000 1.0
C      1  0.4264400000000  0.4859750000000  0.5283450000000 1.0
C      1  0.4238270000000  0.5140250000000  0.4796940000000 1.0
C      1  0.4503110000000  0.4859750000000  0.4387990000000 1.0
C      1  0.4957740000000  0.5140250000000  0.4212810000000 1.0
C      1  0.5428510000000  0.4859750000000  0.4338310000000 1.0
C      1  0.5735600000000  0.5140250000000  0.4716550000000 1.0
C      1  0.5761730000000  0.4859750000000  0.5203060000000 1.0
C      1  0.5197520000000  0.5076130000000  0.4646920000000 1.0
C      1  0.5367330000000  0.4923870000000  0.4830460000000 1.0
C      1  0.5396830000000  0.5076130000000  0.5078750000000 1.0
C      1  0.5274760000000  0.4923870000000  0.5296960000000 1.0
C      1  0.5047740000000  0.5076130000000  0.5401740000000 1.0
C      1  0.4802480000000  0.4923870000000  0.5353080000000 1.0
C      1  0.4632670000000  0.5076130000000  0.5169540000000 1.0
C      1  0.4603170000000  0.4923870000000  0.4921250000000 1.0
C      1  0.4725240000000  0.5076130000000  0.4703040000000 1.0
C      1  0.4952260000000  0.4923870000000  0.4598260000000 1.0
C      1  0.4715170000000  0.4689130000000  0.4312680000000 1.0
C      1  0.5173560000000  0.5310870000000  0.4276520000000 1.0
C      1  0.5565660000000  0.4689130000000  0.4516710000000 1.0
C      1  0.5741700000000  0.5310870000000  0.4941500000000 1.0
C      1  0.5634430000000  0.4689130000000  0.5388640000000 1.0
C      1  0.5284830000000  0.5310870000000  0.5687320000000 1.0
C      1  0.4826440000000  0.4689130000000  0.5723480000000 1.0
C      1  0.4434340000000  0.5310870000000  0.5483290000000 1.0
C      1  0.4258300000000  0.4689130000000  0.5058500000000 1.0
C      1  0.4365570000000  0.5310870000000  0.4611360000000 1.0
C      1  0.4855150000000  0.4501600000000  0.5509580000000 1.0
C      1  0.4583290000000  0.5498400000000  0.5327120000000 1.0
C      1  0.4470600000000  0.4501600000000  0.5019710000000 1.0
C      1  0.4560120000000  0.5498400000000  0.4704770000000 1.0
C      1  0.4817660000000  0.4501600000000  0.4502600000000 1.0
C      1  0.5144850000000  0.5498400000000  0.4490420000000 1.0
C      1  0.5416710000000  0.4501600000000  0.4672880000000 1.0
C      1  0.5529400000000  0.5498400000000  0.4980290000000 1.0
C      1  0.5439880000000  0.4501600000000  0.5295230000000 1.0
C      1  0.5182340000000  0.5498400000000  0.5497400000000 1.0
END
