TITL C-38196-2854-389 -0.0242258357652047 125000 -346.630436928108 0 0 60 (C1) n - 1
REM
REM in /home/bkarasulu/CARBON/AIRSS/Generating-Clusters/EDIP-Nigel-Params/Higher-Symm/Box-15A/Only-C60/SD-CG/FIRE-HFTN
REM
REM
REM
REM
REM
REM ./C.cell (414f73aa93bd7a1190c7fd0f31ff2f98)
REM
REM compiler GCC version 9.2.1 20190827 (Red Hat 9.2.1-1)
REM options -cpp -mtune=generic -march=x86-64 -g -O0 -fpre-include=/usr/include/finclude/math-vector-fortran.h
REM seed -1952800739 -1747601886 1487928184 -73244269 -1371027633 1291138696 -949130869 1756805112 1309107329 127395867 -932362956 -932527669 -1253730324 1296365594 -1038645775 1207561081 -1793027756 -319258826 54995902 -318300379 -1584905255 -412175210 -179418441 1718028188 -1297139836 476356925 -2033686226 -774760066 -2065098480 -1282578903 -807642155 557709643 -695185945
REM
CELL 1.54180   50.00000   50.00000   50.00000   90.00000   90.00000   90.00000
LATT -1
SFAC C  
C      1  0.4892080000000  0.4796490000000  0.4826610000000 1.0
C      1  0.4867970000000  0.5112100000000  0.4835360000000 1.0
C      1  0.5177490000000  0.5139420000000  0.4820600000000 1.0
C      1  0.5208340000000  0.4829060000000  0.4811700000000 1.0
C      1  0.4832050000000  0.5208810000000  0.5214370000000 1.0
C      1  0.4798780000000  0.4893370000000  0.5202760000000 1.0
C      1  0.5114760000000  0.4868320000000  0.5191290000000 1.0
C      1  0.5143100000000  0.5177780000000  0.5205670000000 1.0
C      1  0.5350400000000  0.4202490000000  0.4438920000000 1.0
C      1  0.4330700000000  0.4676130000000  0.4220250000000 1.0
C      1  0.4676310000000  0.5772040000000  0.4496240000000 1.0
C      1  0.5687190000000  0.5331670000000  0.4218280000000 1.0
C      1  0.5336970000000  0.5797770000000  0.5557270000000 1.0
C      1  0.4314380000000  0.5337770000000  0.5828460000000 1.0
C      1  0.4661600000000  0.4227930000000  0.5556530000000 1.0
C      1  0.5668470000000  0.4675510000000  0.5784220000000 1.0
C      1  0.5798900000000  0.4660690000000  0.5540050000000 1.0
C      1  0.4652790000000  0.4190500000000  0.5282240000000 1.0
C      1  0.4176310000000  0.5345740000000  0.5587940000000 1.0
C      1  0.5323330000000  0.5815080000000  0.5281090000000 1.0
C      1  0.5812370000000  0.5337950000000  0.4465740000000 1.0
C      1  0.4676360000000  0.5791010000000  0.4772480000000 1.0
C      1  0.4187540000000  0.4656070000000  0.4456860000000 1.0
C      1  0.5347190000000  0.4167010000000  0.4713760000000 1.0
C      1  0.4806760000000  0.4710710000000  0.4550190000000 1.0
C      1  0.4750400000000  0.5196500000000  0.4572460000000 1.0
C      1  0.5227680000000  0.5255590000000  0.4548460000000 1.0
C      1  0.5287810000000  0.4768560000000  0.4526350000000 1.0
C      1  0.4778120000000  0.5294370000000  0.5498700000000 1.0
C      1  0.4718050000000  0.4805620000000  0.5479590000000 1.0
C      1  0.5197180000000  0.4749970000000  0.5454640000000 1.0
C      1  0.5257740000000  0.5233420000000  0.5478160000000 1.0
C      1  0.5725510000000  0.5486590000000  0.4678500000000 1.0
C      1  0.5503720000000  0.4305560000000  0.4889190000000 1.0
C      1  0.4262430000000  0.4502040000000  0.4669450000000 1.0
C      1  0.4500600000000  0.5660320000000  0.4935320000000 1.0
C      1  0.5714690000000  0.4507010000000  0.5330420000000 1.0
C      1  0.5487340000000  0.5679230000000  0.5109970000000 1.0
C      1  0.4253810000000  0.5491750000000  0.5370150000000 1.0
C      1  0.4486370000000  0.4325430000000  0.5113620000000 1.0
C      1  0.4425530000000  0.4919850000000  0.4313060000000 1.0
C      1  0.4924990000000  0.5650810000000  0.4515600000000 1.0
C      1  0.5598150000000  0.5077140000000  0.4284340000000 1.0
C      1  0.5099690000000  0.4318950000000  0.4462730000000 1.0
C      1  0.4409200000000  0.5088670000000  0.5750810000000 1.0
C      1  0.4907460000000  0.4351070000000  0.5520560000000 1.0
C      1  0.5580160000000  0.4927140000000  0.5707400000000 1.0
C      1  0.5084300000000  0.5683320000000  0.5551170000000 1.0
C      1  0.5332130000000  0.5029750000000  0.4383650000000 1.0
C      1  0.5058830000000  0.4602010000000  0.4424490000000 1.0
C      1  0.4693180000000  0.4950580000000  0.4413520000000 1.0
C      1  0.4964040000000  0.5371140000000  0.4458320000000 1.0
C      1  0.5312050000000  0.4972980000000  0.5614400000000 1.0
C      1  0.5042300000000  0.5402030000000  0.5599690000000 1.0
C      1  0.4674000000000  0.5053660000000  0.5643270000000 1.0
C      1  0.4945980000000  0.4632270000000  0.5570500000000 1.0
C      1  0.5619380000000  0.4405580000000  0.5105180000000 1.0
C      1  0.4358190000000  0.4411320000000  0.4898830000000 1.0
C      1  0.4356670000000  0.5581690000000  0.5143140000000 1.0
C      1  0.5620220000000  0.5586720000000  0.4900300000000 1.0
END
