TITL C-38193-7935-305 -5.20531311733118e-05 125000 -366.341821542708 0 0 60 (C2) n - 1
REM
REM in /home/bkarasulu/CARBON/AIRSS/Generating-Clusters/EDIP-Nigel-Params/Higher-Symm/Box-15A/Only-C60/SD-CG/FIRE-HFTN
REM
REM
REM
REM
REM
REM ./C.cell (414f73aa93bd7a1190c7fd0f31ff2f98)
REM
REM compiler GCC version 9.2.1 20190827 (Red Hat 9.2.1-1)
REM options -cpp -mtune=generic -march=x86-64 -g -O0 -fpre-include=/usr/include/finclude/math-vector-fortran.h
REM seed -1887346781 -1471121261 -1223367600 -1366149645 1642102655 876579802 -525867558 -619521066 1145643146 1098671057 -1758966930 -1258275813 -362544162 -1833916701 1736960603 -975064566 518791861 -1029654841 -1156527804 -2056201037 1361044646 -1704167994 -1217117239 -1873483420 515674666 -552498434 -1867567908 -716922435 -1294977962 2062394370 -1931451741 -1927894400 -1433447175
REM
CELL 1.54180   50.00000   50.00000   50.00000   90.00000   90.00000   90.00000
LATT -1
SFAC C  
C      1  0.5692450000000  0.5426380000000  0.4969990000000 1.0
C      1  0.5518340000000  0.5317530000000  0.5171450000000 1.0
C      1  0.5530620000000  0.5146460000000  0.5438450000000 1.0
C      1  0.5435770000000  0.4878000000000  0.5501740000000 1.0
C      1  0.5569140000000  0.4654920000000  0.5381980000000 1.0
C      1  0.5692450000000  0.4573620000000  0.5030000000000 1.0
C      1  0.5518340000000  0.4682470000000  0.4828550000000 1.0
C      1  0.5530620000000  0.4853540000000  0.4561550000000 1.0
C      1  0.5435770000000  0.5122000000000  0.4498260000000 1.0
C      1  0.5569140000000  0.5345080000000  0.4618020000000 1.0
C      1  0.4866680000000  0.5638630000000  0.5420520000000 1.0
C      1  0.4859220000000  0.5449520000000  0.5647460000000 1.0
C      1  0.4832720000000  0.4908890000000  0.5868490000000 1.0
C      1  0.4956390000000  0.4414980000000  0.5482000000000 1.0
C      1  0.4762840000000  0.4208770000000  0.5075610000000 1.0
C      1  0.4866670000000  0.4361370000000  0.4579480000000 1.0
C      1  0.4859220000000  0.4550480000000  0.4352540000000 1.0
C      1  0.4832720000000  0.5091110000000  0.4131510000000 1.0
C      1  0.4956390000000  0.5585020000000  0.4518000000000 1.0
C      1  0.4762840000000  0.5791230000000  0.4924390000000 1.0
C      1  0.5342210000000  0.5524630000000  0.5314890000000 1.0
C      1  0.5342560000000  0.5357540000000  0.5572120000000 1.0
C      1  0.5291840000000  0.4850940000000  0.5740580000000 1.0
C      1  0.5430610000000  0.4398420000000  0.5330690000000 1.0
C      1  0.5598520000000  0.4311830000000  0.5110900000000 1.0
C      1  0.5342210000000  0.4475370000000  0.4685110000000 1.0
C      1  0.5342560000000  0.4642460000000  0.4427880000000 1.0
C      1  0.5291840000000  0.5149060000000  0.4259420000000 1.0
C      1  0.5430610000000  0.5601580000000  0.4669310000000 1.0
C      1  0.5598520000000  0.5688170000000  0.4889100000000 1.0
C      1  0.5078850000000  0.4741860000000  0.4354520000000 1.0
C      1  0.5078950000000  0.4980700000000  0.4194300000000 1.0
C      1  0.5141960000000  0.5592040000000  0.4726240000000 1.0
C      1  0.5032470000000  0.5718560000000  0.4964850000000 1.0
C      1  0.5075760000000  0.5592550000000  0.5222990000000 1.0
C      1  0.5078850000000  0.5258140000000  0.5645480000000 1.0
C      1  0.5078950000000  0.5019300000000  0.5805700000000 1.0
C      1  0.5141960000000  0.4407960000000  0.5273760000000 1.0
C      1  0.5032470000000  0.4281440000000  0.5035150000000 1.0
C      1  0.5075760000000  0.4407450000000  0.4777010000000 1.0
C      1  0.4608580000000  0.5636080000000  0.5301410000000 1.0
C      1  0.4593660000000  0.5347570000000  0.5671590000000 1.0
C      1  0.4592540000000  0.4875850000000  0.5750230000000 1.0
C      1  0.4702190000000  0.4510210000000  0.5458410000000 1.0
C      1  0.4515390000000  0.4321430000000  0.5121280000000 1.0
C      1  0.4608580000000  0.4363920000000  0.4698590000000 1.0
C      1  0.4593660000000  0.4652430000000  0.4328410000000 1.0
C      1  0.4592540000000  0.5124150000000  0.4249770000000 1.0
C      1  0.4702190000000  0.5489790000000  0.4541590000000 1.0
C      1  0.4515390000000  0.5678570000000  0.4878730000000 1.0
C      1  0.4452550000000  0.5402730000000  0.4924130000000 1.0
C      1  0.4532790000000  0.5378090000000  0.5206210000000 1.0
C      1  0.4487130000000  0.5212520000000  0.5445290000000 1.0
C      1  0.4492420000000  0.4923600000000  0.5492250000000 1.0
C      1  0.4584850000000  0.4718870000000  0.5307970000000 1.0
C      1  0.4452550000000  0.4597270000000  0.5075870000000 1.0
C      1  0.4532790000000  0.4621910000000  0.4793790000000 1.0
C      1  0.4487130000000  0.4787480000000  0.4554710000000 1.0
C      1  0.4492420000000  0.5076400000000  0.4507750000000 1.0
C      1  0.4584850000000  0.5281130000000  0.4692030000000 1.0
END
