TITL C-38195-9455-350 1.70428905701539e-05 125000 -370.016889716497 0 0 60 (C5) n - 1
REM
REM in /home/bkarasulu/CARBON/AIRSS/Generating-Clusters/EDIP-Nigel-Params/Higher-Symm/Box-15A/Only-C60/SD-CG/FIRE-HFTN
REM
REM
REM
REM
REM
REM ./C.cell (414f73aa93bd7a1190c7fd0f31ff2f98)
REM
REM compiler GCC version 9.2.1 20190827 (Red Hat 9.2.1-1)
REM options -cpp -mtune=generic -march=x86-64 -g -O0 -fpre-include=/usr/include/finclude/math-vector-fortran.h
REM seed -2065793198 1673861742 1004295192 -1176611137 -967732392 -779141262 1016239624 1190624396 -1150895547 -697231661 -1952838669 2215475 -236038784 -1579513321 1277731120 -973953319 -1227081476 1842835497 -304789163 -880059605 1163323798 -1074670838 -909665308 -880350305 43129157 591485768 2130210160 -2140599169 -1144511577 43763076 211754852 -1943821113 -865257757
REM
CELL 1.54180   50.00000   50.00000   50.00000   90.00000   90.00000   90.00000
LATT -1
SFAC C  
C      1  0.4310980000000  0.5026030000000  0.4443620000000 1.0
C      1  0.5316230000000  0.5026030000000  0.4172770000000 1.0
C      1  0.5884460000000  0.5026030000000  0.5045130000000 1.0
C      1  0.5230390000000  0.5026030000000  0.5855120000000 1.0
C      1  0.4257930000000  0.5026030000000  0.5483360000000 1.0
C      1  0.4149420000000  0.4882180000000  0.5139710000000 1.0
C      1  0.4604280000000  0.4882180000000  0.4234220000000 1.0
C      1  0.5606010000000  0.4882180000000  0.4387010000000 1.0
C      1  0.5770260000000  0.4882180000000  0.5386930000000 1.0
C      1  0.4870030000000  0.4882180000000  0.5852120000000 1.0
C      1  0.4484730000000  0.5132180000000  0.4255970000000 1.0
C      1  0.5548390000000  0.5132180000000  0.4280030000000 1.0
C      1  0.5854190000000  0.5132180000000  0.5299070000000 1.0
C      1  0.4979530000000  0.5132180000000  0.5904800000000 1.0
C      1  0.4133160000000  0.5132180000000  0.5260130000000 1.0
C      1  0.5492410000000  0.5259700000000  0.4846400000000 1.0
C      1  0.5298240000000  0.5259700000000  0.5420840000000 1.0
C      1  0.4691920000000  0.5259700000000  0.5413690000000 1.0
C      1  0.4511350000000  0.5259700000000  0.4834830000000 1.0
C      1  0.5006080000000  0.5259700000000  0.4484230000000 1.0
C      1  0.4770090000000  0.5621220000000  0.4672210000000 1.0
C      1  0.5240700000000  0.5621220000000  0.4680050000000 1.0
C      1  0.5378670000000  0.5621220000000  0.5130050000000 1.0
C      1  0.4993330000000  0.5621220000000  0.5400330000000 1.0
C      1  0.4617210000000  0.5621220000000  0.5117370000000 1.0
C      1  0.5416810000000  0.4578850000000  0.5068080000000 1.0
C      1  0.5064060000000  0.4578850000000  0.5417440000000 1.0
C      1  0.4622780000000  0.4578850000000  0.5189920000000 1.0
C      1  0.4702810000000  0.4578850000000  0.4699930000000 1.0
C      1  0.5193540000000  0.4578850000000  0.4624630000000 1.0
C      1  0.4289300000000  0.4833510000000  0.4890800000000 1.0
C      1  0.4884240000000  0.4833510000000  0.4290340000000 1.0
C      1  0.5639160000000  0.4833510000000  0.4670600000000 1.0
C      1  0.5510780000000  0.4833510000000  0.5506090000000 1.0
C      1  0.4676520000000  0.4833510000000  0.5642170000000 1.0
C      1  0.4304590000000  0.5083070000000  0.4726080000000 1.0
C      1  0.5045620000000  0.5083070000000  0.4253980000000 1.0
C      1  0.5723610000000  0.5083070000000  0.4812860000000 1.0
C      1  0.5401590000000  0.5083070000000  0.5630360000000 1.0
C      1  0.4524590000000  0.5083070000000  0.5576720000000 1.0
C      1  0.4936160000000  0.4732610000000  0.4577730000000 1.0
C      1  0.5381870000000  0.4732610000000  0.4808800000000 1.0
C      1  0.5299850000000  0.4732610000000  0.5304100000000 1.0
C      1  0.4803440000000  0.4732610000000  0.5379140000000 1.0
C      1  0.4578670000000  0.4732610000000  0.4930230000000 1.0
C      1  0.4817930000000  0.4329670000000  0.4816300000000 1.0
C      1  0.5118450000000  0.4329670000000  0.4770080000000 1.0
C      1  0.5255270000000  0.4329670000000  0.5041600000000 1.0
C      1  0.5039320000000  0.4329670000000  0.5255630000000 1.0
C      1  0.4769030000000  0.4329670000000  0.5116390000000 1.0
C      1  0.4732090000000  0.5537710000000  0.5356150000000 1.0
C      1  0.4578500000000  0.5537710000000  0.4855260000000 1.0
C      1  0.5007410000000  0.5537710000000  0.4554400000000 1.0
C      1  0.5426080000000  0.5537710000000  0.4869350000000 1.0
C      1  0.5255930000000  0.5537710000000  0.5364850000000 1.0
C      1  0.5233010000000  0.4983260000000  0.4892360000000 1.0
C      1  0.5174380000000  0.4983260000000  0.5188340000000 1.0
C      1  0.4874760000000  0.4983260000000  0.5224040000000 1.0
C      1  0.4748220000000  0.4983260000000  0.4950120000000 1.0
C      1  0.4969630000000  0.4983260000000  0.4745130000000 1.0
END
