TITL C-38185-7677-173 7.36444241382146e-06 125000 -355.376053148926 0 0 60 (C2) n - 1
REM
REM in /home/bkarasulu/CARBON/AIRSS/Generating-Clusters/EDIP-Nigel-Params/Higher-Symm/Box-15A/Only-C60/SD-CG/FIRE-HFTN
REM
REM
REM
REM
REM
REM ./C.cell (414f73aa93bd7a1190c7fd0f31ff2f98)
REM
REM compiler GCC version 9.2.1 20190827 (Red Hat 9.2.1-1)
REM options -cpp -mtune=generic -march=x86-64 -g -O0 -fpre-include=/usr/include/finclude/math-vector-fortran.h
REM seed -1685889227 -748153425 -1226944312 155117261 -2102679991 -132516425 -971699076 -1162612835 -22965062 -1224622831 1778167412 -20349561 -1120079658 1106587123 -331435368 1107662209 1464991545 97277895 1115879608 -1558482594 -2141022715 1254808566 -696524293 -480700693 1451404952 -709106154 411425717 1794014608 716629509 -1702842520 -1547645056 -502958142 -619220342
REM
CELL 1.54180   50.00000   50.00000   50.00000   90.00000   90.00000   90.00000
LATT -1
SFAC C  
C      1  0.5031690000000  0.4842950000000  0.4458760000000 1.0
C      1  0.5031680000000  0.5157050000000  0.5541240000000 1.0
C      1  0.5029340000000  0.5158010000000  0.4453700000000 1.0
C      1  0.5029340000000  0.4841990000000  0.5546300000000 1.0
C      1  0.4654050000000  0.5197170000000  0.5161470000000 1.0
C      1  0.4654060000000  0.4802830000000  0.4838530000000 1.0
C      1  0.4651560000000  0.4801770000000  0.5165930000000 1.0
C      1  0.4651570000000  0.5198220000000  0.4834060000000 1.0
C      1  0.5194570000000  0.4253030000000  0.4744470000000 1.0
C      1  0.5194560000000  0.5746970000000  0.5255530000000 1.0
C      1  0.5194690000000  0.5747380000000  0.4741830000000 1.0
C      1  0.5194700000000  0.4252620000000  0.5258170000000 1.0
C      1  0.4164370000000  0.5255900000000  0.5146390000000 1.0
C      1  0.4164380000000  0.4744090000000  0.4853600000000 1.0
C      1  0.4163520000000  0.4736760000000  0.5123720000000 1.0
C      1  0.4163520000000  0.5263240000000  0.4876270000000 1.0
C      1  0.5418340000000  0.4427690000000  0.4847800000000 1.0
C      1  0.5418330000000  0.5572310000000  0.5152200000000 1.0
C      1  0.5418140000000  0.5572350000000  0.4844700000000 1.0
C      1  0.5418150000000  0.4427650000000  0.5155300000000 1.0
C      1  0.5281580000000  0.4699340000000  0.4350580000000 1.0
C      1  0.5281570000000  0.5300660000000  0.5649420000000 1.0
C      1  0.5280360000000  0.5300950000000  0.4346550000000 1.0
C      1  0.5280350000000  0.4699050000000  0.5653450000000 1.0
C      1  0.4973870000000  0.5588230000000  0.5142630000000 1.0
C      1  0.4973870000000  0.4411770000000  0.4857370000000 1.0
C      1  0.4973920000000  0.4411620000000  0.5145650000000 1.0
C      1  0.4973920000000  0.5588380000000  0.4854350000000 1.0
C      1  0.4781570000000  0.4560440000000  0.5309950000000 1.0
C      1  0.4781570000000  0.5439560000000  0.4690050000000 1.0
C      1  0.4781960000000  0.5438010000000  0.5306280000000 1.0
C      1  0.4781970000000  0.4561990000000  0.4693710000000 1.0
C      1  0.5351630000000  0.5290890000000  0.5267750000000 1.0
C      1  0.5351640000000  0.4709110000000  0.4732250000000 1.0
C      1  0.5349240000000  0.4708480000000  0.5272090000000 1.0
C      1  0.5349240000000  0.5291530000000  0.4727910000000 1.0
C      1  0.5109900000000  0.5562100000000  0.4295220000000 1.0
C      1  0.5109900000000  0.4437900000000  0.5704780000000 1.0
C      1  0.5109670000000  0.4439210000000  0.4298290000000 1.0
C      1  0.5109660000000  0.5560790000000  0.5701710000000 1.0
C      1  0.4852370000000  0.4598630000000  0.4401510000000 1.0
C      1  0.4852360000000  0.5401370000000  0.5598490000000 1.0
C      1  0.4851750000000  0.5404360000000  0.4397630000000 1.0
C      1  0.4851750000000  0.4595640000000  0.5602370000000 1.0
C      1  0.5550220000000  0.4857800000000  0.5438580000000 1.0
C      1  0.5550230000000  0.5142200000000  0.4561430000000 1.0
C      1  0.5551980000000  0.5141800000000  0.5435990000000 1.0
C      1  0.5551990000000  0.4858200000000  0.4564020000000 1.0
C      1  0.4381110000000  0.4863940000000  0.4719520000000 1.0
C      1  0.4381110000000  0.5136050000000  0.5280470000000 1.0
C      1  0.4372390000000  0.5156150000000  0.4721650000000 1.0
C      1  0.4372380000000  0.4843850000000  0.5278340000000 1.0
C      1  0.5084880000000  0.4840200000000  0.5161360000000 1.0
C      1  0.5084880000000  0.5159800000000  0.4838650000000 1.0
C      1  0.5087140000000  0.5160190000000  0.5156470000000 1.0
C      1  0.5087140000000  0.4839810000000  0.4843530000000 1.0
C      1  0.5177390000000  0.4227990000000  0.5536090000000 1.0
C      1  0.5177400000000  0.5772010000000  0.4463910000000 1.0
C      1  0.5176790000000  0.5771210000000  0.5533490000000 1.0
C      1  0.5176800000000  0.4228790000000  0.4466510000000 1.0
END
