TITL C-38199-1586-85 1.43657744882675e-05 125000 -347.745747785489 0 0 60 (C2) n - 1
REM
REM in /home/bkarasulu/CARBON/AIRSS/Generating-Clusters/EDIP-Nigel-Params/Higher-Symm/Box-15A/Only-C60/SD-CG/FIRE-HFTN
REM
REM
REM
REM
REM
REM ./C.cell (414f73aa93bd7a1190c7fd0f31ff2f98)
REM
REM compiler GCC version 9.2.1 20190827 (Red Hat 9.2.1-1)
REM options -cpp -mtune=generic -march=x86-64 -g -O0 -fpre-include=/usr/include/finclude/math-vector-fortran.h
REM seed 853642816 -344014813 1134683994 1722866191 1613688628 1420549966 1646328382 964372529 -155243439 546367331 1540942307 8853351 -2122046578 -273336228 -1532624319 -1760297585 1454606778 -1241774958 1328508954 214104624 1030913478 2015048019 -2120052639 155525418 -1081240314 -1358601162 1724205452 1320421032 140682043 1265616414 -968480669 -40840008 -703416072
REM
CELL 1.54180   50.00000   50.00000   50.00000   90.00000   90.00000   90.00000
LATT -1
SFAC C  
C      1  0.4863950000000  0.4385180000000  0.5215220000000 1.0
C      1  0.5136050000000  0.4385180000000  0.4784780000000 1.0
C      1  0.4886210000000  0.4657240000000  0.5086380000000 1.0
C      1  0.5113790000000  0.4657240000000  0.4913620000000 1.0
C      1  0.5628110000000  0.4994900000000  0.5311670000000 1.0
C      1  0.4371890000000  0.4994900000000  0.4688330000000 1.0
C      1  0.4456030000000  0.4910030000000  0.5170410000000 1.0
C      1  0.5543970000000  0.4910030000000  0.4829590000000 1.0
C      1  0.5513800000000  0.5472330000000  0.5266190000000 1.0
C      1  0.4486200000000  0.5472330000000  0.4733810000000 1.0
C      1  0.5069510000000  0.4330000000000  0.4403430000000 1.0
C      1  0.4930490000000  0.4330000000000  0.5596570000000 1.0
C      1  0.5594690000000  0.5692130000000  0.4888840000000 1.0
C      1  0.4405310000000  0.5692130000000  0.5111160000000 1.0
C      1  0.5171850000000  0.4829300000000  0.4210250000000 1.0
C      1  0.4828150000000  0.4829300000000  0.5789750000000 1.0
C      1  0.4829620000000  0.4322770000000  0.4554890000000 1.0
C      1  0.5170380000000  0.4322770000000  0.5445110000000 1.0
C      1  0.4355440000000  0.4804400000000  0.4890100000000 1.0
C      1  0.5644560000000  0.4804400000000  0.5109900000000 1.0
C      1  0.4558320000000  0.5915580000000  0.5037920000000 1.0
C      1  0.5441680000000  0.5915580000000  0.4962080000000 1.0
C      1  0.4753290000000  0.4779600000000  0.4458990000000 1.0
C      1  0.5246710000000  0.4779600000000  0.5541010000000 1.0
C      1  0.5656710000000  0.4741210000000  0.4593480000000 1.0
C      1  0.4343290000000  0.4741210000000  0.5406520000000 1.0
C      1  0.5129330000000  0.5167880000000  0.4932150000000 1.0
C      1  0.4870670000000  0.5167880000000  0.5067850000000 1.0
C      1  0.5583670000000  0.4985130000000  0.4453730000000 1.0
C      1  0.4416330000000  0.4985130000000  0.5546270000000 1.0
C      1  0.4956200000000  0.4932270000000  0.4349520000000 1.0
C      1  0.5043800000000  0.4932270000000  0.5650480000000 1.0
C      1  0.4680840000000  0.4332460000000  0.5449480000000 1.0
C      1  0.5319160000000  0.4332460000000  0.4550520000000 1.0
C      1  0.5185920000000  0.5404670000000  0.4764550000000 1.0
C      1  0.4814080000000  0.5404670000000  0.5235450000000 1.0
C      1  0.5281540000000  0.5892420000000  0.5187610000000 1.0
C      1  0.4718460000000  0.5892420000000  0.4812390000000 1.0
C      1  0.4551690000000  0.5500500000000  0.5255690000000 1.0
C      1  0.5448310000000  0.5500500000000  0.4744310000000 1.0
C      1  0.5723540000000  0.5589380000000  0.5117800000000 1.0
C      1  0.4276460000000  0.5589380000000  0.4882200000000 1.0
C      1  0.4439370000000  0.5236510000000  0.4598910000000 1.0
C      1  0.5560630000000  0.5236510000000  0.5401090000000 1.0
C      1  0.4993060000000  0.5617760000000  0.4777980000000 1.0
C      1  0.5006940000000  0.5617760000000  0.5222020000000 1.0
C      1  0.5621760000000  0.4322260000000  0.5092680000000 1.0
C      1  0.4378240000000  0.4322260000000  0.4907320000000 1.0
C      1  0.4470240000000  0.4548690000000  0.4800760000000 1.0
C      1  0.5529760000000  0.4548690000000  0.5199240000000 1.0
C      1  0.4669320000000  0.5023460000000  0.5672860000000 1.0
C      1  0.5330680000000  0.5023460000000  0.4327140000000 1.0
C      1  0.5241620000000  0.4912190000000  0.4842550000000 1.0
C      1  0.4758380000000  0.4912190000000  0.5157450000000 1.0
C      1  0.4481270000000  0.4517230000000  0.5490620000000 1.0
C      1  0.5518730000000  0.4517230000000  0.4509380000000 1.0
C      1  0.4651160000000  0.4544790000000  0.4569420000000 1.0
C      1  0.5348840000000  0.4544790000000  0.5430580000000 1.0
C      1  0.4722520000000  0.5637760000000  0.4671900000000 1.0
C      1  0.5277480000000  0.5637760000000  0.5328100000000 1.0
END
