TITL C-38197-8510-117 0.000137186037786176 125000 -359.679449518716 0 0 60 (C4) n - 1
REM
REM in /home/bkarasulu/CARBON/AIRSS/Generating-Clusters/EDIP-Nigel-Params/Higher-Symm/Box-15A/Only-C60/SD-CG/FIRE-HFTN
REM
REM
REM
REM
REM
REM ./C.cell (414f73aa93bd7a1190c7fd0f31ff2f98)
REM
REM compiler GCC version 9.2.1 20190827 (Red Hat 9.2.1-1)
REM options -cpp -mtune=generic -march=x86-64 -g -O0 -fpre-include=/usr/include/finclude/math-vector-fortran.h
REM seed 391608411 -997746101 1134738214 1569685232 -622446622 -1247430244 1218160509 -465645274 -1506485083 -345371216 1762020136 -80840771 540285756 -1302831612 1344685849 1336218899 -115626988 -524464681 -75744144 1680257132 268495432 -438343317 -7286748 1156274211 1609268713 2019015529 946973817 -1036089720 1120830381 -514364530 -743195158 949550914 510461546
REM
CELL 1.54180   50.00000   50.00000   50.00000   90.00000   90.00000   90.00000
LATT -1
SFAC C  
C      1  0.5543290000000  0.5387200000000  0.4651150000000 1.0
C      1  0.5348850000000  0.5387200000000  0.5543290000000 1.0
C      1  0.4456710000000  0.5387200000000  0.5348850000000 1.0
C      1  0.4651150000000  0.5387200000000  0.4456710000000 1.0
C      1  0.4590500000000  0.5251790000000  0.5599920000000 1.0
C      1  0.4400080000000  0.5251790000000  0.4590500000000 1.0
C      1  0.5409500000000  0.5251790000000  0.4400080000000 1.0
C      1  0.5599920000000  0.5251790000000  0.5409500000000 1.0
C      1  0.4936020000000  0.4957770000000  0.4656460000000 1.0
C      1  0.5343540000000  0.4957770000000  0.4936020000000 1.0
C      1  0.5063980000000  0.4957770000000  0.5343540000000 1.0
C      1  0.4656460000000  0.4957770000000  0.5063980000000 1.0
C      1  0.4866190000000  0.5391710000000  0.5629950000000 1.0
C      1  0.4370050000000  0.5391710000000  0.4866190000000 1.0
C      1  0.5133810000000  0.5391710000000  0.4370050000000 1.0
C      1  0.5629950000000  0.5391710000000  0.5133810000000 1.0
C      1  0.5205700000000  0.5507490000000  0.5318620000000 1.0
C      1  0.4681380000000  0.5507490000000  0.5205700000000 1.0
C      1  0.4794300000000  0.5507490000000  0.4681380000000 1.0
C      1  0.5318620000000  0.5507490000000  0.4794300000000 1.0
C      1  0.5305880000000  0.5094450000000  0.5211080000000 1.0
C      1  0.4788920000000  0.5094450000000  0.5305880000000 1.0
C      1  0.4694120000000  0.5094450000000  0.4788920000000 1.0
C      1  0.5211080000000  0.5094450000000  0.4694120000000 1.0
C      1  0.5708380000000  0.4815350000000  0.5153220000000 1.0
C      1  0.4846780000000  0.4815350000000  0.5708380000000 1.0
C      1  0.4291620000000  0.4815350000000  0.4846780000000 1.0
C      1  0.5153220000000  0.4815350000000  0.4291620000000 1.0
C      1  0.5128110000000  0.5246330000000  0.5716580000000 1.0
C      1  0.4283420000000  0.5246330000000  0.5128110000000 1.0
C      1  0.4871890000000  0.5246330000000  0.4283420000000 1.0
C      1  0.5716580000000  0.5246330000000  0.4871890000000 1.0
C      1  0.5505400000000  0.4425610000000  0.4866780000000 1.0
C      1  0.5133220000000  0.4425610000000  0.5505400000000 1.0
C      1  0.4494600000000  0.4425610000000  0.5133220000000 1.0
C      1  0.4866780000000  0.4425610000000  0.4494600000000 1.0
C      1  0.4962410000000  0.4672110000000  0.4775800000000 1.0
C      1  0.5224200000000  0.4672110000000  0.4962410000000 1.0
C      1  0.5037590000000  0.4672110000000  0.5224200000000 1.0
C      1  0.4775800000000  0.4672110000000  0.5037590000000 1.0
C      1  0.4631900000000  0.4954400000000  0.5553930000000 1.0
C      1  0.4446070000000  0.4954400000000  0.4631900000000 1.0
C      1  0.5368100000000  0.4954400000000  0.4446070000000 1.0
C      1  0.5553930000000  0.4954400000000  0.5368100000000 1.0
C      1  0.4631460000000  0.5507830000000  0.4920940000000 1.0
C      1  0.5079060000000  0.5507830000000  0.4631460000000 1.0
C      1  0.5368540000000  0.5507830000000  0.5079060000000 1.0
C      1  0.4920940000000  0.5507830000000  0.5368540000000 1.0
C      1  0.5109570000000  0.4951380000000  0.5641720000000 1.0
C      1  0.4358280000000  0.4951380000000  0.5109570000000 1.0
C      1  0.4890430000000  0.4951380000000  0.4358280000000 1.0
C      1  0.5641720000000  0.4951380000000  0.4890430000000 1.0
C      1  0.4866870000000  0.4528380000000  0.5611580000000 1.0
C      1  0.4388420000000  0.4528380000000  0.4866870000000 1.0
C      1  0.5133130000000  0.4528380000000  0.4388420000000 1.0
C      1  0.5611580000000  0.4528380000000  0.5133130000000 1.0
C      1  0.4895810000000  0.4308190000000  0.5422210000000 1.0
C      1  0.4577790000000  0.4308190000000  0.4895810000000 1.0
C      1  0.5104190000000  0.4308190000000  0.4577790000000 1.0
C      1  0.5422210000000  0.4308190000000  0.5104190000000 1.0
END
