TITL C-38191-7580-564 2.09477193910932e-05 125000 -354.398527433612 0 0 60 (C1) n - 1
REM
REM in /home/bkarasulu/CARBON/AIRSS/Generating-Clusters/EDIP-Nigel-Params/Higher-Symm/Box-15A/Only-C60/SD-CG/FIRE-HFTN
REM
REM
REM
REM
REM
REM ./C.cell (414f73aa93bd7a1190c7fd0f31ff2f98)
REM
REM compiler GCC version 9.2.1 20190827 (Red Hat 9.2.1-1)
REM options -cpp -mtune=generic -march=x86-64 -g -O0 -fpre-include=/usr/include/finclude/math-vector-fortran.h
REM seed -462047849 -1517707638 -511225010 140269644 617816984 1259920416 -1338989165 1449248099 129396423 -1012159831 1107333877 -1705523299 2120207805 -602190750 345193647 258466878 -1761363523 -669025058 1906952210 1395589234 2109329513 -249275345 1012440126 -1619870305 -679489432 1913713743 190880954 -1453711337 -662645927 -853613267 -692702358 -270195834 -456013505
REM
CELL 1.54180   50.00000   50.00000   50.00000   90.00000   90.00000   90.00000
LATT -1
SFAC C  
C      1  0.5283130000000  0.4580720000000  0.4839270000000 1.0
C      1  0.5425270000000  0.4846960000000  0.4732870000000 1.0
C      1  0.5481680000000  0.5116140000000  0.4882490000000 1.0
C      1  0.5360140000000  0.5373420000000  0.4751570000000 1.0
C      1  0.5121620000000  0.5523850000000  0.4869760000000 1.0
C      1  0.4857240000000  0.5487880000000  0.4740670000000 1.0
C      1  0.4653880000000  0.5159760000000  0.4731180000000 1.0
C      1  0.4466950000000  0.4953390000000  0.4912220000000 1.0
C      1  0.4545430000000  0.4729630000000  0.4725620000000 1.0
C      1  0.4770730000000  0.4555250000000  0.4828420000000 1.0
C      1  0.5028600000000  0.4498100000000  0.4681660000000 1.0
C      1  0.5458720000000  0.5412330000000  0.5490640000000 1.0
C      1  0.5127850000000  0.5743270000000  0.5510780000000 1.0
C      1  0.4841840000000  0.5720160000000  0.5481670000000 1.0
C      1  0.4437100000000  0.5328070000000  0.5413750000000 1.0
C      1  0.4394970000000  0.5038470000000  0.5418970000000 1.0
C      1  0.4568470000000  0.4513980000000  0.5542710000000 1.0
C      1  0.4715920000000  0.4274430000000  0.5587760000000 1.0
C      1  0.4989390000000  0.4373900000000  0.5553270000000 1.0
C      1  0.5368430000000  0.4445760000000  0.5513650000000 1.0
C      1  0.5528470000000  0.4690570000000  0.5476820000000 1.0
C      1  0.5662800000000  0.5202490000000  0.5479250000000 1.0
C      1  0.5247820000000  0.5316280000000  0.5302240000000 1.0
C      1  0.5112260000000  0.5568060000000  0.5169000000000 1.0
C      1  0.4804740000000  0.5609360000000  0.5216860000000 1.0
C      1  0.4590970000000  0.5428350000000  0.5202330000000 1.0
C      1  0.4502170000000  0.4878630000000  0.5197070000000 1.0
C      1  0.4532850000000  0.4589500000000  0.5257260000000 1.0
C      1  0.4758410000000  0.4469660000000  0.5107250000000 1.0
C      1  0.5008380000000  0.4463110000000  0.5264720000000 1.0
C      1  0.5280120000000  0.4538640000000  0.5150670000000 1.0
C      1  0.5394350000000  0.4807770000000  0.5257650000000 1.0
C      1  0.5471490000000  0.5093550000000  0.5186810000000 1.0
C      1  0.4557790000000  0.5359660000000  0.5678840000000 1.0
C      1  0.4495700000000  0.4985380000000  0.5688340000000 1.0
C      1  0.4619760000000  0.4729850000000  0.5730240000000 1.0
C      1  0.4817630000000  0.4673680000000  0.5923240000000 1.0
C      1  0.5036020000000  0.4582430000000  0.5766480000000 1.0
C      1  0.5306380000000  0.4619570000000  0.5852630000000 1.0
C      1  0.5487350000000  0.4816100000000  0.5729510000000 1.0
C      1  0.5596200000000  0.5087200000000  0.5745150000000 1.0
C      1  0.5370030000000  0.5398640000000  0.5761950000000 1.0
C      1  0.5155470000000  0.5588360000000  0.5759710000000 1.0
C      1  0.4786010000000  0.5534550000000  0.5700690000000 1.0
C      1  0.5275550000000  0.4683470000000  0.4314380000000 1.0
C      1  0.5453900000000  0.4859710000000  0.4440090000000 1.0
C      1  0.5437960000000  0.5123790000000  0.4348410000000 1.0
C      1  0.5346950000000  0.5366630000000  0.4455020000000 1.0
C      1  0.5110310000000  0.5476720000000  0.4349650000000 1.0
C      1  0.4849750000000  0.5490440000000  0.4453150000000 1.0
C      1  0.4657650000000  0.5317970000000  0.4340350000000 1.0
C      1  0.4489850000000  0.5101340000000  0.4392160000000 1.0
C      1  0.4577930000000  0.4825980000000  0.4446780000000 1.0
C      1  0.4794080000000  0.4706060000000  0.4303300000000 1.0
C      1  0.5028910000000  0.4571820000000  0.4392540000000 1.0
C      1  0.5049110000000  0.4942230000000  0.4951560000000 1.0
C      1  0.4937540000000  0.5054290000000  0.4716400000000 1.0
C      1  0.5041270000000  0.5144370000000  0.5419270000000 1.0
C      1  0.4984320000000  0.4971770000000  0.5215010000000 1.0
C      1  0.5039560000000  0.5009590000000  0.4461730000000 1.0
END
