TITL C-38191-7580-203 -1.73313784317592e-06 125000 -362.524520030165 0 0 60 (C1) n - 1
REM
REM in /home/bkarasulu/CARBON/AIRSS/Generating-Clusters/EDIP-Nigel-Params/Higher-Symm/Box-15A/Only-C60/SD-CG/FIRE-HFTN
REM
REM
REM
REM
REM
REM ./C.cell (414f73aa93bd7a1190c7fd0f31ff2f98)
REM
REM compiler GCC version 9.2.1 20190827 (Red Hat 9.2.1-1)
REM options -cpp -mtune=generic -march=x86-64 -g -O0 -fpre-include=/usr/include/finclude/math-vector-fortran.h
REM seed 65757146 1936630067 -352908289 1702240766 680417922 -805960098 -1565377287 -1931029824 -1156082586 1265159196 689416879 1095688562 -1752505840 -393674226 -1872332055 -572888501 1876154399 -135352667 -400853982 715039159 -1582754604 2068862763 -679065031 -1346670431 -1936358527 -590600730 1841723964 1135351784 801342442 1913105019 2091871321 -473287415 1980918727
REM
CELL 1.54180   50.00000   50.00000   50.00000   90.00000   90.00000   90.00000
LATT -1
SFAC C  
C      1  0.4721090000000  0.5002000000000  0.5684260000000 1.0
C      1  0.4586110000000  0.5003630000000  0.4409570000000 1.0
C      1  0.5658860000000  0.5011130000000  0.4948600000000 1.0
C      1  0.4491210000000  0.5069730000000  0.5540830000000 1.0
C      1  0.4811690000000  0.5078400000000  0.4263170000000 1.0
C      1  0.5683520000000  0.5126230000000  0.5199160000000 1.0
C      1  0.4689040000000  0.4549330000000  0.5468870000000 1.0
C      1  0.4725060000000  0.4524060000000  0.4454030000000 1.0
C      1  0.5526170000000  0.4501400000000  0.5020560000000 1.0
C      1  0.5096680000000  0.5509350000000  0.5515590000000 1.0
C      1  0.4586050000000  0.5500780000000  0.4838900000000 1.0
C      1  0.5381050000000  0.5529920000000  0.4686790000000 1.0
C      1  0.4976350000000  0.5493700000000  0.4510870000000 1.0
C      1  0.5450510000000  0.5654330000000  0.5176140000000 1.0
C      1  0.4736190000000  0.5494010000000  0.5254990000000 1.0
C      1  0.4524940000000  0.5217380000000  0.4865110000000 1.0
C      1  0.5363920000000  0.5239320000000  0.4612170000000 1.0
C      1  0.5162470000000  0.5236620000000  0.5579590000000 1.0
C      1  0.4619040000000  0.4969810000000  0.4710230000000 1.0
C      1  0.5393070000000  0.4998330000000  0.4807210000000 1.0
C      1  0.4982650000000  0.4997190000000  0.5527710000000 1.0
C      1  0.4454420000000  0.4762860000000  0.4318590000000 1.0
C      1  0.5792000000000  0.4760430000000  0.4911140000000 1.0
C      1  0.4702810000000  0.4739960000000  0.5805590000000 1.0
C      1  0.4443290000000  0.4637460000000  0.5066350000000 1.0
C      1  0.5211280000000  0.4629770000000  0.4452820000000 1.0
C      1  0.5351480000000  0.4644670000000  0.5447220000000 1.0
C      1  0.4960130000000  0.4600210000000  0.4618100000000 1.0
C      1  0.5279430000000  0.4590710000000  0.5159300000000 1.0
C      1  0.4719580000000  0.4627070000000  0.5185300000000 1.0
C      1  0.5131560000000  0.4870000000000  0.5016140000000 1.0
C      1  0.4908270000000  0.4967400000000  0.5228850000000 1.0
C      1  0.4916400000000  0.4858890000000  0.4770390000000 1.0
C      1  0.4859550000000  0.4392150000000  0.5060440000000 1.0
C      1  0.4997930000000  0.4385820000000  0.4807790000000 1.0
C      1  0.5112990000000  0.4350180000000  0.5176750000000 1.0
C      1  0.4374810000000  0.5171790000000  0.5095750000000 1.0
C      1  0.5261570000000  0.5191270000000  0.4353920000000 1.0
C      1  0.5435890000000  0.5193760000000  0.5588430000000 1.0
C      1  0.4832340000000  0.5592720000000  0.5494990000000 1.0
C      1  0.4740990000000  0.5596010000000  0.4625090000000 1.0
C      1  0.5288550000000  0.5562260000000  0.4967160000000 1.0
C      1  0.5633550000000  0.5050440000000  0.5460160000000 1.0
C      1  0.4324000000000  0.5023440000000  0.5323410000000 1.0
C      1  0.5081260000000  0.5032380000000  0.4212370000000 1.0
C      1  0.5594020000000  0.4777790000000  0.5489310000000 1.0
C      1  0.4271490000000  0.4758040000000  0.5255140000000 1.0
C      1  0.5155410000000  0.4764230000000  0.4212660000000 1.0
C      1  0.5435650000000  0.4758370000000  0.4609090000000 1.0
C      1  0.5127690000000  0.4745070000000  0.5616690000000 1.0
C      1  0.4424630000000  0.4747970000000  0.4786990000000 1.0
C      1  0.4869770000000  0.5255560000000  0.5119760000000 1.0
C      1  0.4945660000000  0.5266190000000  0.4743570000000 1.0
C      1  0.5138150000000  0.5313910000000  0.4986160000000 1.0
C      1  0.5209770000000  0.5659310000000  0.4500850000000 1.0
C      1  0.5303270000000  0.5659440000000  0.5402560000000 1.0
C      1  0.4577450000000  0.5649220000000  0.5080270000000 1.0
C      1  0.4900610000000  0.4559470000000  0.5677390000000 1.0
C      1  0.4444140000000  0.4569250000000  0.4545890000000 1.0
C      1  0.5622550000000  0.4577870000000  0.4753290000000 1.0
END
