TITL C-38199-1586-73 2.30467746809637e-05 125000 -358.335778950746 0 0 60 (D2) n - 1
REM
REM in /home/bkarasulu/CARBON/AIRSS/Generating-Clusters/EDIP-Nigel-Params/Higher-Symm/Box-15A/Only-C60/SD-CG/FIRE-HFTN
REM
REM
REM
REM
REM
REM ./C.cell (414f73aa93bd7a1190c7fd0f31ff2f98)
REM
REM compiler GCC version 9.2.1 20190827 (Red Hat 9.2.1-1)
REM options -cpp -mtune=generic -march=x86-64 -g -O0 -fpre-include=/usr/include/finclude/math-vector-fortran.h
REM seed -1069025451 820995048 1275896290 101450504 240973163 1891714952 1576541820 -254076687 1300530928 1699710707 -12218153 1540239893 2109897218 -1942004743 -1601109951 1202155451 -1725066739 2060827922 -592489030 -1038202661 577008534 -1872944439 -1033673449 -1415326374 -51023125 -1260649592 1266070784 855379168 -349621172 1003616731 -873652144 -1626311756 -419153205
REM
CELL 1.54180   50.00000   50.00000   50.00000   90.00000   90.00000   90.00000
LATT -1
SFAC C  
C      1  0.4865740000000  0.4358120000000  0.5357740000000 1.0
C      1  0.4865740000000  0.5641880000000  0.4642260000000 1.0
C      1  0.5134260000000  0.4358120000000  0.4642260000000 1.0
C      1  0.5134260000000  0.5641880000000  0.5357740000000 1.0
C      1  0.4742600000000  0.4928370000000  0.4882130000000 1.0
C      1  0.4742600000000  0.5071630000000  0.5117870000000 1.0
C      1  0.5257400000000  0.4928370000000  0.5117870000000 1.0
C      1  0.5257400000000  0.5071630000000  0.4882130000000 1.0
C      1  0.5486900000000  0.5036490000000  0.4586850000000 1.0
C      1  0.5486900000000  0.4963510000000  0.5413150000000 1.0
C      1  0.4513100000000  0.5036490000000  0.5413150000000 1.0
C      1  0.4513100000000  0.4963510000000  0.4586850000000 1.0
C      1  0.4676240000000  0.5513760000000  0.5013730000000 1.0
C      1  0.4676240000000  0.4486240000000  0.4986270000000 1.0
C      1  0.5323760000000  0.5513760000000  0.4986270000000 1.0
C      1  0.5323760000000  0.4486240000000  0.5013730000000 1.0
C      1  0.5542800000000  0.4512020000000  0.5228830000000 1.0
C      1  0.5542800000000  0.5487980000000  0.4771170000000 1.0
C      1  0.4457200000000  0.4512020000000  0.4771170000000 1.0
C      1  0.4457200000000  0.5487980000000  0.5228830000000 1.0
C      1  0.4591900000000  0.5329550000000  0.5444500000000 1.0
C      1  0.4591900000000  0.4670450000000  0.4555500000000 1.0
C      1  0.5408100000000  0.5329550000000  0.4555500000000 1.0
C      1  0.5408100000000  0.4670450000000  0.5444500000000 1.0
C      1  0.5073120000000  0.4589650000000  0.5402690000000 1.0
C      1  0.5073120000000  0.5410350000000  0.4597310000000 1.0
C      1  0.4926880000000  0.4589650000000  0.4597310000000 1.0
C      1  0.4926880000000  0.5410350000000  0.5402690000000 1.0
C      1  0.5008150000000  0.5135990000000  0.5825580000000 1.0
C      1  0.5008150000000  0.4864010000000  0.4174420000000 1.0
C      1  0.4991850000000  0.5135990000000  0.4174420000000 1.0
C      1  0.4991850000000  0.4864010000000  0.5825580000000 1.0
C      1  0.4230630000000  0.5352340000000  0.5138510000000 1.0
C      1  0.4230630000000  0.4647660000000  0.4861490000000 1.0
C      1  0.5769370000000  0.5352340000000  0.4861490000000 1.0
C      1  0.5769370000000  0.4647660000000  0.5138510000000 1.0
C      1  0.5134970000000  0.4237310000000  0.4930350000000 1.0
C      1  0.5134970000000  0.5762690000000  0.5069650000000 1.0
C      1  0.4865030000000  0.4237310000000  0.5069650000000 1.0
C      1  0.4865030000000  0.5762690000000  0.4930350000000 1.0
C      1  0.4635940000000  0.5221040000000  0.4496650000000 1.0
C      1  0.4635940000000  0.4778960000000  0.5503350000000 1.0
C      1  0.5364060000000  0.5221040000000  0.5503350000000 1.0
C      1  0.5364060000000  0.4778960000000  0.4496650000000 1.0
C      1  0.5874860000000  0.5126080000000  0.4957120000000 1.0
C      1  0.5874860000000  0.4873920000000  0.5042880000000 1.0
C      1  0.4125140000000  0.5126080000000  0.5042880000000 1.0
C      1  0.4125140000000  0.4873920000000  0.4957120000000 1.0
C      1  0.5118530000000  0.4680480000000  0.5103630000000 1.0
C      1  0.5118530000000  0.5319520000000  0.4896370000000 1.0
C      1  0.4881470000000  0.4680480000000  0.4896370000000 1.0
C      1  0.4881470000000  0.5319520000000  0.5103630000000 1.0
C      1  0.4919790000000  0.4794260000000  0.5560390000000 1.0
C      1  0.4919790000000  0.5205740000000  0.4439610000000 1.0
C      1  0.5080210000000  0.4794260000000  0.4439610000000 1.0
C      1  0.5080210000000  0.5205740000000  0.5560390000000 1.0
C      1  0.5386790000000  0.4527580000000  0.4648560000000 1.0
C      1  0.5386790000000  0.5472420000000  0.5351440000000 1.0
C      1  0.4613210000000  0.4527580000000  0.5351440000000 1.0
C      1  0.4613210000000  0.5472420000000  0.4648560000000 1.0
END
