TITL C-38195-9455-481 -9.53075597205416e-07 125000 -348.646185569806 0 0 60 (Td) n - 1
REM
REM in /home/bkarasulu/CARBON/AIRSS/Generating-Clusters/EDIP-Nigel-Params/Higher-Symm/Box-15A/Only-C60/SD-CG/FIRE-HFTN
REM
REM
REM
REM
REM
REM ./C.cell (414f73aa93bd7a1190c7fd0f31ff2f98)
REM
REM compiler GCC version 9.2.1 20190827 (Red Hat 9.2.1-1)
REM options -cpp -mtune=generic -march=x86-64 -g -O0 -fpre-include=/usr/include/finclude/math-vector-fortran.h
REM seed -1148341148 1686530829 217227632 -1425144887 -2006680866 -1398523867 -802978320 259877748 -1959882320 1132125679 -1901791989 270006265 7123808 -752814253 -1582148671 -1550539591 -1236498447 1111873548 -1061059729 1283168319 -289294573 -312494896 -922636615 1139239169 1211280149 1686998629 1042326082 1606638528 -1146051422 27605536 -1979377355 -2005316564 -2063469738
REM
CELL 1.54180   50.00000   50.00000   50.00000   90.00000   90.00000   90.00000
LATT -1
SFAC C  
C      1  0.4377130000000  0.5094090000000  0.5308900000000 1.0
C      1  0.5308900000000  0.4377130000000  0.5094090000000 1.0
C      1  0.5094090000000  0.5308900000000  0.4377130000000 1.0
C      1  0.5622870000000  0.4905910000000  0.5308900000000 1.0
C      1  0.5622870000000  0.5094090000000  0.4691100000000 1.0
C      1  0.4377130000000  0.4905910000000  0.4691100000000 1.0
C      1  0.4691100000000  0.5622870000000  0.5094090000000 1.0
C      1  0.4691100000000  0.4377130000000  0.4905910000000 1.0
C      1  0.5308900000000  0.5622870000000  0.4905910000000 1.0
C      1  0.4905910000000  0.4691100000000  0.4377130000000 1.0
C      1  0.4905910000000  0.5308900000000  0.5622870000000 1.0
C      1  0.5094090000000  0.4691100000000  0.5622870000000 1.0
C      1  0.5094090000000  0.4377130000000  0.5308900000000 1.0
C      1  0.4377130000000  0.5308900000000  0.5094090000000 1.0
C      1  0.5308900000000  0.5094090000000  0.4377130000000 1.0
C      1  0.4905910000000  0.5622870000000  0.5308900000000 1.0
C      1  0.5094090000000  0.5622870000000  0.4691100000000 1.0
C      1  0.4905910000000  0.4377130000000  0.4691100000000 1.0
C      1  0.5622870000000  0.4691100000000  0.5094090000000 1.0
C      1  0.4377130000000  0.4691100000000  0.4905910000000 1.0
C      1  0.5622870000000  0.5308900000000  0.4905910000000 1.0
C      1  0.4691100000000  0.4905910000000  0.4377130000000 1.0
C      1  0.5308900000000  0.4905910000000  0.5622870000000 1.0
C      1  0.4691100000000  0.5094090000000  0.5622870000000 1.0
C      1  0.5898340000000  0.5010510000000  0.5222600000000 1.0
C      1  0.5222600000000  0.5898340000000  0.5010510000000 1.0
C      1  0.5010510000000  0.5222600000000  0.5898340000000 1.0
C      1  0.4101660000000  0.4989490000000  0.5222600000000 1.0
C      1  0.4101660000000  0.5010510000000  0.4777400000000 1.0
C      1  0.5898340000000  0.4989490000000  0.4777400000000 1.0
C      1  0.4777400000000  0.4101660000000  0.5010510000000 1.0
C      1  0.4777400000000  0.5898340000000  0.4989490000000 1.0
C      1  0.5222600000000  0.4101660000000  0.4989490000000 1.0
C      1  0.4989490000000  0.4777400000000  0.5898340000000 1.0
C      1  0.4989490000000  0.5222600000000  0.4101660000000 1.0
C      1  0.5010510000000  0.4777400000000  0.4101660000000 1.0
C      1  0.5010510000000  0.5898340000000  0.5222600000000 1.0
C      1  0.5898340000000  0.5222600000000  0.5010510000000 1.0
C      1  0.5222600000000  0.5010510000000  0.5898340000000 1.0
C      1  0.4989490000000  0.4101660000000  0.5222600000000 1.0
C      1  0.5010510000000  0.4101660000000  0.4777400000000 1.0
C      1  0.4989490000000  0.5898340000000  0.4777400000000 1.0
C      1  0.4101660000000  0.4777400000000  0.5010510000000 1.0
C      1  0.5898340000000  0.4777400000000  0.4989490000000 1.0
C      1  0.4101660000000  0.5222600000000  0.4989490000000 1.0
C      1  0.4777400000000  0.4989490000000  0.5898340000000 1.0
C      1  0.5222600000000  0.4989490000000  0.4101660000000 1.0
C      1  0.4777400000000  0.5010510000000  0.4101660000000 1.0
C      1  0.4428350000000  0.5176250000000  0.5571650000000 1.0
C      1  0.5571650000000  0.5176250000000  0.4428350000000 1.0
C      1  0.5571650000000  0.4428350000000  0.5176250000000 1.0
C      1  0.4428350000000  0.5571650000000  0.5176250000000 1.0
C      1  0.5176250000000  0.4428350000000  0.5571650000000 1.0
C      1  0.5176250000000  0.5571650000000  0.4428350000000 1.0
C      1  0.5571650000000  0.5571650000000  0.4823750000000 1.0
C      1  0.4823750000000  0.5571650000000  0.5571650000000 1.0
C      1  0.4428350000000  0.4428350000000  0.4823750000000 1.0
C      1  0.4823750000000  0.4428350000000  0.4428350000000 1.0
C      1  0.5571650000000  0.4823750000000  0.5571650000000 1.0
C      1  0.4428350000000  0.4823750000000  0.4428350000000 1.0
END
