TITL C-38199-1586-27 5.4512355843863e-07 125000 -364.028116063151 0 0 60 (C1) n - 1
REM
REM in /home/bkarasulu/CARBON/AIRSS/Generating-Clusters/EDIP-Nigel-Params/Higher-Symm/Box-15A/Only-C60/SD-CG/FIRE-HFTN
REM
REM
REM
REM
REM
REM ./C.cell (414f73aa93bd7a1190c7fd0f31ff2f98)
REM
REM compiler GCC version 9.2.1 20190827 (Red Hat 9.2.1-1)
REM options -cpp -mtune=generic -march=x86-64 -g -O0 -fpre-include=/usr/include/finclude/math-vector-fortran.h
REM seed -689726181 -2030513464 -1015294968 2123562235 186945773 890860338 -537937853 -890301264 -187219174 1971626921 -484639847 817505219 1821887990 -918648008 -541242772 -1542312918 -918384455 -1356673790 1017963337 -1523542804 -2122319340 1129891414 744645503 446892056 -488076475 -2074232109 1933032176 401958788 1611343934 740821128 -1301715032 -2023439624 482145393
REM
CELL 1.54180   50.00000   50.00000   50.00000   90.00000   90.00000   90.00000
LATT -1
SFAC C  
C      1  0.5003510000000  0.5410640000000  0.4458460000000 1.0
C      1  0.4606570000000  0.5096700000000  0.5080370000000 1.0
C      1  0.5216080000000  0.4631540000000  0.5155630000000 1.0
C      1  0.4873940000000  0.4513580000000  0.4655120000000 1.0
C      1  0.4813480000000  0.5282240000000  0.5218980000000 1.0
C      1  0.5305370000000  0.4559870000000  0.5651450000000 1.0
C      1  0.5400620000000  0.4684130000000  0.5387800000000 1.0
C      1  0.5336160000000  0.5281050000000  0.4610110000000 1.0
C      1  0.4518360000000  0.4818330000000  0.4662150000000 1.0
C      1  0.4645450000000  0.5533130000000  0.5165100000000 1.0
C      1  0.4611270000000  0.4568680000000  0.4771660000000 1.0
C      1  0.5393960000000  0.5460880000000  0.4841490000000 1.0
C      1  0.5164110000000  0.5429650000000  0.5301580000000 1.0
C      1  0.4580290000000  0.5325760000000  0.4711110000000 1.0
C      1  0.5377200000000  0.4590130000000  0.4900690000000 1.0
C      1  0.5051140000000  0.4420390000000  0.5561810000000 1.0
C      1  0.4705860000000  0.5351460000000  0.4454280000000 1.0
C      1  0.5298270000000  0.4777910000000  0.4663770000000 1.0
C      1  0.5467330000000  0.5010600000000  0.4661800000000 1.0
C      1  0.5399010000000  0.4975700000000  0.5422420000000 1.0
C      1  0.4579010000000  0.4808330000000  0.5230630000000 1.0
C      1  0.4634870000000  0.5566590000000  0.4859430000000 1.0
C      1  0.4633570000000  0.4556200000000  0.5061200000000 1.0
C      1  0.5407200000000  0.5340490000000  0.5112550000000 1.0
C      1  0.4314060000000  0.5234580000000  0.4784260000000 1.0
C      1  0.4802870000000  0.4327200000000  0.5135820000000 1.0
C      1  0.5154440000000  0.4817460000000  0.4413580000000 1.0
C      1  0.5698330000000  0.4957740000000  0.4833100000000 1.0
C      1  0.5680880000000  0.5024750000000  0.5373440000000 1.0
C      1  0.4277870000000  0.4867710000000  0.5252010000000 1.0
C      1  0.5274420000000  0.5855660000000  0.5088660000000 1.0
C      1  0.5287660000000  0.4291340000000  0.4877240000000 1.0
C      1  0.4836950000000  0.5889380000000  0.4904540000000 1.0
C      1  0.4700160000000  0.5127990000000  0.4270270000000 1.0
C      1  0.4882070000000  0.4680930000000  0.5651000000000 1.0
C      1  0.5071900000000  0.5273100000000  0.5580220000000 1.0
C      1  0.4284250000000  0.5153910000000  0.5285750000000 1.0
C      1  0.4833250000000  0.4134070000000  0.4928800000000 1.0
C      1  0.5144830000000  0.4790630000000  0.5785830000000 1.0
C      1  0.5742760000000  0.4742780000000  0.5260600000000 1.0
C      1  0.5847240000000  0.5169160000000  0.4951370000000 1.0
C      1  0.4272830000000  0.4940360000000  0.4765530000000 1.0
C      1  0.5240740000000  0.5706040000000  0.4849670000000 1.0
C      1  0.5259120000000  0.4178750000000  0.5146130000000 1.0
C      1  0.4822810000000  0.5789820000000  0.5189020000000 1.0
C      1  0.4814270000000  0.5157210000000  0.5490770000000 1.0
C      1  0.4899690000000  0.4676720000000  0.4408640000000 1.0
C      1  0.4952300000000  0.5156100000000  0.4140060000000 1.0
C      1  0.4785970000000  0.4867850000000  0.5447110000000 1.0
C      1  0.5175680000000  0.5092660000000  0.4304860000000 1.0
C      1  0.5671840000000  0.4696640000000  0.4973350000000 1.0
C      1  0.4977300000000  0.5698040000000  0.4716350000000 1.0
C      1  0.5262720000000  0.5055400000000  0.5665930000000 1.0
C      1  0.4665890000000  0.4863910000000  0.4410400000000 1.0
C      1  0.4313080000000  0.5345790000000  0.5066920000000 1.0
C      1  0.4157820000000  0.4825980000000  0.4999620000000 1.0
C      1  0.5683970000000  0.5240160000000  0.5173380000000 1.0
C      1  0.5012480000000  0.4265550000000  0.4748620000000 1.0
C      1  0.5102490000000  0.5726240000000  0.5271570000000 1.0
C      1  0.5072440000000  0.4384360000000  0.5255970000000 1.0
END
