TITL C-38196-2854-192 2.26182802103247e-05 125000 -356.008656381199 0 0 60 (C1) n - 1
REM
REM in /home/bkarasulu/CARBON/AIRSS/Generating-Clusters/EDIP-Nigel-Params/Higher-Symm/Box-15A/Only-C60/SD-CG/FIRE-HFTN
REM
REM
REM
REM
REM
REM ./C.cell (414f73aa93bd7a1190c7fd0f31ff2f98)
REM
REM compiler GCC version 9.2.1 20190827 (Red Hat 9.2.1-1)
REM options -cpp -mtune=generic -march=x86-64 -g -O0 -fpre-include=/usr/include/finclude/math-vector-fortran.h
REM seed -1373361564 -2061077580 1000324907 -525500884 1250884407 511534075 -1118664422 1057520464 700740957 309910125 -1862457912 -2132775667 1787518530 220803947 105215498 1162041261 1700450161 1467842108 -2128990751 617836616 1905525278 1106288300 278901109 2005723166 1826106545 402475118 1568333244 1844575465 1837478913 -1533620922 -581865593 1655975387 -116369863
REM
CELL 1.54180   50.00000   50.00000   50.00000   90.00000   90.00000   90.00000
LATT -1
SFAC C  
C      1  0.4281880000000  0.4994610000000  0.4511470000000 1.0
C      1  0.4279130000000  0.4533580000000  0.4854580000000 1.0
C      1  0.4283640000000  0.4718400000000  0.5398660000000 1.0
C      1  0.4282320000000  0.5288560000000  0.5389560000000 1.0
C      1  0.4287310000000  0.5461330000000  0.4843360000000 1.0
C      1  0.5215110000000  0.4463020000000  0.5418060000000 1.0
C      1  0.5225730000000  0.5247850000000  0.5625970000000 1.0
C      1  0.5213430000000  0.5685530000000  0.4976940000000 1.0
C      1  0.5223650000000  0.5157350000000  0.4346390000000 1.0
C      1  0.5227460000000  0.4437620000000  0.4638700000000 1.0
C      1  0.5270450000000  0.4530540000000  0.4921930000000 1.0
C      1  0.5284360000000  0.4761480000000  0.5424960000000 1.0
C      1  0.5260000000000  0.5348300000000  0.5345150000000 1.0
C      1  0.5277590000000  0.5458080000000  0.4787140000000 1.0
C      1  0.5270460000000  0.4924800000000  0.4531360000000 1.0
C      1  0.5382610000000  0.5680870000000  0.5215240000000 1.0
C      1  0.5400920000000  0.5365880000000  0.4440140000000 1.0
C      1  0.5398060000000  0.4600350000000  0.4461260000000 1.0
C      1  0.5362440000000  0.4331840000000  0.5196990000000 1.0
C      1  0.5407320000000  0.5016500000000  0.5643370000000 1.0
C      1  0.4498400000000  0.4379070000000  0.4793160000000 1.0
C      1  0.4503300000000  0.4631100000000  0.5539430000000 1.0
C      1  0.4499730000000  0.5375600000000  0.5533830000000 1.0
C      1  0.4508770000000  0.5611710000000  0.4779550000000 1.0
C      1  0.4501350000000  0.4997700000000  0.4345780000000 1.0
C      1  0.5650580000000  0.4702720000000  0.4585520000000 1.0
C      1  0.5638090000000  0.4432400000000  0.5154470000000 1.0
C      1  0.5627740000000  0.5049600000000  0.5433290000000 1.0
C      1  0.5633640000000  0.5533360000000  0.5197410000000 1.0
C      1  0.5620170000000  0.5248780000000  0.4602140000000 1.0
C      1  0.5071140000000  0.4957140000000  0.4757090000000 1.0
C      1  0.5070010000000  0.4750920000000  0.4970580000000 1.0
C      1  0.5084610000000  0.4888930000000  0.5229310000000 1.0
C      1  0.5074660000000  0.5182320000000  0.5175790000000 1.0
C      1  0.5093190000000  0.5223780000000  0.4886850000000 1.0
C      1  0.4925850000000  0.5658470000000  0.5038250000000 1.0
C      1  0.4937840000000  0.5230540000000  0.4380990000000 1.0
C      1  0.4936120000000  0.4485840000000  0.4587360000000 1.0
C      1  0.4924320000000  0.4446480000000  0.5361790000000 1.0
C      1  0.4937850000000  0.5170080000000  0.5642630000000 1.0
C      1  0.4888130000000  0.4721300000000  0.4429210000000 1.0
C      1  0.4878360000000  0.4369950000000  0.5088350000000 1.0
C      1  0.4900340000000  0.4885070000000  0.5631270000000 1.0
C      1  0.4883010000000  0.5559090000000  0.5305740000000 1.0
C      1  0.4907660000000  0.5456010000000  0.4560380000000 1.0
C      1  0.4462370000000  0.5152950000000  0.5207900000000 1.0
C      1  0.4462660000000  0.5243110000000  0.4916620000000 1.0
C      1  0.4458910000000  0.4995340000000  0.4740510000000 1.0
C      1  0.4457490000000  0.4751430000000  0.4922170000000 1.0
C      1  0.4461110000000  0.4848900000000  0.5211040000000 1.0
C      1  0.5544150000000  0.4969410000000  0.4658000000000 1.0
C      1  0.5559550000000  0.4641190000000  0.4950290000000 1.0
C      1  0.5575760000000  0.4774350000000  0.5314780000000 1.0
C      1  0.5537200000000  0.5264460000000  0.5252750000000 1.0
C      1  0.5579960000000  0.5414160000000  0.4838410000000 1.0
C      1  0.4775630000000  0.4683340000000  0.5472590000000 1.0
C      1  0.4772490000000  0.5342800000000  0.5457870000000 1.0
C      1  0.4780460000000  0.5528900000000  0.4807520000000 1.0
C      1  0.4772970000000  0.4982890000000  0.4430760000000 1.0
C      1  0.4770550000000  0.4452300000000  0.4837340000000 1.0
END
