TITL C-38188-488-53 -0.000460011606528572 125000 -351.040624976032 0 0 60 (C1) n - 1
REM
REM in /home/bkarasulu/CARBON/AIRSS/Generating-Clusters/EDIP-Nigel-Params/Higher-Symm/Box-15A/Only-C60/SD-CG/FIRE-HFTN
REM
REM
REM
REM
REM
REM ./C.cell (414f73aa93bd7a1190c7fd0f31ff2f98)
REM
REM compiler GCC version 9.2.1 20190827 (Red Hat 9.2.1-1)
REM options -cpp -mtune=generic -march=x86-64 -g -O0 -fpre-include=/usr/include/finclude/math-vector-fortran.h
REM seed -552085080 -351065733 -1982075332 1670654466 1398936074 2041399212 -433142585 -1138344306 1917468046 271705352 2130220792 -1056712699 1882775274 1962938313 334900484 1195347280 1499686022 -1596024936 1153586662 437048008 -1274671097 -1057044419 1077184301 639585023 -1500485876 1048789301 1095986816 -1232380311 -1357537352 1350587237 18080582 968522690 1612835251
REM
CELL 1.54180   50.00000   50.00000   50.00000   90.00000   90.00000   90.00000
LATT -1
SFAC C  
C      1  0.4661080000000  0.4474400000000  0.4433460000000 1.0
C      1  0.4469090000000  0.4524100000000  0.4650980000000 1.0
C      1  0.4392460000000  0.4747300000000  0.4478800000000 1.0
C      1  0.5307930000000  0.4512880000000  0.5541630000000 1.0
C      1  0.5297160000000  0.5491710000000  0.4517700000000 1.0
C      1  0.4686860000000  0.5512520000000  0.5496390000000 1.0
C      1  0.5485250000000  0.4437630000000  0.5220690000000 1.0
C      1  0.5544470000000  0.5545130000000  0.4802780000000 1.0
C      1  0.4506990000000  0.5490130000000  0.5262790000000 1.0
C      1  0.5531520000000  0.4657440000000  0.5414270000000 1.0
C      1  0.5521350000000  0.5315260000000  0.4597520000000 1.0
C      1  0.4446750000000  0.5227680000000  0.5392520000000 1.0
C      1  0.4784170000000  0.5499490000000  0.4464440000000 1.0
C      1  0.4546130000000  0.5518570000000  0.4640970000000 1.0
C      1  0.4459450000000  0.5299620000000  0.4457080000000 1.0
C      1  0.5262670000000  0.5459640000000  0.5587900000000 1.0
C      1  0.5230260000000  0.4531910000000  0.4415320000000 1.0
C      1  0.4772610000000  0.4585880000000  0.5632780000000 1.0
C      1  0.5547870000000  0.5557270000000  0.5349000000000 1.0
C      1  0.5491570000000  0.4496070000000  0.4688220000000 1.0
C      1  0.4502940000000  0.4454040000000  0.5386340000000 1.0
C      1  0.5532970000000  0.5326810000000  0.5537140000000 1.0
C      1  0.5450400000000  0.4731910000000  0.4499180000000 1.0
C      1  0.4527290000000  0.4713240000000  0.5518010000000 1.0
C      1  0.5624530000000  0.5118660000000  0.5103920000000 1.0
C      1  0.4894460000000  0.5122520000000  0.5545970000000 1.0
C      1  0.5133710000000  0.5670060000000  0.5108700000000 1.0
C      1  0.4449040000000  0.5070250000000  0.4866460000000 1.0
C      1  0.4449860000000  0.4845580000000  0.5038190000000 1.0
C      1  0.5587670000000  0.4915840000000  0.4899410000000 1.0
C      1  0.5055780000000  0.5117870000000  0.4322490000000 1.0
C      1  0.5117030000000  0.4952570000000  0.5615980000000 1.0
C      1  0.4891080000000  0.4878750000000  0.4333030000000 1.0
C      1  0.4879500000000  0.5673020000000  0.4969470000000 1.0
C      1  0.4918090000000  0.4425780000000  0.5168220000000 1.0
C      1  0.5069160000000  0.4419930000000  0.4921050000000 1.0
C      1  0.5038940000000  0.5341360000000  0.4521250000000 1.0
C      1  0.4541340000000  0.4942550000000  0.5310120000000 1.0
C      1  0.5050200000000  0.4671060000000  0.5540570000000 1.0
C      1  0.5466400000000  0.5012740000000  0.4647580000000 1.0
C      1  0.5570380000000  0.5041380000000  0.5389820000000 1.0
C      1  0.4477740000000  0.5024530000000  0.4576030000000 1.0
C      1  0.5352520000000  0.4509030000000  0.4957790000000 1.0
C      1  0.4968450000000  0.5397080000000  0.5488070000000 1.0
C      1  0.4935840000000  0.4605120000000  0.4469400000000 1.0
C      1  0.4629490000000  0.4401860000000  0.5127340000000 1.0
C      1  0.4641770000000  0.5491190000000  0.4980110000000 1.0
C      1  0.5412890000000  0.5540920000000  0.5078880000000 1.0
C      1  0.5325550000000  0.4802020000000  0.5010310000000 1.0
C      1  0.4831130000000  0.4997410000000  0.5273750000000 1.0
C      1  0.4603710000000  0.4616970000000  0.4908170000000 1.0
C      1  0.4712630000000  0.5196000000000  0.4962000000000 1.0
C      1  0.5345760000000  0.5247190000000  0.5062740000000 1.0
C      1  0.5089410000000  0.4890530000000  0.4846250000000 1.0
C      1  0.4998070000000  0.5177340000000  0.4817380000000 1.0
C      1  0.5014430000000  0.5391760000000  0.5197360000000 1.0
C      1  0.4924150000000  0.4648040000000  0.4782770000000 1.0
C      1  0.4999660000000  0.4721610000000  0.5243380000000 1.0
C      1  0.5276080000000  0.5010950000000  0.5363500000000 1.0
C      1  0.4764270000000  0.4999910000000  0.4566610000000 1.0
END
