TITL C-38187-2739-121 8.71336185287907e-06 125000 -360.556333469594 0 0 60 (C1) n - 1
REM
REM in /home/bkarasulu/CARBON/AIRSS/Generating-Clusters/EDIP-Nigel-Params/Higher-Symm/Box-15A/Only-C60/SD-CG/FIRE-HFTN
REM
REM
REM
REM
REM
REM ./C.cell (414f73aa93bd7a1190c7fd0f31ff2f98)
REM
REM compiler GCC version 9.2.1 20190827 (Red Hat 9.2.1-1)
REM options -cpp -mtune=generic -march=x86-64 -g -O0 -fpre-include=/usr/include/finclude/math-vector-fortran.h
REM seed -1857742897 -1379596482 -1460200304 180881637 -1229890934 1268912700 -990811775 982156999 636649786 -191234282 -2020147536 2066428091 1057776230 429094479 1451135593 315200362 -759024259 -389730258 211929879 239943733 268747065 -2068096738 733208240 319371203 1757383059 276721472 -1123819289 -622559986 1419072496 8681177 1230296749 2117436720 1322739667
REM
CELL 1.54180   50.00000   50.00000   50.00000   90.00000   90.00000   90.00000
LATT -1
SFAC C  
C      1  0.5627630000000  0.5158000000000  0.5020740000000 1.0
C      1  0.5637170000000  0.4971440000000  0.4795950000000 1.0
C      1  0.5570420000000  0.4902820000000  0.5169200000000 1.0
C      1  0.5445720000000  0.5346730000000  0.5619470000000 1.0
C      1  0.5335060000000  0.5423270000000  0.4422270000000 1.0
C      1  0.5362230000000  0.4327350000000  0.4977240000000 1.0
C      1  0.4887050000000  0.5112570000000  0.5334170000000 1.0
C      1  0.4754590000000  0.5213640000000  0.4739020000000 1.0
C      1  0.4777740000000  0.4633160000000  0.4900500000000 1.0
C      1  0.4848960000000  0.4768520000000  0.4461900000000 1.0
C      1  0.4802100000000  0.4603570000000  0.5561700000000 1.0
C      1  0.4853750000000  0.5640550000000  0.5068690000000 1.0
C      1  0.4491600000000  0.4472560000000  0.5200950000000 1.0
C      1  0.4543830000000  0.5403760000000  0.5342850000000 1.0
C      1  0.4470280000000  0.4989000000000  0.4403860000000 1.0
C      1  0.5220690000000  0.4689210000000  0.5779690000000 1.0
C      1  0.5230110000000  0.5801520000000  0.4856060000000 1.0
C      1  0.5251710000000  0.4519970000000  0.4396550000000 1.0
C      1  0.4582140000000  0.4735540000000  0.4367580000000 1.0
C      1  0.4588810000000  0.4673540000000  0.5388740000000 1.0
C      1  0.4623360000000  0.5467480000000  0.5071670000000 1.0
C      1  0.4872080000000  0.5353110000000  0.4337890000000 1.0
C      1  0.4905590000000  0.4212340000000  0.5060810000000 1.0
C      1  0.4977220000000  0.5447560000000  0.5615060000000 1.0
C      1  0.4639850000000  0.5198280000000  0.4311690000000 1.0
C      1  0.4668950000000  0.4253540000000  0.5200220000000 1.0
C      1  0.4728690000000  0.5523410000000  0.5517460000000 1.0
C      1  0.5243770000000  0.5515010000000  0.5527880000000 1.0
C      1  0.5143880000000  0.5261710000000  0.4307840000000 1.0
C      1  0.5166610000000  0.4274430000000  0.5164540000000 1.0
C      1  0.4389950000000  0.4992220000000  0.5160070000000 1.0
C      1  0.4350640000000  0.5044800000000  0.4677450000000 1.0
C      1  0.4334780000000  0.4855790000000  0.4920660000000 1.0
C      1  0.4954470000000  0.5067900000000  0.5624280000000 1.0
C      1  0.4994880000000  0.5408940000000  0.4693960000000 1.0
C      1  0.4905840000000  0.4415700000000  0.4741310000000 1.0
C      1  0.4572760000000  0.5114020000000  0.5334240000000 1.0
C      1  0.4471720000000  0.5299530000000  0.4759940000000 1.0
C      1  0.4473650000000  0.4590680000000  0.4921890000000 1.0
C      1  0.5299480000000  0.5661650000000  0.5297100000000 1.0
C      1  0.5203970000000  0.4991080000000  0.4326710000000 1.0
C      1  0.5202880000000  0.4407640000000  0.5405510000000 1.0
C      1  0.5007870000000  0.5384510000000  0.5181250000000 1.0
C      1  0.4856360000000  0.4902930000000  0.4745180000000 1.0
C      1  0.4909480000000  0.4630760000000  0.5193260000000 1.0
C      1  0.4981660000000  0.4506560000000  0.4475440000000 1.0
C      1  0.4962720000000  0.4789210000000  0.5714460000000 1.0
C      1  0.4972970000000  0.5691810000000  0.4806490000000 1.0
C      1  0.5344090000000  0.4877420000000  0.5358380000000 1.0
C      1  0.5439260000000  0.5382100000000  0.4914100000000 1.0
C      1  0.5386490000000  0.4817670000000  0.4752080000000 1.0
C      1  0.5431730000000  0.4558160000000  0.4861870000000 1.0
C      1  0.5385370000000  0.5095070000000  0.5541990000000 1.0
C      1  0.5495250000000  0.5425460000000  0.4637100000000 1.0
C      1  0.5071400000000  0.4891310000000  0.5194310000000 1.0
C      1  0.5157060000000  0.5272760000000  0.4922310000000 1.0
C      1  0.5131320000000  0.4963860000000  0.4895230000000 1.0
C      1  0.5398870000000  0.5658680000000  0.5034410000000 1.0
C      1  0.5331540000000  0.4781390000000  0.4460490000000 1.0
C      1  0.5329970000000  0.4626770000000  0.5526350000000 1.0
END
