TITL C-38195-9455-202 0.000735705650399426 125000 -360.816025071238 0 0 60 (C1) n - 1
REM
REM in /home/bkarasulu/CARBON/AIRSS/Generating-Clusters/EDIP-Nigel-Params/Higher-Symm/Box-15A/Only-C60/SD-CG/FIRE-HFTN
REM
REM
REM
REM
REM
REM ./C.cell (414f73aa93bd7a1190c7fd0f31ff2f98)
REM
REM compiler GCC version 9.2.1 20190827 (Red Hat 9.2.1-1)
REM options -cpp -mtune=generic -march=x86-64 -g -O0 -fpre-include=/usr/include/finclude/math-vector-fortran.h
REM seed 130802906 1303376094 998762423 -373943648 -1702526130 1008326540 -1544977105 565571656 -1299440010 215208038 -1853424255 -287316834 1153569605 -1142405947 -1376404536 742393889 460018265 -2074139669 2079378383 425614447 1151770439 1729085347 -1611270942 -2028142095 1432374002 -1777988861 1017478574 -1872264720 -630656799 167628580 -522315876 1214734397 -1574934437
REM
CELL 1.54180   50.00000   50.00000   50.00000   90.00000   90.00000   90.00000
LATT -1
SFAC C  
C      1  0.4886910000000  0.5340630000000  0.5557430000000 1.0
C      1  0.4878520000000  0.4674570000000  0.5544990000000 1.0
C      1  0.5259710000000  0.4729440000000  0.5627890000000 1.0
C      1  0.5265740000000  0.5274950000000  0.5635500000000 1.0
C      1  0.5381190000000  0.5167380000000  0.4437140000000 1.0
C      1  0.5377440000000  0.4868320000000  0.4431820000000 1.0
C      1  0.4490470000000  0.5327750000000  0.4681970000000 1.0
C      1  0.4415800000000  0.4594000000000  0.4690100000000 1.0
C      1  0.4287090000000  0.5149330000000  0.4765890000000 1.0
C      1  0.4211700000000  0.4770770000000  0.4776650000000 1.0
C      1  0.5218190000000  0.5278340000000  0.5172020000000 1.0
C      1  0.5214900000000  0.4739020000000  0.5165490000000 1.0
C      1  0.5604090000000  0.5281240000000  0.4591360000000 1.0
C      1  0.5595340000000  0.4743160000000  0.4583810000000 1.0
C      1  0.4616830000000  0.5413880000000  0.5155230000000 1.0
C      1  0.4593520000000  0.4583110000000  0.5152010000000 1.0
C      1  0.5139540000000  0.5152490000000  0.4919570000000 1.0
C      1  0.5133100000000  0.4869270000000  0.4916710000000 1.0
C      1  0.5084000000000  0.5168910000000  0.5436010000000 1.0
C      1  0.5081210000000  0.4842940000000  0.5431470000000 1.0
C      1  0.4448250000000  0.5134250000000  0.4213120000000 1.0
C      1  0.4316790000000  0.4908220000000  0.4333470000000 1.0
C      1  0.5674570000000  0.4488470000000  0.5457770000000 1.0
C      1  0.5681150000000  0.5518340000000  0.5470070000000 1.0
C      1  0.5703060000000  0.5292390000000  0.5066230000000 1.0
C      1  0.5698790000000  0.4723380000000  0.5058860000000 1.0
C      1  0.4634160000000  0.5486760000000  0.4872560000000 1.0
C      1  0.4608610000000  0.4492040000000  0.4875270000000 1.0
C      1  0.4549710000000  0.5351300000000  0.4399150000000 1.0
C      1  0.4442230000000  0.4550270000000  0.4410150000000 1.0
C      1  0.5758980000000  0.5527110000000  0.5201270000000 1.0
C      1  0.5752450000000  0.4485210000000  0.5188870000000 1.0
C      1  0.5207390000000  0.4433250000000  0.5139660000000 1.0
C      1  0.5210930000000  0.5585200000000  0.5151380000000 1.0
C      1  0.4362760000000  0.4858260000000  0.5492910000000 1.0
C      1  0.4397640000000  0.5127750000000  0.5506680000000 1.0
C      1  0.5499640000000  0.5165340000000  0.5239720000000 1.0
C      1  0.5497400000000  0.4848790000000  0.5235890000000 1.0
C      1  0.5531480000000  0.5281390000000  0.5514940000000 1.0
C      1  0.5526480000000  0.4725220000000  0.5508840000000 1.0
C      1  0.5287570000000  0.5714830000000  0.4912100000000 1.0
C      1  0.5279410000000  0.4306600000000  0.4897230000000 1.0
C      1  0.4985400000000  0.4322660000000  0.5263260000000 1.0
C      1  0.4991400000000  0.5699700000000  0.5278300000000 1.0
C      1  0.5217930000000  0.4711980000000  0.4681880000000 1.0
C      1  0.5226330000000  0.5313570000000  0.4687700000000 1.0
C      1  0.4349510000000  0.4705740000000  0.5255940000000 1.0
C      1  0.4423250000000  0.5219090000000  0.5241400000000 1.0
C      1  0.4604260000000  0.5354550000000  0.4118570000000 1.0
C      1  0.4277650000000  0.4660990000000  0.4216390000000 1.0
C      1  0.4777380000000  0.4482440000000  0.5356460000000 1.0
C      1  0.4788310000000  0.5528060000000  0.5362890000000 1.0
C      1  0.4854450000000  0.5621050000000  0.4767610000000 1.0
C      1  0.4844640000000  0.4399390000000  0.4760070000000 1.0
C      1  0.5117750000000  0.4427980000000  0.4703950000000 1.0
C      1  0.5128670000000  0.5597680000000  0.4714010000000 1.0
C      1  0.4166130000000  0.4835880000000  0.5058230000000 1.0
C      1  0.4229190000000  0.5123460000000  0.5046300000000 1.0
C      1  0.5602400000000  0.4603230000000  0.4829370000000 1.0
C      1  0.5610620000000  0.5418690000000  0.4838480000000 1.0
END
