TITL C-38187-2739-324 3.42307436050526e-05 125000 -367.647542068383 0 0 60 (Ci) n - 1
REM
REM in /home/bkarasulu/CARBON/AIRSS/Generating-Clusters/EDIP-Nigel-Params/Higher-Symm/Box-15A/Only-C60/SD-CG/FIRE-HFTN
REM
REM
REM
REM
REM
REM ./C.cell (414f73aa93bd7a1190c7fd0f31ff2f98)
REM
REM compiler GCC version 9.2.1 20190827 (Red Hat 9.2.1-1)
REM options -cpp -mtune=generic -march=x86-64 -g -O0 -fpre-include=/usr/include/finclude/math-vector-fortran.h
REM seed -461360087 1354361776 778393555 -480100428 480798336 -1133960050 2136048358 -645559653 438264444 -1223528646 129098411 1292102036 -2072659148 -1080961424 1667616555 -819768478 518705563 1645228470 545771419 190874554 1175051555 -573423656 1530493920 -1012283433 736604494 595929398 1669962605 112925636 -714987749 -1938700690 -479055519 1708340051 -49144082
REM
CELL 1.54180   50.00000   50.00000   50.00000   90.00000   90.00000   90.00000
LATT -1
SFAC C  
C      1  0.5605460000000  0.5049400000000  0.5652620000000 1.0
C      1  0.4394540000000  0.4950600000000  0.4347380000000 1.0
C      1  0.4878990000000  0.5829390000000  0.4962000000000 1.0
C      1  0.5121010000000  0.4170610000000  0.5038000000000 1.0
C      1  0.4234440000000  0.4816580000000  0.5040170000000 1.0
C      1  0.5765560000000  0.5183420000000  0.4959830000000 1.0
C      1  0.4572660000000  0.4568140000000  0.5288960000000 1.0
C      1  0.5427340000000  0.5431860000000  0.4711040000000 1.0
C      1  0.4612190000000  0.4391950000000  0.4630230000000 1.0
C      1  0.5387810000000  0.5608050000000  0.5369770000000 1.0
C      1  0.5109400000000  0.4348140000000  0.4558800000000 1.0
C      1  0.4890600000000  0.5651860000000  0.5441200000000 1.0
C      1  0.4297450000000  0.5451330000000  0.4720880000000 1.0
C      1  0.5702550000000  0.4548670000000  0.5279120000000 1.0
C      1  0.5061270000000  0.4883960000000  0.5006470000000 1.0
C      1  0.4938730000000  0.5116040000000  0.4993530000000 1.0
C      1  0.4939760000000  0.5370990000000  0.4922970000000 1.0
C      1  0.5060240000000  0.4629010000000  0.5077030000000 1.0
C      1  0.4743040000000  0.4344830000000  0.5307130000000 1.0
C      1  0.5256960000000  0.5655170000000  0.4692870000000 1.0
C      1  0.4810240000000  0.5220290000000  0.4399760000000 1.0
C      1  0.5189760000000  0.4779710000000  0.5600240000000 1.0
C      1  0.4900300000000  0.4832650000000  0.5574360000000 1.0
C      1  0.5099700000000  0.5167350000000  0.4425640000000 1.0
C      1  0.5356400000000  0.4238750000000  0.5175110000000 1.0
C      1  0.4643600000000  0.5761250000000  0.4824890000000 1.0
C      1  0.5839220000000  0.4950160000000  0.5066350000000 1.0
C      1  0.4160780000000  0.5049840000000  0.4933650000000 1.0
C      1  0.5314250000000  0.4537380000000  0.5543060000000 1.0
C      1  0.4685750000000  0.5462620000000  0.4456940000000 1.0
C      1  0.4464660000000  0.5033780000000  0.5464320000000 1.0
C      1  0.5535340000000  0.4966220000000  0.4535680000000 1.0
C      1  0.4393850000000  0.4592030000000  0.5060830000000 1.0
C      1  0.5606150000000  0.5407970000000  0.4939170000000 1.0
C      1  0.5147190000000  0.5512750000000  0.5472980000000 1.0
C      1  0.4852810000000  0.4487250000000  0.4527020000000 1.0
C      1  0.5809210000000  0.4928890000000  0.5528980000000 1.0
C      1  0.4190790000000  0.5071110000000  0.4471020000000 1.0
C      1  0.4441920000000  0.4437220000000  0.4834020000000 1.0
C      1  0.5558080000000  0.5562780000000  0.5165980000000 1.0
C      1  0.4521420000000  0.5592470000000  0.4640070000000 1.0
C      1  0.5478580000000  0.4407530000000  0.5359930000000 1.0
C      1  0.5333510000000  0.5031020000000  0.5610050000000 1.0
C      1  0.4666490000000  0.4968980000000  0.4389950000000 1.0
C      1  0.4894320000000  0.5115220000000  0.5618780000000 1.0
C      1  0.5105680000000  0.4884780000000  0.4381220000000 1.0
C      1  0.5145340000000  0.5251730000000  0.5602620000000 1.0
C      1  0.4854660000000  0.4748270000000  0.4397380000000 1.0
C      1  0.5069530000000  0.5616800000000  0.4898820000000 1.0
C      1  0.4930470000000  0.4383200000000  0.5101180000000 1.0
C      1  0.4860130000000  0.5845910000000  0.5241790000000 1.0
C      1  0.5139870000000  0.4154090000000  0.4758210000000 1.0
C      1  0.5373220000000  0.5202100000000  0.4540220000000 1.0
C      1  0.4626780000000  0.4797900000000  0.5459780000000 1.0
C      1  0.4164050000000  0.5209100000000  0.4708760000000 1.0
C      1  0.5835950000000  0.4790900000000  0.5291240000000 1.0
C      1  0.5340260000000  0.4489640000000  0.4488550000000 1.0
C      1  0.4659740000000  0.5510360000000  0.5511450000000 1.0
C      1  0.5349800000000  0.4766260000000  0.4459090000000 1.0
C      1  0.4650200000000  0.5233740000000  0.5540910000000 1.0
END
