TITL C-38189-4514-652 5.59326454780825e-06 125000 -359.598908937462 0 0 60 (C2h) n - 1
REM
REM in /home/bkarasulu/CARBON/AIRSS/Generating-Clusters/EDIP-Nigel-Params/Higher-Symm/Box-15A/Only-C60/SD-CG/FIRE-HFTN
REM
REM
REM
REM
REM
REM ./C.cell (414f73aa93bd7a1190c7fd0f31ff2f98)
REM
REM compiler GCC version 9.2.1 20190827 (Red Hat 9.2.1-1)
REM options -cpp -mtune=generic -march=x86-64 -g -O0 -fpre-include=/usr/include/finclude/math-vector-fortran.h
REM seed 1154028534 697784794 -518427052 1025329244 1731474239 -1561598824 -1977255481 2135389579 650517028 -265381980 -1705003994 -1637327740 2141738748 -1906084523 1706463923 1457063450 876642795 1619882938 -89764120 -1107670134 8705298 1330930612 17704039 -531237828 754208407 697042842 550542508 -1428968199 1550479612 1520403030 -98467921 -92134880 -203342248
REM
CELL 1.54180   50.00000   50.00000   50.00000   90.00000   90.00000   90.00000
LATT -1
SFAC C  
C      1  0.4540150000000  0.4735300000000  0.4945860000000 1.0
C      1  0.5459850000000  0.4735300000000  0.5054140000000 1.0
C      1  0.4540150000000  0.5264700000000  0.4945860000000 1.0
C      1  0.5459850000000  0.5264700000000  0.5054140000000 1.0
C      1  0.4953790000000  0.4419780000000  0.5139700000000 1.0
C      1  0.5046210000000  0.4419780000000  0.4860300000000 1.0
C      1  0.4953790000000  0.5580220000000  0.5139700000000 1.0
C      1  0.5046210000000  0.5580220000000  0.4860300000000 1.0
C      1  0.5653680000000  0.4865680000000  0.5475130000000 1.0
C      1  0.4346320000000  0.4865680000000  0.4524870000000 1.0
C      1  0.5653680000000  0.5134320000000  0.5475130000000 1.0
C      1  0.4346320000000  0.5134320000000  0.4524870000000 1.0
C      1  0.4838250000000  0.5649680000000  0.4685940000000 1.0
C      1  0.5161750000000  0.5649680000000  0.5314060000000 1.0
C      1  0.4838250000000  0.4350320000000  0.4685940000000 1.0
C      1  0.5161750000000  0.4350320000000  0.5314060000000 1.0
C      1  0.4462920000000  0.4655890000000  0.4669670000000 1.0
C      1  0.5537080000000  0.4655890000000  0.5330330000000 1.0
C      1  0.4462920000000  0.5344110000000  0.4669670000000 1.0
C      1  0.5537080000000  0.5344110000000  0.5330330000000 1.0
C      1  0.5344120000000  0.4726990000000  0.4362950000000 1.0
C      1  0.4655880000000  0.4726990000000  0.5637050000000 1.0
C      1  0.5344120000000  0.5273010000000  0.4362950000000 1.0
C      1  0.4655880000000  0.5273010000000  0.5637050000000 1.0
C      1  0.5594400000000  0.5391050000000  0.4458720000000 1.0
C      1  0.4405600000000  0.5391050000000  0.5541280000000 1.0
C      1  0.5594400000000  0.4608950000000  0.4458720000000 1.0
C      1  0.4405600000000  0.4608950000000  0.5541280000000 1.0
C      1  0.5158170000000  0.4742000000000  0.5547510000000 1.0
C      1  0.4841830000000  0.4742000000000  0.4452490000000 1.0
C      1  0.5158170000000  0.5258000000000  0.5547510000000 1.0
C      1  0.4841830000000  0.5258000000000  0.4452490000000 1.0
C      1  0.5078690000000  0.5345320000000  0.4328350000000 1.0
C      1  0.4921310000000  0.5345320000000  0.5671650000000 1.0
C      1  0.5078690000000  0.4654680000000  0.4328350000000 1.0
C      1  0.4921310000000  0.4654680000000  0.5671650000000 1.0
C      1  0.5341820000000  0.5154460000000  0.4640100000000 1.0
C      1  0.4658180000000  0.5154460000000  0.5359900000000 1.0
C      1  0.5341820000000  0.4845540000000  0.4640100000000 1.0
C      1  0.4658180000000  0.4845540000000  0.5359900000000 1.0
C      1  0.5691270000000  0.4852260000000  0.4903440000000 1.0
C      1  0.4308730000000  0.4852260000000  0.5096560000000 1.0
C      1  0.5691270000000  0.5147740000000  0.4903440000000 1.0
C      1  0.4308730000000  0.5147740000000  0.5096560000000 1.0
C      1  0.5324950000000  0.4512790000000  0.5476270000000 1.0
C      1  0.4675050000000  0.4512790000000  0.4523730000000 1.0
C      1  0.5324950000000  0.5487210000000  0.5476270000000 1.0
C      1  0.4675050000000  0.5487210000000  0.4523730000000 1.0
C      1  0.5751600000000  0.4717690000000  0.4661990000000 1.0
C      1  0.4248400000000  0.4717690000000  0.5338010000000 1.0
C      1  0.5751600000000  0.5282310000000  0.4661990000000 1.0
C      1  0.4248400000000  0.5282310000000  0.5338010000000 1.0
C      1  0.5135410000000  0.5284390000000  0.4832370000000 1.0
C      1  0.4864590000000  0.5284390000000  0.5167630000000 1.0
C      1  0.5135410000000  0.4715610000000  0.4832370000000 1.0
C      1  0.4864590000000  0.4715610000000  0.5167630000000 1.0
C      1  0.5143650000000  0.4845530000000  0.5248360000000 1.0
C      1  0.4856350000000  0.4845530000000  0.4751640000000 1.0
C      1  0.5143650000000  0.5154470000000  0.5248360000000 1.0
C      1  0.4856350000000  0.5154470000000  0.4751640000000 1.0
END
