TITL C-38185-7677-218 -0.0374576445136705 125000 -351.071127842042 0 0 60 (C1) n - 1
REM
REM in /home/bkarasulu/CARBON/AIRSS/Generating-Clusters/EDIP-Nigel-Params/Higher-Symm/Box-15A/Only-C60/SD-CG/FIRE-HFTN
REM
REM
REM
REM
REM
REM ./C.cell (414f73aa93bd7a1190c7fd0f31ff2f98)
REM
REM compiler GCC version 9.2.1 20190827 (Red Hat 9.2.1-1)
REM options -cpp -mtune=generic -march=x86-64 -g -O0 -fpre-include=/usr/include/finclude/math-vector-fortran.h
REM seed -1090501990 -691436285 1945183388 1013470390 -82300275 -492382547 -920182867 1755604119 -2085143393 -243820764 1788273862 -1020867149 -1746302995 -98207294 -1376925953 1403798313 -738977331 -990036517 -897920723 939466121 -1450237136 1170016939 1827823782 1238671610 1814241435 935145226 1648925549 590806466 221078359 238387893 -347342861 842847431 -1877157339
REM
CELL 1.54180   50.00000   50.00000   50.00000   90.00000   90.00000   90.00000
LATT -1
SFAC C  
C      1  0.4617940000000  0.5484390000000  0.4817420000000 1.0
C      1  0.5554990000000  0.4372190000000  0.5390750000000 1.0
C      1  0.4288140000000  0.5133590000000  0.5122630000000 1.0
C      1  0.5280040000000  0.5400590000000  0.5641980000000 1.0
C      1  0.4526910000000  0.5283840000000  0.4416790000000 1.0
C      1  0.5543280000000  0.4748470000000  0.4728760000000 1.0
C      1  0.4917870000000  0.5187120000000  0.4221810000000 1.0
C      1  0.5428520000000  0.4350240000000  0.4885810000000 1.0
C      1  0.3787950000000  0.4579630000000  0.5567590000000 1.0
C      1  0.4743620000000  0.5480250000000  0.4392000000000 1.0
C      1  0.4757310000000  0.4503070000000  0.5585640000000 1.0
C      1  0.4514930000000  0.4617610000000  0.5527640000000 1.0
C      1  0.4370650000000  0.4370070000000  0.4890170000000 1.0
C      1  0.5377230000000  0.5129650000000  0.4412090000000 1.0
C      1  0.5233240000000  0.5582290000000  0.4468160000000 1.0
C      1  0.4988810000000  0.4785920000000  0.4466320000000 1.0
C      1  0.5759820000000  0.5176460000000  0.4684290000000 1.0
C      1  0.4447300000000  0.5331900000000  0.5233640000000 1.0
C      1  0.4954600000000  0.4429940000000  0.5057250000000 1.0
C      1  0.5613220000000  0.4470070000000  0.4708180000000 1.0
C      1  0.5620160000000  0.5482600000000  0.5015380000000 1.0
C      1  0.4702650000000  0.4819260000000  0.4430410000000 1.0
C      1  0.5053230000000  0.5733340000000  0.5296640000000 1.0
C      1  0.5596310000000  0.5423500000000  0.4728400000000 1.0
C      1  0.5432440000000  0.5957150000000  0.5046290000000 1.0
C      1  0.5103700000000  0.5070000000000  0.4990790000000 1.0
C      1  0.5140250000000  0.5275820000000  0.4805710000000 1.0
C      1  0.3942090000000  0.4416680000000  0.5717300000000 1.0
C      1  0.4263920000000  0.4685200000000  0.5435300000000 1.0
C      1  0.4788850000000  0.5616310000000  0.4636070000000 1.0
C      1  0.5801680000000  0.5080630000000  0.4963930000000 1.0
C      1  0.5101250000000  0.4572570000000  0.4607570000000 1.0
C      1  0.5216430000000  0.5788220000000  0.5070800000000 1.0
C      1  0.5390960000000  0.5146650000000  0.5648780000000 1.0
C      1  0.5514640000000  0.4286190000000  0.5141500000000 1.0
C      1  0.4753650000000  0.4641710000000  0.5011020000000 1.0
C      1  0.5589240000000  0.4870610000000  0.4998710000000 1.0
C      1  0.4052470000000  0.4662580000000  0.5628420000000 1.0
C      1  0.5124090000000  0.4999070000000  0.4315630000000 1.0
C      1  0.4791400000000  0.5671390000000  0.5237730000000 1.0
C      1  0.4893490000000  0.4885850000000  0.4957400000000 1.0
C      1  0.5487790000000  0.4833310000000  0.5629330000000 1.0
C      1  0.5008130000000  0.4365960000000  0.5332920000000 1.0
C      1  0.4245460000000  0.4902380000000  0.5265950000000 1.0
C      1  0.4545290000000  0.4557700000000  0.4820630000000 1.0
C      1  0.5168980000000  0.5603140000000  0.5510160000000 1.0
C      1  0.4825270000000  0.4247330000000  0.5504750000000 1.0
C      1  0.5787900000000  0.5299430000000  0.5147060000000 1.0
C      1  0.4503510000000  0.4716030000000  0.4596750000000 1.0
C      1  0.4482880000000  0.5259850000000  0.4705370000000 1.0
C      1  0.5609470000000  0.4964420000000  0.4525110000000 1.0
C      1  0.4621410000000  0.5502420000000  0.5102550000000 1.0
C      1  0.5598910000000  0.5748860000000  0.5116730000000 1.0
C      1  0.4275540000000  0.5131760000000  0.4843390000000 1.0
C      1  0.5344400000000  0.4975690000000  0.5096330000000 1.0
C      1  0.4655410000000  0.5062190000000  0.4270380000000 1.0
C      1  0.5327790000000  0.5364430000000  0.4602080000000 1.0
C      1  0.5223120000000  0.4925920000000  0.5597420000000 1.0
C      1  0.5167580000000  0.4469050000000  0.4859680000000 1.0
C      1  0.5541870000000  0.4567510000000  0.5570740000000 1.0
END
