TITL C-38184-643-525 -3.22817126497071e-06 125000 -367.932019812623 0 0 60 (D2) n - 1
REM
REM in /home/bkarasulu/CARBON/AIRSS/Generating-Clusters/EDIP-Nigel-Params/Higher-Symm/Box-15A/Only-C60/SD-CG/FIRE-HFTN
REM
REM
REM
REM
REM
REM ./C.cell (414f73aa93bd7a1190c7fd0f31ff2f98)
REM
REM compiler GCC version 9.2.1 20190827 (Red Hat 9.2.1-1)
REM options -cpp -mtune=generic -march=x86-64 -g -O0 -fpre-include=/usr/include/finclude/math-vector-fortran.h
REM seed -2062529912 1059848434 956743930 -1672973610 -1309890593 855160049 -1754295925 -1436389833 -2130382119 -740056482 1183759955 -1218969379 -568818966 1958430053 -2009551981 -1903447796 -2050683044 -1968449863 1575899711 59646709 1764483277 -71700394 -1202976431 -1469262799 901592822 -679100217 1859379325 -178041775 1038180444 -1721007222 1281462038 -1719105614 -1371665508
REM
CELL 1.54180   50.00000   50.00000   50.00000   90.00000   90.00000   90.00000
LATT -1
SFAC C  
C      1  0.5620410000000  0.4770450000000  0.4784940000000 1.0
C      1  0.4379590000000  0.4770450000000  0.5215060000000 1.0
C      1  0.4379590000000  0.5229550000000  0.4784940000000 1.0
C      1  0.5620410000000  0.5229550000000  0.5215060000000 1.0
C      1  0.4460310000000  0.4622430000000  0.4716530000000 1.0
C      1  0.5539690000000  0.4622430000000  0.5283470000000 1.0
C      1  0.5539690000000  0.5377570000000  0.4716530000000 1.0
C      1  0.4460310000000  0.5377570000000  0.5283470000000 1.0
C      1  0.5060000000000  0.5163450000000  0.4730480000000 1.0
C      1  0.4940000000000  0.5163450000000  0.5269520000000 1.0
C      1  0.4940000000000  0.4836550000000  0.4730480000000 1.0
C      1  0.5060000000000  0.4836550000000  0.5269520000000 1.0
C      1  0.4852190000000  0.4323580000000  0.4663930000000 1.0
C      1  0.5147810000000  0.4323580000000  0.5336070000000 1.0
C      1  0.5147810000000  0.5676420000000  0.4663930000000 1.0
C      1  0.4852190000000  0.5676420000000  0.5336070000000 1.0
C      1  0.4782640000000  0.4849790000000  0.4986230000000 1.0
C      1  0.5217360000000  0.4849790000000  0.5013770000000 1.0
C      1  0.5217360000000  0.5150210000000  0.4986230000000 1.0
C      1  0.4782640000000  0.5150210000000  0.5013770000000 1.0
C      1  0.5448140000000  0.5118890000000  0.5413400000000 1.0
C      1  0.4551860000000  0.5118890000000  0.4586600000000 1.0
C      1  0.4551860000000  0.4881110000000  0.5413400000000 1.0
C      1  0.5448140000000  0.4881110000000  0.4586600000000 1.0
C      1  0.4713060000000  0.5564820000000  0.4871810000000 1.0
C      1  0.5286940000000  0.5564820000000  0.5128190000000 1.0
C      1  0.5286940000000  0.4435180000000  0.4871810000000 1.0
C      1  0.4713060000000  0.4435180000000  0.5128190000000 1.0
C      1  0.4909910000000  0.5471160000000  0.4660170000000 1.0
C      1  0.5090090000000  0.5471160000000  0.5339830000000 1.0
C      1  0.5090090000000  0.4528840000000  0.4660170000000 1.0
C      1  0.4909910000000  0.4528840000000  0.5339830000000 1.0
C      1  0.5450930000000  0.4833470000000  0.5472590000000 1.0
C      1  0.4549070000000  0.4833470000000  0.4527410000000 1.0
C      1  0.4549070000000  0.5166530000000  0.5472590000000 1.0
C      1  0.5450930000000  0.5166530000000  0.4527410000000 1.0
C      1  0.5413660000000  0.4396390000000  0.5394120000000 1.0
C      1  0.4586340000000  0.4396390000000  0.4605880000000 1.0
C      1  0.4586340000000  0.5603610000000  0.5394120000000 1.0
C      1  0.5413660000000  0.5603610000000  0.4605880000000 1.0
C      1  0.4858100000000  0.5756930000000  0.5049340000000 1.0
C      1  0.5141900000000  0.5756930000000  0.4950660000000 1.0
C      1  0.5141900000000  0.4243070000000  0.5049340000000 1.0
C      1  0.4858100000000  0.4243070000000  0.4950660000000 1.0
C      1  0.4754290000000  0.5256070000000  0.5641420000000 1.0
C      1  0.5245710000000  0.5256070000000  0.4358580000000 1.0
C      1  0.5245710000000  0.4743930000000  0.5641420000000 1.0
C      1  0.4754290000000  0.4743930000000  0.4358580000000 1.0
C      1  0.4553180000000  0.4661470000000  0.5008740000000 1.0
C      1  0.5446820000000  0.4661470000000  0.4991260000000 1.0
C      1  0.5446820000000  0.5338530000000  0.5008740000000 1.0
C      1  0.4553180000000  0.5338530000000  0.4991260000000 1.0
C      1  0.4992820000000  0.4850700000000  0.5705430000000 1.0
C      1  0.5007180000000  0.4850700000000  0.4294570000000 1.0
C      1  0.5007180000000  0.5149300000000  0.5705430000000 1.0
C      1  0.4992820000000  0.5149300000000  0.4294570000000 1.0
C      1  0.4757560000000  0.4712290000000  0.5559240000000 1.0
C      1  0.5242440000000  0.4712290000000  0.4440760000000 1.0
C      1  0.5242440000000  0.5287710000000  0.5559240000000 1.0
C      1  0.4757560000000  0.5287710000000  0.4440760000000 1.0
END
