TITL C-38189-4514-415 -2.2263832577165e-06 125000 -363.974790486123 0 0 60 (C1) n - 1
REM
REM in /home/bkarasulu/CARBON/AIRSS/Generating-Clusters/EDIP-Nigel-Params/Higher-Symm/Box-15A/Only-C60/SD-CG/FIRE-HFTN
REM
REM
REM
REM
REM
REM ./C.cell (414f73aa93bd7a1190c7fd0f31ff2f98)
REM
REM compiler GCC version 9.2.1 20190827 (Red Hat 9.2.1-1)
REM options -cpp -mtune=generic -march=x86-64 -g -O0 -fpre-include=/usr/include/finclude/math-vector-fortran.h
REM seed -885148779 -1980324421 1892277424 -755547260 -664446280 1118399782 1410711013 1389604040 -203842163 -23135693 -329487414 1075134359 -488600828 -1092835400 -1540987693 -615303340 685403414 -1510962095 -1459959983 1661324294 -1033979336 1340878896 328184281 397292999 -1111526626 -2057739029 -1661992623 1607088794 1189591438 1812384155 454313769 -1640104603 -30820989
REM
CELL 1.54180   50.00000   50.00000   50.00000   90.00000   90.00000   90.00000
LATT -1
SFAC C  
C      1  0.4483930000000  0.5324050000000  0.4853810000000 1.0
C      1  0.4461660000000  0.5105200000000  0.4657610000000 1.0
C      1  0.4456430000000  0.4803740000000  0.4711390000000 1.0
C      1  0.4433980000000  0.4633450000000  0.4980240000000 1.0
C      1  0.4437720000000  0.4758940000000  0.5268680000000 1.0
C      1  0.4456110000000  0.5071030000000  0.5330670000000 1.0
C      1  0.4464160000000  0.5316370000000  0.5148140000000 1.0
C      1  0.5063190000000  0.4979340000000  0.5408950000000 1.0
C      1  0.5062200000000  0.5312890000000  0.5282450000000 1.0
C      1  0.5062900000000  0.5419720000000  0.4942870000000 1.0
C      1  0.5063290000000  0.5214670000000  0.4631890000000 1.0
C      1  0.5063970000000  0.4861430000000  0.4600720000000 1.0
C      1  0.5063270000000  0.4606440000000  0.4865670000000 1.0
C      1  0.5065510000000  0.4655050000000  0.5216720000000 1.0
C      1  0.5494900000000  0.4748280000000  0.5433130000000 1.0
C      1  0.5497220000000  0.5211280000000  0.5518310000000 1.0
C      1  0.5497720000000  0.5540290000000  0.5173690000000 1.0
C      1  0.5495060000000  0.5434410000000  0.4715080000000 1.0
C      1  0.5502750000000  0.5052770000000  0.4437970000000 1.0
C      1  0.5488210000000  0.4602870000000  0.4606430000000 1.0
C      1  0.5503340000000  0.4454000000000  0.5063080000000 1.0
C      1  0.4682120000000  0.4947230000000  0.4251970000000 1.0
C      1  0.4680480000000  0.4385890000000  0.4583000000000 1.0
C      1  0.4685650000000  0.4292350000000  0.5227560000000 1.0
C      1  0.4687170000000  0.4750130000000  0.5692680000000 1.0
C      1  0.4674620000000  0.5396760000000  0.5629530000000 1.0
C      1  0.4678870000000  0.5751170000000  0.5089250000000 1.0
C      1  0.4689590000000  0.5547500000000  0.4473060000000 1.0
C      1  0.5747990000000  0.5030870000000  0.4619870000000 1.0
C      1  0.5707160000000  0.4746710000000  0.4744110000000 1.0
C      1  0.5748250000000  0.4635100000000  0.5033510000000 1.0
C      1  0.5668130000000  0.4876200000000  0.5226790000000 1.0
C      1  0.5742610000000  0.5156750000000  0.5345060000000 1.0
C      1  0.5742950000000  0.5364680000000  0.5127340000000 1.0
C      1  0.5668190000000  0.5234040000000  0.4852110000000 1.0
C      1  0.4592600000000  0.4646680000000  0.4486670000000 1.0
C      1  0.4589960000000  0.4370610000000  0.4963130000000 1.0
C      1  0.4595860000000  0.4587660000000  0.5467620000000 1.0
C      1  0.4589920000000  0.5118250000000  0.5602590000000 1.0
C      1  0.4584240000000  0.5555130000000  0.5286200000000 1.0
C      1  0.4596070000000  0.5580580000000  0.4749600000000 1.0
C      1  0.4583730000000  0.5181750000000  0.4394290000000 1.0
C      1  0.4861280000000  0.5646280000000  0.4892140000000 1.0
C      1  0.4858220000000  0.5318590000000  0.4428770000000 1.0
C      1  0.4855180000000  0.4771530000000  0.4397210000000 1.0
C      1  0.4853560000000  0.4391810000000  0.4809620000000 1.0
C      1  0.4859470000000  0.4478720000000  0.5356800000000 1.0
C      1  0.4855480000000  0.4972400000000  0.5630970000000 1.0
C      1  0.4852710000000  0.5486690000000  0.5423160000000 1.0
C      1  0.5335770000000  0.5288890000000  0.4517800000000 1.0
C      1  0.5331460000000  0.4807920000000  0.4464960000000 1.0
C      1  0.5331510000000  0.4469710000000  0.4817180000000 1.0
C      1  0.5336900000000  0.4544010000000  0.5295820000000 1.0
C      1  0.5332590000000  0.4962350000000  0.5547770000000 1.0
C      1  0.5330790000000  0.5417590000000  0.5385330000000 1.0
C      1  0.5333260000000  0.5557550000000  0.4923670000000 1.0
C      1  0.5500680000000  0.4988320000000  0.4975670000000 1.0
C      1  0.4940810000000  0.5005110000000  0.4993870000000 1.0
C      1  0.4663000000000  0.4960220000000  0.5010100000000 1.0
C      1  0.5211200000000  0.5005660000000  0.4992740000000 1.0
END
