TITL C-38186-4112-231 7.78140698394229e-05 125000 -369.524392271121 0 0 60 (C1) n - 1
REM
REM in /home/bkarasulu/CARBON/AIRSS/Generating-Clusters/EDIP-Nigel-Params/Higher-Symm/Box-15A/Only-C60/SD-CG/FIRE-HFTN
REM
REM
REM
REM
REM
REM ./C.cell (414f73aa93bd7a1190c7fd0f31ff2f98)
REM
REM compiler GCC version 9.2.1 20190827 (Red Hat 9.2.1-1)
REM options -cpp -mtune=generic -march=x86-64 -g -O0 -fpre-include=/usr/include/finclude/math-vector-fortran.h
REM seed -144192375 -1774470619 873795186 -758106997 -148154447 -178359398 -748184989 296852038 -1634161198 1167968323 1853774329 235311270 -1162108230 -37515402 2103566549 1128072754 -1626788232 1764122065 -2144463044 1055469150 1792193165 -632322351 -803040085 -658230756 2091751354 1099747456 2083304473 -1473757094 -1925033516 -292002817 33007165 -780670471 -1236621174
REM
CELL 1.54180   50.00000   50.00000   50.00000   90.00000   90.00000   90.00000
LATT -1
SFAC C  
C      1  0.5339380000000  0.5957290000000  0.4973340000000 1.0
C      1  0.5233840000000  0.6041580000000  0.4722740000000 1.0
C      1  0.4997090000000  0.5897590000000  0.4659750000000 1.0
C      1  0.4784050000000  0.5952980000000  0.4836920000000 1.0
C      1  0.4760490000000  0.5937970000000  0.5117980000000 1.0
C      1  0.4964020000000  0.6055570000000  0.5269950000000 1.0
C      1  0.5225070000000  0.6066020000000  0.5205450000000 1.0
C      1  0.5113570000000  0.5494370000000  0.5106220000000 1.0
C      1  0.5353340000000  0.5661480000000  0.4977220000000 1.0
C      1  0.5353930000000  0.5546250000000  0.4698700000000 1.0
C      1  0.5054790000000  0.5604230000000  0.4650390000000 1.0
C      1  0.4547780000000  0.5524400000000  0.4991870000000 1.0
C      1  0.4677140000000  0.5670370000000  0.5208490000000 1.0
C      1  0.4899950000000  0.5508920000000  0.5323520000000 1.0
C      1  0.5328770000000  0.5108150000000  0.4437160000000 1.0
C      1  0.4784350000000  0.5038770000000  0.4383730000000 1.0
C      1  0.4372660000000  0.5098530000000  0.4765530000000 1.0
C      1  0.4396880000000  0.5079560000000  0.5403280000000 1.0
C      1  0.4954530000000  0.4989440000000  0.5693200000000 1.0
C      1  0.5456200000000  0.5051350000000  0.5492360000000 1.0
C      1  0.5675280000000  0.5145900000000  0.4973250000000 1.0
C      1  0.5079140000000  0.4720220000000  0.4582480000000 1.0
C      1  0.4602900000000  0.4651450000000  0.4655610000000 1.0
C      1  0.4351320000000  0.4674020000000  0.5075420000000 1.0
C      1  0.4670380000000  0.4631050000000  0.5458670000000 1.0
C      1  0.5214020000000  0.4591110000000  0.5494510000000 1.0
C      1  0.5580000000000  0.4680600000000  0.5170350000000 1.0
C      1  0.5547280000000  0.4701840000000  0.4677190000000 1.0
C      1  0.5027440000000  0.4924080000000  0.4822230000000 1.0
C      1  0.4820110000000  0.5178410000000  0.4821070000000 1.0
C      1  0.4686350000000  0.5116050000000  0.5077560000000 1.0
C      1  0.4820410000000  0.5210040000000  0.5330710000000 1.0
C      1  0.5065970000000  0.5023060000000  0.5290830000000 1.0
C      1  0.5245760000000  0.5219440000000  0.5137780000000 1.0
C      1  0.5252680000000  0.5100370000000  0.4875940000000 1.0
C      1  0.5205920000000  0.4385430000000  0.5272990000000 1.0
C      1  0.5454470000000  0.4423390000000  0.5090020000000 1.0
C      1  0.5416830000000  0.4443080000000  0.4780110000000 1.0
C      1  0.5134110000000  0.4437200000000  0.4672810000000 1.0
C      1  0.4648390000000  0.4390880000000  0.4791970000000 1.0
C      1  0.4496880000000  0.4406490000000  0.5058370000000 1.0
C      1  0.4711450000000  0.4407570000000  0.5273730000000 1.0
C      1  0.5348320000000  0.4814560000000  0.4464460000000 1.0
C      1  0.4805190000000  0.4751180000000  0.4455860000000 1.0
C      1  0.4381780000000  0.4797940000000  0.4793970000000 1.0
C      1  0.4471920000000  0.4811140000000  0.5315830000000 1.0
C      1  0.4940210000000  0.4715630000000  0.5580500000000 1.0
C      1  0.5421980000000  0.4779450000000  0.5394650000000 1.0
C      1  0.5616830000000  0.4855380000000  0.4932800000000 1.0
C      1  0.5538760000000  0.5239470000000  0.5238230000000 1.0
C      1  0.5437430000000  0.5245400000000  0.4694470000000 1.0
C      1  0.5052920000000  0.5143880000000  0.4364630000000 1.0
C      1  0.4621280000000  0.5188720000000  0.4594100000000 1.0
C      1  0.4418990000000  0.5245890000000  0.5051210000000 1.0
C      1  0.4637300000000  0.5145180000000  0.5559690000000 1.0
C      1  0.5217820000000  0.5113240000000  0.5653670000000 1.0
C      1  0.4964420000000  0.4480790000000  0.5124430000000 1.0
C      1  0.4987660000000  0.4791840000000  0.5086020000000 1.0
C      1  0.4935880000000  0.4333740000000  0.4863390000000 1.0
C      1  0.4899770000000  0.5474160000000  0.4880060000000 1.0
END
