TITL C-38197-8510-259 2.18079511435541e-06 125000 -355.642844444069 0 0 60 (D4h) n - 1
REM
REM in /home/bkarasulu/CARBON/AIRSS/Generating-Clusters/EDIP-Nigel-Params/Higher-Symm/Box-15A/Only-C60/SD-CG/FIRE-HFTN
REM
REM
REM
REM
REM
REM ./C.cell (414f73aa93bd7a1190c7fd0f31ff2f98)
REM
REM compiler GCC version 9.2.1 20190827 (Red Hat 9.2.1-1)
REM options -cpp -mtune=generic -march=x86-64 -g -O0 -fpre-include=/usr/include/finclude/math-vector-fortran.h
REM seed -834085553 -2005132017 131615088 -986176898 -1435886463 489104429 1839419723 878287589 -1385291897 -1388417748 154688525 -152861363 407319251 1520421488 -1872738069 917718153 1736131349 437851703 1740871249 1940265427 1771965686 2053004530 645670584 45875829 1403317669 -1596310659 -680452181 977859877 -1716825660 -565726333 -2133678654 460453610 -2085909905
REM
CELL 1.54180   50.00000   50.00000   50.00000   90.00000   90.00000   90.00000
LATT -1
SFAC C  
C      1  0.4518500000000  0.5469340000000  0.4718700000000 1.0
C      1  0.4530660000000  0.4518500000000  0.4718700000000 1.0
C      1  0.5481500000000  0.4530660000000  0.4718700000000 1.0
C      1  0.5469340000000  0.5481500000000  0.4718700000000 1.0
C      1  0.4518500000000  0.5469340000000  0.5300700000000 1.0
C      1  0.4530660000000  0.4518500000000  0.5300700000000 1.0
C      1  0.5481500000000  0.4530660000000  0.5300700000000 1.0
C      1  0.5469340000000  0.5481500000000  0.5300700000000 1.0
C      1  0.5162190000000  0.5166390000000  0.4752450000000 1.0
C      1  0.4833610000000  0.5162190000000  0.4752450000000 1.0
C      1  0.4837810000000  0.4833610000000  0.4752450000000 1.0
C      1  0.5166390000000  0.4837810000000  0.4752450000000 1.0
C      1  0.5162190000000  0.5166390000000  0.5266950000000 1.0
C      1  0.4833610000000  0.5162190000000  0.5266950000000 1.0
C      1  0.4837810000000  0.4833610000000  0.5266950000000 1.0
C      1  0.5166390000000  0.4837810000000  0.5266950000000 1.0
C      1  0.4158750000000  0.5123000000000  0.5285380000000 1.0
C      1  0.4877000000000  0.4158750000000  0.5285380000000 1.0
C      1  0.5841250000000  0.4877000000000  0.5285380000000 1.0
C      1  0.5123000000000  0.5841250000000  0.5285380000000 1.0
C      1  0.4158750000000  0.5123000000000  0.4734020000000 1.0
C      1  0.4877000000000  0.4158750000000  0.4734020000000 1.0
C      1  0.5841250000000  0.4877000000000  0.4734020000000 1.0
C      1  0.5123000000000  0.5841250000000  0.4734020000000 1.0
C      1  0.4696120000000  0.4688250000000  0.5479420000000 1.0
C      1  0.5311750000000  0.4696120000000  0.5479420000000 1.0
C      1  0.5303880000000  0.5311750000000  0.5479420000000 1.0
C      1  0.4688250000000  0.5303880000000  0.5479420000000 1.0
C      1  0.4696120000000  0.4688250000000  0.4539980000000 1.0
C      1  0.5311750000000  0.4696120000000  0.4539980000000 1.0
C      1  0.5303880000000  0.5311750000000  0.4539980000000 1.0
C      1  0.4688250000000  0.5303880000000  0.4539980000000 1.0
C      1  0.5144470000000  0.4162170000000  0.5285380000000 1.0
C      1  0.5837830000000  0.5144470000000  0.5285380000000 1.0
C      1  0.4855530000000  0.5837830000000  0.5285380000000 1.0
C      1  0.4162170000000  0.4855530000000  0.5285380000000 1.0
C      1  0.5144470000000  0.4162170000000  0.4734020000000 1.0
C      1  0.5837830000000  0.5144470000000  0.4734020000000 1.0
C      1  0.4855530000000  0.5837830000000  0.4734020000000 1.0
C      1  0.4162170000000  0.4855530000000  0.4734020000000 1.0
C      1  0.5698230000000  0.4678030000000  0.4865010000000 1.0
C      1  0.5321970000000  0.5698230000000  0.4865010000000 1.0
C      1  0.4301770000000  0.5321970000000  0.4865010000000 1.0
C      1  0.4678030000000  0.4301770000000  0.4865010000000 1.0
C      1  0.5698230000000  0.4678030000000  0.5154390000000 1.0
C      1  0.5321970000000  0.5698230000000  0.5154390000000 1.0
C      1  0.4301770000000  0.5321970000000  0.5154390000000 1.0
C      1  0.4678030000000  0.4301770000000  0.5154390000000 1.0
C      1  0.4660270000000  0.5689770000000  0.4865010000000 1.0
C      1  0.4310230000000  0.4660270000000  0.4865010000000 1.0
C      1  0.5339730000000  0.4310230000000  0.4865010000000 1.0
C      1  0.5689770000000  0.5339730000000  0.4865010000000 1.0
C      1  0.4660270000000  0.5689770000000  0.5154390000000 1.0
C      1  0.4310230000000  0.4660270000000  0.5154390000000 1.0
C      1  0.5339730000000  0.4310230000000  0.5154390000000 1.0
C      1  0.5689770000000  0.5339730000000  0.5154390000000 1.0
C      1  0.5287900000000  0.4719370000000  0.5009700000000 1.0
C      1  0.4712100000000  0.5280630000000  0.5009700000000 1.0
C      1  0.5280630000000  0.5287900000000  0.5009700000000 1.0
C      1  0.4719370000000  0.4712100000000  0.5009700000000 1.0
END
