TITL C-38192-7909-59 -5.67116792263742e-05 125000 -357.857288511133 0 0 60 (C4h) n - 1
REM
REM in /home/bkarasulu/CARBON/AIRSS/Generating-Clusters/EDIP-Nigel-Params/Higher-Symm/Box-15A/Only-C60/SD-CG/FIRE-HFTN
REM
REM
REM
REM
REM
REM ./C.cell (414f73aa93bd7a1190c7fd0f31ff2f98)
REM
REM compiler GCC version 9.2.1 20190827 (Red Hat 9.2.1-1)
REM options -cpp -mtune=generic -march=x86-64 -g -O0 -fpre-include=/usr/include/finclude/math-vector-fortran.h
REM seed -1270804543 1309672199 1566461003 -808367806 551777627 -814894377 -944481876 -570862813 -992113008 1473639937 1359577687 -471817240 -2041682051 536122074 2000455761 -765561815 -1303357707 774223595 -1611681246 395776254 -329515816 757452067 -1208313178 1625126182 -126899138 1288405849 -1594598973 1282650715 -777692738 -1163739804 1116725509 -2032549937 185290351
REM
CELL 1.54180   50.00000   50.00000   50.00000   90.00000   90.00000   90.00000
LATT -1
SFAC C  
C      1  0.4325030000000  0.5323500000000  0.5123900000000 1.0
C      1  0.4876100000000  0.5323500000000  0.4325030000000 1.0
C      1  0.5674970000000  0.5323500000000  0.4876100000000 1.0
C      1  0.5123900000000  0.5323500000000  0.5674970000000 1.0
C      1  0.4325030000000  0.4665990000000  0.5123900000000 1.0
C      1  0.4876100000000  0.4665990000000  0.4325030000000 1.0
C      1  0.5674970000000  0.4665990000000  0.4876100000000 1.0
C      1  0.5123900000000  0.4665990000000  0.5674970000000 1.0
C      1  0.5047480000000  0.5463820000000  0.4647110000000 1.0
C      1  0.5352890000000  0.5463820000000  0.5047480000000 1.0
C      1  0.4952520000000  0.5463820000000  0.5352890000000 1.0
C      1  0.4647110000000  0.5463820000000  0.4952520000000 1.0
C      1  0.5047480000000  0.4525670000000  0.4647110000000 1.0
C      1  0.5352890000000  0.4525670000000  0.5047480000000 1.0
C      1  0.4952520000000  0.4525670000000  0.5352890000000 1.0
C      1  0.4647110000000  0.4525670000000  0.4952520000000 1.0
C      1  0.5549070000000  0.5216310000000  0.5396860000000 1.0
C      1  0.4603140000000  0.5216310000000  0.5549070000000 1.0
C      1  0.4450930000000  0.5216310000000  0.4603140000000 1.0
C      1  0.5396860000000  0.5216310000000  0.4450930000000 1.0
C      1  0.5549070000000  0.4773180000000  0.5396860000000 1.0
C      1  0.4603140000000  0.4773180000000  0.5549070000000 1.0
C      1  0.4450930000000  0.4773180000000  0.4603140000000 1.0
C      1  0.5396860000000  0.4773180000000  0.4450930000000 1.0
C      1  0.5035800000000  0.5188940000000  0.4782650000000 1.0
C      1  0.5217350000000  0.5188940000000  0.5035800000000 1.0
C      1  0.4964200000000  0.5188940000000  0.5217350000000 1.0
C      1  0.4782650000000  0.5188940000000  0.4964200000000 1.0
C      1  0.5035800000000  0.4800550000000  0.4782650000000 1.0
C      1  0.5217350000000  0.4800550000000  0.5035800000000 1.0
C      1  0.4964200000000  0.4800550000000  0.5217350000000 1.0
C      1  0.4782650000000  0.4800550000000  0.4964200000000 1.0
C      1  0.5289350000000  0.4395800000000  0.4770620000000 1.0
C      1  0.5229380000000  0.4395800000000  0.5289350000000 1.0
C      1  0.4710650000000  0.4395800000000  0.5229380000000 1.0
C      1  0.4770620000000  0.4395800000000  0.4710650000000 1.0
C      1  0.5289350000000  0.5593690000000  0.4770620000000 1.0
C      1  0.5229380000000  0.5593690000000  0.5289350000000 1.0
C      1  0.4710650000000  0.5593690000000  0.5229380000000 1.0
C      1  0.4770620000000  0.5593690000000  0.4710650000000 1.0
C      1  0.5647280000000  0.5145510000000  0.5113990000000 1.0
C      1  0.4886010000000  0.5145510000000  0.5647280000000 1.0
C      1  0.4352720000000  0.5145510000000  0.4886010000000 1.0
C      1  0.5113990000000  0.5145510000000  0.4352720000000 1.0
C      1  0.5647280000000  0.4843980000000  0.5113990000000 1.0
C      1  0.4886010000000  0.4843980000000  0.5647280000000 1.0
C      1  0.4352720000000  0.4843980000000  0.4886010000000 1.0
C      1  0.5113990000000  0.4843980000000  0.4352720000000 1.0
C      1  0.4642360000000  0.4562950000000  0.4491240000000 1.0
C      1  0.5508760000000  0.4562950000000  0.4642360000000 1.0
C      1  0.5357640000000  0.4562950000000  0.5508760000000 1.0
C      1  0.4491240000000  0.4562950000000  0.5357640000000 1.0
C      1  0.4642360000000  0.5426540000000  0.4491240000000 1.0
C      1  0.5508760000000  0.5426540000000  0.4642360000000 1.0
C      1  0.5357640000000  0.5426540000000  0.5508760000000 1.0
C      1  0.4491240000000  0.5426540000000  0.5357640000000 1.0
C      1  0.5570080000000  0.4994740000000  0.4426180000000 1.0
C      1  0.5573820000000  0.4994740000000  0.5570080000000 1.0
C      1  0.4429920000000  0.4994750000000  0.5573820000000 1.0
C      1  0.4426180000000  0.4994750000000  0.4429920000000 1.0
END
