TITL C-38189-4514-441 0.000183876201065706 125000 -365.924001970125 0 0 60 (Td) n - 1
REM
REM in /home/bkarasulu/CARBON/AIRSS/Generating-Clusters/EDIP-Nigel-Params/Higher-Symm/Box-15A/Only-C60/SD-CG/FIRE-HFTN
REM
REM
REM
REM
REM
REM ./C.cell (414f73aa93bd7a1190c7fd0f31ff2f98)
REM
REM compiler GCC version 9.2.1 20190827 (Red Hat 9.2.1-1)
REM options -cpp -mtune=generic -march=x86-64 -g -O0 -fpre-include=/usr/include/finclude/math-vector-fortran.h
REM seed -686642439 -516423515 -1379581277 -560760255 2105985403 2102907045 -1580762886 1188498273 1488081888 272023554 -792566091 -556714382 -667881145 797508831 453353064 -371562885 1980577720 1239993408 -705294483 -91893214 932472716 704011166 911182202 1884615775 1517842012 -372768972 -739859256 1221951777 1234451254 -958687998 1553048534 -1809268556 -1054386369
REM
CELL 1.54180   50.00000   50.00000   50.00000   90.00000   90.00000   90.00000
LATT -1
SFAC C  
C      1  0.5458500000000  0.5245440000000  0.5665840000000 1.0
C      1  0.5665840000000  0.5458500000000  0.5245440000000 1.0
C      1  0.5245440000000  0.5665840000000  0.5458500000000 1.0
C      1  0.4541500000000  0.4754560000000  0.5665840000000 1.0
C      1  0.4541500000000  0.5245440000000  0.4334160000000 1.0
C      1  0.5458500000000  0.4754560000000  0.4334160000000 1.0
C      1  0.4334160000000  0.4541500000000  0.5245440000000 1.0
C      1  0.4334160000000  0.5458500000000  0.4754560000000 1.0
C      1  0.5665840000000  0.4541500000000  0.4754560000000 1.0
C      1  0.4754560000000  0.4334160000000  0.5458500000000 1.0
C      1  0.4754560000000  0.5665840000000  0.4541500000000 1.0
C      1  0.5245440000000  0.4334160000000  0.4541500000000 1.0
C      1  0.5245440000000  0.5458500000000  0.5665840000000 1.0
C      1  0.5458500000000  0.5665840000000  0.5245440000000 1.0
C      1  0.5665840000000  0.5245440000000  0.5458500000000 1.0
C      1  0.4754560000000  0.4541500000000  0.5665840000000 1.0
C      1  0.5245440000000  0.4541500000000  0.4334160000000 1.0
C      1  0.4754560000000  0.5458500000000  0.4334160000000 1.0
C      1  0.4541500000000  0.4334160000000  0.5245440000000 1.0
C      1  0.5458500000000  0.4334160000000  0.4754560000000 1.0
C      1  0.4541500000000  0.5665840000000  0.4754560000000 1.0
C      1  0.4334160000000  0.4754560000000  0.5458500000000 1.0
C      1  0.5665840000000  0.4754560000000  0.4541500000000 1.0
C      1  0.4334160000000  0.5245440000000  0.4541500000000 1.0
C      1  0.5377790000000  0.5033740000000  0.4348750000000 1.0
C      1  0.4348750000000  0.5377790000000  0.5033740000000 1.0
C      1  0.5033740000000  0.4348750000000  0.5377790000000 1.0
C      1  0.4622210000000  0.4966260000000  0.4348750000000 1.0
C      1  0.4622210000000  0.5033740000000  0.5651250000000 1.0
C      1  0.5377790000000  0.4966260000000  0.5651250000000 1.0
C      1  0.5651250000000  0.4622210000000  0.5033740000000 1.0
C      1  0.5651250000000  0.5377790000000  0.4966260000000 1.0
C      1  0.4348750000000  0.4622210000000  0.4966260000000 1.0
C      1  0.4966260000000  0.5651250000000  0.5377790000000 1.0
C      1  0.4966260000000  0.4348750000000  0.4622210000000 1.0
C      1  0.5033740000000  0.5651250000000  0.4622210000000 1.0
C      1  0.5033740000000  0.5377790000000  0.4348750000000 1.0
C      1  0.5377790000000  0.4348750000000  0.5033740000000 1.0
C      1  0.4348750000000  0.5033740000000  0.5377790000000 1.0
C      1  0.4966260000000  0.4622210000000  0.4348750000000 1.0
C      1  0.5033740000000  0.4622210000000  0.5651250000000 1.0
C      1  0.4966260000000  0.5377790000000  0.5651250000000 1.0
C      1  0.4622210000000  0.5651250000000  0.5033740000000 1.0
C      1  0.5377790000000  0.5651250000000  0.4966260000000 1.0
C      1  0.4622210000000  0.4348750000000  0.4966260000000 1.0
C      1  0.5651250000000  0.4966260000000  0.5377790000000 1.0
C      1  0.4348750000000  0.4966260000000  0.4622210000000 1.0
C      1  0.5651250000000  0.5033740000000  0.4622210000000 1.0
C      1  0.4897850000000  0.5668880000000  0.5102150000000 1.0
C      1  0.5668880000000  0.5102150000000  0.4897850000000 1.0
C      1  0.5102150000000  0.4331120000000  0.5102150000000 1.0
C      1  0.5102150000000  0.5668880000000  0.4897850000000 1.0
C      1  0.4897850000000  0.5102150000000  0.5668880000000 1.0
C      1  0.5102150000000  0.5102150000000  0.4331120000000 1.0
C      1  0.4331120000000  0.4897850000000  0.4897850000000 1.0
C      1  0.4331120000000  0.5102150000000  0.5102150000000 1.0
C      1  0.5668880000000  0.4897850000000  0.5102150000000 1.0
C      1  0.5102150000000  0.4897850000000  0.5668880000000 1.0
C      1  0.4897850000000  0.4331120000000  0.4897850000000 1.0
C      1  0.4897850000000  0.4897850000000  0.4331120000000 1.0
END
