TITL C-38197-8510-638 2.06744451485419e-06 125000 -354.978353175599 0 0 60 (C1) n - 1
REM
REM in /home/bkarasulu/CARBON/AIRSS/Generating-Clusters/EDIP-Nigel-Params/Higher-Symm/Box-15A/Only-C60/SD-CG/FIRE-HFTN
REM
REM
REM
REM
REM
REM ./C.cell (414f73aa93bd7a1190c7fd0f31ff2f98)
REM
REM compiler GCC version 9.2.1 20190827 (Red Hat 9.2.1-1)
REM options -cpp -mtune=generic -march=x86-64 -g -O0 -fpre-include=/usr/include/finclude/math-vector-fortran.h
REM seed -2088419722 892677102 752364777 -1412388784 -1733253885 -2045761740 1287476664 608368470 -1519113209 -1324787804 235793259 886870296 -648867210 -1642127254 2112111245 1170471420 1088744359 -1452701192 -2082414352 -1157740535 1122116637 893592604 -322310356 -223060316 -1518898540 -591755680 724079825 -688496501 52821550 78136357 -777357214 834482192 371939121
REM
CELL 1.54180   50.00000   50.00000   50.00000   90.00000   90.00000   90.00000
LATT -1
SFAC C  
C      1  0.5534850000000  0.4752820000000  0.4811690000000 1.0
C      1  0.5323620000000  0.4744450000000  0.5479420000000 1.0
C      1  0.4674080000000  0.4736990000000  0.5489720000000 1.0
C      1  0.4472230000000  0.4753240000000  0.4805810000000 1.0
C      1  0.5004360000000  0.4742970000000  0.4432530000000 1.0
C      1  0.5546970000000  0.5260760000000  0.4819950000000 1.0
C      1  0.5355090000000  0.5260920000000  0.5446060000000 1.0
C      1  0.4653650000000  0.5250060000000  0.5455930000000 1.0
C      1  0.4444490000000  0.5262620000000  0.4839660000000 1.0
C      1  0.5010320000000  0.5252330000000  0.4433490000000 1.0
C      1  0.4764220000000  0.4362030000000  0.5080910000000 1.0
C      1  0.4850210000000  0.4360980000000  0.4803130000000 1.0
C      1  0.5139800000000  0.4362770000000  0.4798660000000 1.0
C      1  0.5234300000000  0.4360670000000  0.5074180000000 1.0
C      1  0.5002770000000  0.4362850000000  0.5249270000000 1.0
C      1  0.4767020000000  0.5630780000000  0.5082980000000 1.0
C      1  0.4848330000000  0.5631240000000  0.4803560000000 1.0
C      1  0.5138550000000  0.5635870000000  0.4794510000000 1.0
C      1  0.5237700000000  0.5634000000000  0.5066630000000 1.0
C      1  0.5007590000000  0.5634340000000  0.5246070000000 1.0
C      1  0.4691940000000  0.5549680000000  0.4584660000000 1.0
C      1  0.5297520000000  0.5559580000000  0.4575480000000 1.0
C      1  0.5500870000000  0.5564930000000  0.5141330000000 1.0
C      1  0.5006360000000  0.5545520000000  0.5512980000000 1.0
C      1  0.4508710000000  0.5562330000000  0.5174050000000 1.0
C      1  0.4694560000000  0.4439360000000  0.4581900000000 1.0
C      1  0.5295690000000  0.4440010000000  0.4577320000000 1.0
C      1  0.5486520000000  0.4447270000000  0.5161890000000 1.0
C      1  0.5008540000000  0.4433120000000  0.5522880000000 1.0
C      1  0.4507700000000  0.4449420000000  0.5155430000000 1.0
C      1  0.4341280000000  0.5356580000000  0.5081420000000 1.0
C      1  0.4744570000000  0.5338420000000  0.4408690000000 1.0
C      1  0.5479620000000  0.5346980000000  0.4561520000000 1.0
C      1  0.5578950000000  0.5353200000000  0.5308360000000 1.0
C      1  0.4862770000000  0.5332400000000  0.5625010000000 1.0
C      1  0.4365820000000  0.4667380000000  0.5051530000000 1.0
C      1  0.4742370000000  0.4649940000000  0.4402910000000 1.0
C      1  0.5471120000000  0.4657790000000  0.4557470000000 1.0
C      1  0.5547840000000  0.4662160000000  0.5330440000000 1.0
C      1  0.4874640000000  0.4640350000000  0.5657910000000 1.0
C      1  0.4266090000000  0.5141510000000  0.5243990000000 1.0
C      1  0.4562850000000  0.5129830000000  0.4375400000000 1.0
C      1  0.5438880000000  0.5136830000000  0.4381670000000 1.0
C      1  0.5733770000000  0.5138400000000  0.5217860000000 1.0
C      1  0.4994370000000  0.5125360000000  0.5758970000000 1.0
C      1  0.4275040000000  0.4871670000000  0.5218740000000 1.0
C      1  0.4559560000000  0.4859130000000  0.4373780000000 1.0
C      1  0.5430310000000  0.4865580000000  0.4374720000000 1.0
C      1  0.5712810000000  0.4868860000000  0.5240290000000 1.0
C      1  0.5010770000000  0.4854890000000  0.5776670000000 1.0
C      1  0.5013410000000  0.5158000000000  0.4713620000000 1.0
C      1  0.5281990000000  0.5167320000000  0.4918900000000 1.0
C      1  0.5190630000000  0.5154240000000  0.5226880000000 1.0
C      1  0.4803890000000  0.5138050000000  0.5230070000000 1.0
C      1  0.4713990000000  0.5171700000000  0.4926140000000 1.0
C      1  0.5003980000000  0.4837360000000  0.4714320000000 1.0
C      1  0.5274680000000  0.4852250000000  0.4905210000000 1.0
C      1  0.5149420000000  0.4848520000000  0.5265810000000 1.0
C      1  0.4834190000000  0.4830710000000  0.5259830000000 1.0
C      1  0.4731890000000  0.4860720000000  0.4889790000000 1.0
END
