TITL C-38194-9318-351 8.68517472584105e-06 125000 -361.390227147487 0 0 60 (C5) n - 1
REM
REM in /home/bkarasulu/CARBON/AIRSS/Generating-Clusters/EDIP-Nigel-Params/Higher-Symm/Box-15A/Only-C60/SD-CG/FIRE-HFTN
REM
REM
REM
REM
REM
REM ./C.cell (414f73aa93bd7a1190c7fd0f31ff2f98)
REM
REM compiler GCC version 9.2.1 20190827 (Red Hat 9.2.1-1)
REM options -cpp -mtune=generic -march=x86-64 -g -O0 -fpre-include=/usr/include/finclude/math-vector-fortran.h
REM seed 1089257739 -1900721676 -841225767 -40238877 -1416351459 760972260 1891797183 1659953270 -523827621 -1004673060 1333093030 1619199006 619739893 -250065443 -485871066 1927329591 -1515619784 41810389 -200411023 -1254594484 2083533968 -658561183 -249965911 1677432639 989020416 2132355038 683615945 266067904 176600315 -1333486340 -1508103847 1684631101 -324064873
REM
CELL 1.54180   50.00000   50.00000   50.00000   90.00000   90.00000   90.00000
LATT -1
SFAC C  
C      1  0.5245890000000  0.4171140000000  0.5065400000000 1.0
C      1  0.5245890000000  0.4681670000000  0.4231920000000 1.0
C      1  0.5245890000000  0.5632120000000  0.4459900000000 1.0
C      1  0.5245890000000  0.5709000000000  0.5434280000000 1.0
C      1  0.5245890000000  0.4806070000000  0.5808500000000 1.0
C      1  0.4754110000000  0.4171140000000  0.5065400000000 1.0
C      1  0.4754110000000  0.4681670000000  0.4231920000000 1.0
C      1  0.4754110000000  0.5632120000000  0.4459900000000 1.0
C      1  0.4754110000000  0.5709000000000  0.5434280000000 1.0
C      1  0.4754110000000  0.4806070000000  0.5808500000000 1.0
C      1  0.4588010000000  0.4690220000000  0.4576660000000 1.0
C      1  0.4588010000000  0.5306900000000  0.4574560000000 1.0
C      1  0.4588010000000  0.5499450000000  0.5160410000000 1.0
C      1  0.4588010000000  0.5001780000000  0.5524570000000 1.0
C      1  0.4588010000000  0.4501650000000  0.5163800000000 1.0
C      1  0.5411990000000  0.4690220000000  0.4576660000000 1.0
C      1  0.5411990000000  0.5306900000000  0.4574560000000 1.0
C      1  0.5411990000000  0.5499450000000  0.5160410000000 1.0
C      1  0.5411990000000  0.5001780000000  0.5524570000000 1.0
C      1  0.5411990000000  0.4501650000000  0.5163800000000 1.0
C      1  0.4705370000000  0.4415270000000  0.4619610000000 1.0
C      1  0.4705370000000  0.5181090000000  0.4326340000000 1.0
C      1  0.4705370000000  0.5696650000000  0.4964050000000 1.0
C      1  0.4705370000000  0.5249470000000  0.5651440000000 1.0
C      1  0.4705370000000  0.4457530000000  0.5438560000000 1.0
C      1  0.5294630000000  0.4415270000000  0.4619610000000 1.0
C      1  0.5294630000000  0.5181090000000  0.4326340000000 1.0
C      1  0.5294630000000  0.5696650000000  0.4964050000000 1.0
C      1  0.5294630000000  0.5249470000000  0.5651440000000 1.0
C      1  0.5294630000000  0.4457530000000  0.5438560000000 1.0
C      1  0.5151810000000  0.4198830000000  0.5348660000000 1.0
C      1  0.5151810000000  0.4420830000000  0.4345790000000 1.0
C      1  0.5151810000000  0.5443220000000  0.4247020000000 1.0
C      1  0.5151810000000  0.5853090000000  0.5188840000000 1.0
C      1  0.5151810000000  0.5084020000000  0.5869690000000 1.0
C      1  0.4848190000000  0.4198830000000  0.5348660000000 1.0
C      1  0.4848190000000  0.4420830000000  0.4345790000000 1.0
C      1  0.4848190000000  0.5443220000000  0.4247020000000 1.0
C      1  0.4848190000000  0.5853090000000  0.5188840000000 1.0
C      1  0.4848190000000  0.5084020000000  0.5869690000000 1.0
C      1  0.5156880000000  0.4398570000000  0.4889840000000 1.0
C      1  0.5156880000000  0.4918910000000  0.4393960000000 1.0
C      1  0.5156880000000  0.5551320000000  0.4735610000000 1.0
C      1  0.5156880000000  0.5421820000000  0.5442630000000 1.0
C      1  0.5156880000000  0.4709380000000  0.5537960000000 1.0
C      1  0.4843120000000  0.4398570000000  0.4889840000000 1.0
C      1  0.4843120000000  0.4918910000000  0.4393960000000 1.0
C      1  0.4843120000000  0.5551320000000  0.4735610000000 1.0
C      1  0.4843120000000  0.5421820000000  0.5442630000000 1.0
C      1  0.4843120000000  0.4709380000000  0.5537960000000 1.0
C      1  0.4668410000000  0.4764450000000  0.5066230000000 1.0
C      1  0.4668410000000  0.4864220000000  0.4796450000000 1.0
C      1  0.4668410000000  0.5151630000000  0.4807970000000 1.0
C      1  0.4668410000000  0.5229490000000  0.5084870000000 1.0
C      1  0.4668410000000  0.4990200000000  0.5244480000000 1.0
C      1  0.5331590000000  0.4764450000000  0.5066230000000 1.0
C      1  0.5331590000000  0.4864220000000  0.4796450000000 1.0
C      1  0.5331590000000  0.5151630000000  0.4807970000000 1.0
C      1  0.5331590000000  0.5229490000000  0.5084870000000 1.0
C      1  0.5331590000000  0.4990200000000  0.5244480000000 1.0
END
