TITL C-38197-8510-282 7.34468987256103e-06 125000 -379.666995181889 0 0 60 (C5) n - 1
REM
REM in /home/bkarasulu/CARBON/AIRSS/Generating-Clusters/EDIP-Nigel-Params/Higher-Symm/Box-15A/Only-C60/SD-CG/FIRE-HFTN
REM
REM
REM
REM
REM
REM ./C.cell (414f73aa93bd7a1190c7fd0f31ff2f98)
REM
REM compiler GCC version 9.2.1 20190827 (Red Hat 9.2.1-1)
REM options -cpp -mtune=generic -march=x86-64 -g -O0 -fpre-include=/usr/include/finclude/math-vector-fortran.h
REM seed 728829593 589646297 504263259 -216073722 474623893 1870488387 1276675724 1563433703 1791056292 1245104341 712904941 1116631605 -173663251 1571415468 700559989 -1165385333 -2146005391 -844536333 595027562 -284486065 -595735099 -504763674 -2005001667 -148871167 939439566 2101237640 1097917955 636186878 1979980960 -43406328 1109767475 -342636238 1192542403
REM
CELL 1.54180   50.00000   50.00000   50.00000   90.00000   90.00000   90.00000
LATT -1
SFAC C  
C      1  0.4245230000000  0.5136640000000  0.4780210000000 1.0
C      1  0.4245230000000  0.4833190000000  0.4802120000000 1.0
C      1  0.4245230000000  0.4760260000000  0.5097500000000 1.0
C      1  0.4245230000000  0.5018640000000  0.5258130000000 1.0
C      1  0.4245230000000  0.5251260000000  0.5062030000000 1.0
C      1  0.5662180000000  0.5056660000000  0.4609140000000 1.0
C      1  0.5662180000000  0.4645780000000  0.4825330000000 1.0
C      1  0.5662180000000  0.4724420000000  0.5282920000000 1.0
C      1  0.5662180000000  0.5183910000000  0.5349520000000 1.0
C      1  0.5662180000000  0.5389240000000  0.4933100000000 1.0
C      1  0.5792000000000  0.5285110000000  0.4707340000000 1.0
C      1  0.5792000000000  0.4809770000000  0.4638410000000 1.0
C      1  0.5792000000000  0.4597320000000  0.5069190000000 1.0
C      1  0.5792000000000  0.4941370000000  0.5404350000000 1.0
C      1  0.5792000000000  0.5366440000000  0.5180720000000 1.0
C      1  0.4959810000000  0.5507340000000  0.4517830000000 1.0
C      1  0.4959810000000  0.4698200000000  0.4368500000000 1.0
C      1  0.4959810000000  0.4306140000000  0.5091880000000 1.0
C      1  0.4959810000000  0.4872970000000  0.5688290000000 1.0
C      1  0.4959810000000  0.5615350000000  0.5333510000000 1.0
C      1  0.4904150000000  0.5799250000000  0.4895560000000 1.0
C      1  0.4904150000000  0.5147650000000  0.4207590000000 1.0
C      1  0.4904150000000  0.4292000000000  0.4614710000000 1.0
C      1  0.4904150000000  0.4414780000000  0.5554280000000 1.0
C      1  0.4904150000000  0.5346310000000  0.5727860000000 1.0
C      1  0.5143470000000  0.4710770000000  0.5322030000000 1.0
C      1  0.5143470000000  0.5216890000000  0.5374590000000 1.0
C      1  0.5143470000000  0.5423280000000  0.4909480000000 1.0
C      1  0.5143470000000  0.5044710000000  0.4569470000000 1.0
C      1  0.5143470000000  0.4604350000000  0.4824440000000 1.0
C      1  0.5396620000000  0.4817610000000  0.5186200000000 1.0
C      1  0.5396620000000  0.5120730000000  0.5231000000000 1.0
C      1  0.5396620000000  0.5257000000000  0.4956570000000 1.0
C      1  0.5396620000000  0.5038110000000  0.4742160000000 1.0
C      1  0.5396620000000  0.4766550000000  0.4884080000000 1.0
C      1  0.5073590000000  0.5132510000000  0.5655450000000 1.0
C      1  0.5073590000000  0.5664320000000  0.5076520000000 1.0
C      1  0.5073590000000  0.5278060000000  0.4391840000000 1.0
C      1  0.5073590000000  0.4507530000000  0.4547620000000 1.0
C      1  0.5073590000000  0.4417580000000  0.5328570000000 1.0
C      1  0.4647420000000  0.4586700000000  0.4896640000000 1.0
C      1  0.4647420000000  0.4773990000000  0.5361130000000 1.0
C      1  0.4647420000000  0.5273610000000  0.5326550000000 1.0
C      1  0.4647420000000  0.5395120000000  0.4840680000000 1.0
C      1  0.4647420000000  0.4970580000000  0.4574990000000 1.0
C      1  0.4494010000000  0.4607800000000  0.5159370000000 1.0
C      1  0.4494010000000  0.5030370000000  0.5422260000000 1.0
C      1  0.4494010000000  0.5410980000000  0.5101590000000 1.0
C      1  0.4494010000000  0.5223620000000  0.4640530000000 1.0
C      1  0.4494010000000  0.4727230000000  0.4676240000000 1.0
C      1  0.4782670000000  0.4914080000000  0.4310360000000 1.0
C      1  0.4782670000000  0.4317570000000  0.4868600000000 1.0
C      1  0.4782670000000  0.4664150000000  0.5608430000000 1.0
C      1  0.4782670000000  0.5474870000000  0.5507430000000 1.0
C      1  0.4782670000000  0.5629330000000  0.4705180000000 1.0
C      1  0.4898860000000  0.5148710000000  0.5208330000000 1.0
C      1  0.4898860000000  0.5244090000000  0.4922940000000 1.0
C      1  0.4898860000000  0.5002140000000  0.4744040000000 1.0
C      1  0.4898860000000  0.4757230000000  0.4918870000000 1.0
C      1  0.4898860000000  0.4847820000000  0.5205810000000 1.0
END
