TITL C-38185-7677-360 5.59028852673879e-05 125000 -364.532982015292 0 0 60 (D3) n - 1
REM
REM in /home/bkarasulu/CARBON/AIRSS/Generating-Clusters/EDIP-Nigel-Params/Higher-Symm/Box-15A/Only-C60/SD-CG/FIRE-HFTN
REM
REM
REM
REM
REM
REM ./C.cell (414f73aa93bd7a1190c7fd0f31ff2f98)
REM
REM compiler GCC version 9.2.1 20190827 (Red Hat 9.2.1-1)
REM options -cpp -mtune=generic -march=x86-64 -g -O0 -fpre-include=/usr/include/finclude/math-vector-fortran.h
REM seed -2061570609 2146663609 1883862966 -187457605 2053889950 1490278855 -104070117 -91896365 -1867469188 -1982072601 -1087974706 -1340040231 -1715083384 1602789687 -1929520887 91538946 2047551803 1568402611 -1400096505 -488838779 -1025186210 1773945645 1384910838 379072509 -564837214 782759758 1217595545 -612603074 -2050257181 -899288386 -284320435 -1054815305 -1460037065
REM
CELL 1.54180   50.00000   50.00000   50.00000   90.00000   90.00000   90.00000
LATT -1
SFAC C  
C      1  0.4718860000000  0.5173940000000  0.5754290000000 1.0
C      1  0.4718800000000  0.5566200000000  0.4472180000000 1.0
C      1  0.4719000000000  0.4259730000000  0.4773530000000 1.0
C      1  0.5322090000000  0.5205280000000  0.5697930000000 1.0
C      1  0.5322040000000  0.5501860000000  0.4473300000000 1.0
C      1  0.5322220000000  0.4293010000000  0.4828770000000 1.0
C      1  0.4677910000000  0.4794720000000  0.5697930000000 1.0
C      1  0.4677950000000  0.4498140000000  0.4473300000000 1.0
C      1  0.4677780000000  0.5706990000000  0.4828770000000 1.0
C      1  0.5281140000000  0.4826060000000  0.5754290000000 1.0
C      1  0.5281190000000  0.4433800000000  0.4472180000000 1.0
C      1  0.5281000000000  0.5740270000000  0.4773530000000 1.0
C      1  0.4388390000000  0.5559730000000  0.4833030000000 1.0
C      1  0.4388540000000  0.4575400000000  0.4598670000000 1.0
C      1  0.4388490000000  0.4864600000000  0.5568300000000 1.0
C      1  0.5556130000000  0.5683900000000  0.4725500000000 1.0
C      1  0.5556320000000  0.4420450000000  0.4545050000000 1.0
C      1  0.5556250000000  0.4895900000000  0.5729460000000 1.0
C      1  0.4443870000000  0.4316100000000  0.4725500000000 1.0
C      1  0.4443680000000  0.5579550000000  0.4545050000000 1.0
C      1  0.4443750000000  0.5104100000000  0.5729460000000 1.0
C      1  0.5611610000000  0.4440270000000  0.4833030000000 1.0
C      1  0.5611460000000  0.5424600000000  0.4598670000000 1.0
C      1  0.5611510000000  0.5135400000000  0.5568300000000 1.0
C      1  0.5651810000000  0.5279360000000  0.5072990000000 1.0
C      1  0.5651860000000  0.4923680000000  0.4721660000000 1.0
C      1  0.5651880000000  0.4797260000000  0.5205350000000 1.0
C      1  0.4347690000000  0.5279960000000  0.4926570000000 1.0
C      1  0.4347760000000  0.4796280000000  0.4794170000000 1.0
C      1  0.4347740000000  0.4923460000000  0.5279250000000 1.0
C      1  0.5652310000000  0.4720040000000  0.4926570000000 1.0
C      1  0.5652240000000  0.5203720000000  0.4794170000000 1.0
C      1  0.5652260000000  0.5076540000000  0.5279250000000 1.0
C      1  0.4348190000000  0.4720640000000  0.5072990000000 1.0
C      1  0.4348140000000  0.5076320000000  0.4721660000000 1.0
C      1  0.4348120000000  0.5202740000000  0.5205350000000 1.0
C      1  0.5275840000000  0.4851650000000  0.5261540000000 1.0
C      1  0.5275780000000  0.5300740000000  0.4997740000000 1.0
C      1  0.5275840000000  0.4847740000000  0.4740720000000 1.0
C      1  0.4842550000000  0.4857660000000  0.5230740000000 1.0
C      1  0.4842490000000  0.5270960000000  0.5007880000000 1.0
C      1  0.4842540000000  0.4871310000000  0.4761390000000 1.0
C      1  0.5157450000000  0.5142340000000  0.5230730000000 1.0
C      1  0.5157510000000  0.4729040000000  0.5007880000000 1.0
C      1  0.5157450000000  0.5128690000000  0.4761390000000 1.0
C      1  0.4724160000000  0.5148350000000  0.5261540000000 1.0
C      1  0.4724220000000  0.4699260000000  0.4997740000000 1.0
C      1  0.4724160000000  0.5152260000000  0.4740720000000 1.0
C      1  0.5132190000000  0.5289350000000  0.5486050000000 1.0
C      1  0.5132190000000  0.5276290000000  0.4506410000000 1.0
C      1  0.5132310000000  0.4434420000000  0.5007540000000 1.0
C      1  0.4839750000000  0.5272100000000  0.5513320000000 1.0
C      1  0.4839740000000  0.5308460000000  0.4507670000000 1.0
C      1  0.4839880000000  0.4419370000000  0.4979010000000 1.0
C      1  0.5160250000000  0.4727900000000  0.5513320000000 1.0
C      1  0.5160260000000  0.4691540000000  0.4507670000000 1.0
C      1  0.5160120000000  0.5580630000000  0.4979010000000 1.0
C      1  0.4867810000000  0.4710650000000  0.5486050000000 1.0
C      1  0.4867810000000  0.4723710000000  0.4506410000000 1.0
C      1  0.4867690000000  0.5565580000000  0.5007540000000 1.0
END
