TITL C-38184-643-518 2.0552831363792e-05 125000 -354.080872093338 0 0 60 (C3) n - 1
REM
REM in /home/bkarasulu/CARBON/AIRSS/Generating-Clusters/EDIP-Nigel-Params/Higher-Symm/Box-15A/Only-C60/SD-CG/FIRE-HFTN
REM
REM
REM
REM
REM
REM ./C.cell (414f73aa93bd7a1190c7fd0f31ff2f98)
REM
REM compiler GCC version 9.2.1 20190827 (Red Hat 9.2.1-1)
REM options -cpp -mtune=generic -march=x86-64 -g -O0 -fpre-include=/usr/include/finclude/math-vector-fortran.h
REM seed 1699677159 2010958307 -1035729943 -976732870 874303807 -1125940716 464610866 -25273992 1028456999 -1712936371 1078949723 -237688567 -1402747463 1723433415 -1556617212 -33282274 -409408225 -2094859786 -422234190 -2110724498 -1354276389 1856890440 -1314347711 318821757 1071293629 1538264971 -1711236577 -1926631304 1960046771 924989280 1473435383 -2012334387 218640882
REM
CELL 1.54180   50.00000   50.00000   50.00000   90.00000   90.00000   90.00000
LATT -1
SFAC C  
C      1  0.5077080000000  0.5785470000000  0.5159880000000 1.0
C      1  0.5073400000000  0.4470100000000  0.5597580000000 1.0
C      1  0.5075370000000  0.4746700000000  0.4240790000000 1.0
C      1  0.5299150000000  0.4665550000000  0.5639840000000 1.0
C      1  0.5301450000000  0.4614660000000  0.4390810000000 1.0
C      1  0.5301780000000  0.5720110000000  0.4970020000000 1.0
C      1  0.4718670000000  0.4798540000000  0.4991740000000 1.0
C      1  0.4719670000000  0.5096660000000  0.4834540000000 1.0
C      1  0.4719770000000  0.5103910000000  0.5172380000000 1.0
C      1  0.5285780000000  0.4381160000000  0.5141190000000 1.0
C      1  0.5284110000000  0.5186700000000  0.4393140000000 1.0
C      1  0.5286980000000  0.5433110000000  0.5466380000000 1.0
C      1  0.4856460000000  0.4345410000000  0.5026230000000 1.0
C      1  0.4854530000000  0.5301570000000  0.4422720000000 1.0
C      1  0.4857040000000  0.5352800000000  0.5553640000000 1.0
C      1  0.4845040000000  0.4636460000000  0.5440050000000 1.0
C      1  0.4845220000000  0.4798250000000  0.4461770000000 1.0
C      1  0.4845770000000  0.5568500000000  0.5095570000000 1.0
C      1  0.5289720000000  0.5703250000000  0.5352770000000 1.0
C      1  0.5287380000000  0.4343990000000  0.5431760000000 1.0
C      1  0.5287900000000  0.4954730000000  0.4214730000000 1.0
C      1  0.4441990000000  0.5157070000000  0.4738700000000 1.0
C      1  0.4441490000000  0.5153770000000  0.5271410000000 1.0
C      1  0.4439490000000  0.4688150000000  0.4990510000000 1.0
C      1  0.4758160000000  0.4413990000000  0.4754650000000 1.0
C      1  0.4757740000000  0.5500730000000  0.4618550000000 1.0
C      1  0.4759840000000  0.5082040000000  0.5625840000000 1.0
C      1  0.4483960000000  0.5461870000000  0.4749750000000 1.0
C      1  0.4484520000000  0.4988090000000  0.5527820000000 1.0
C      1  0.4481920000000  0.4544920000000  0.4719470000000 1.0
C      1  0.5250520000000  0.5219680000000  0.5080830000000 1.0
C      1  0.5250970000000  0.4821950000000  0.5151460000000 1.0
C      1  0.5250300000000  0.4957980000000  0.4770010000000 1.0
C      1  0.4918980000000  0.4624760000000  0.5142120000000 1.0
C      1  0.4919100000000  0.5060870000000  0.4605240000000 1.0
C      1  0.4919610000000  0.5316440000000  0.5253530000000 1.0
C      1  0.4532190000000  0.4752250000000  0.4489620000000 1.0
C      1  0.4532250000000  0.5563810000000  0.5042290000000 1.0
C      1  0.4532500000000  0.4684430000000  0.5464780000000 1.0
C      1  0.5553390000000  0.5220060000000  0.5132200000000 1.0
C      1  0.5553930000000  0.4776730000000  0.5125650000000 1.0
C      1  0.5553180000000  0.5004020000000  0.4744970000000 1.0
C      1  0.5235740000000  0.4640930000000  0.4678590000000 1.0
C      1  0.5234960000000  0.5456800000000  0.4850360000000 1.0
C      1  0.5235710000000  0.4901690000000  0.5471820000000 1.0
C      1  0.5659710000000  0.4995500000000  0.5273210000000 1.0
C      1  0.5659610000000  0.4767030000000  0.4860450000000 1.0
C      1  0.5658600000000  0.5238810000000  0.4868830000000 1.0
C      1  0.4944410000000  0.4902920000000  0.5496010000000 1.0
C      1  0.4945040000000  0.4612610000000  0.4660370000000 1.0
C      1  0.4943370000000  0.5479490000000  0.4837360000000 1.0
C      1  0.5101840000000  0.5410060000000  0.5686760000000 1.0
C      1  0.5101320000000  0.4201600000000  0.5010520000000 1.0
C      1  0.5098130000000  0.5388460000000  0.4304440000000 1.0
C      1  0.5366380000000  0.5158670000000  0.5562130000000 1.0
C      1  0.5366820000000  0.4434770000000  0.4856070000000 1.0
C      1  0.5364960000000  0.5405910000000  0.4582530000000 1.0
C      1  0.4386270000000  0.4995600000000  0.4514690000000 1.0
C      1  0.4384090000000  0.5427920000000  0.5244220000000 1.0
C      1  0.4384730000000  0.4580030000000  0.5244700000000 1.0
END
