TITL C-38193-7935-170 -4.59395509859216e-07 125000 -365.903667459552 0 0 60 (C1) n - 1
REM
REM in /home/bkarasulu/CARBON/AIRSS/Generating-Clusters/EDIP-Nigel-Params/Higher-Symm/Box-15A/Only-C60/SD-CG/FIRE-HFTN
REM
REM
REM
REM
REM
REM ./C.cell (414f73aa93bd7a1190c7fd0f31ff2f98)
REM
REM compiler GCC version 9.2.1 20190827 (Red Hat 9.2.1-1)
REM options -cpp -mtune=generic -march=x86-64 -g -O0 -fpre-include=/usr/include/finclude/math-vector-fortran.h
REM seed -1024346266 148718065 -53292492 -2133253938 -691803223 -1367083773 -1869947093 755493430 -1394725516 1130665458 1489208406 -1236478359 918369937 -256053110 743342496 -1152504395 1079516646 1992011173 1388119996 1530902547 -1253971326 2055253733 -1888391478 2012377758 1100631306 -1528430450 -1283924457 -643622170 1688222023 1888267480 -653765756 -2098771944 1700374168
REM
CELL 1.54180   50.00000   50.00000   50.00000   90.00000   90.00000   90.00000
LATT -1
SFAC C  
C      1  0.4864600000000  0.5545370000000  0.5223890000000 1.0
C      1  0.4882760000000  0.4414740000000  0.4766480000000 1.0
C      1  0.5099120000000  0.4438200000000  0.5243720000000 1.0
C      1  0.5084360000000  0.5574420000000  0.4742200000000 1.0
C      1  0.4859730000000  0.5224290000000  0.5602530000000 1.0
C      1  0.4888840000000  0.4750880000000  0.4396430000000 1.0
C      1  0.5098700000000  0.5226670000000  0.4377330000000 1.0
C      1  0.5100600000000  0.4770040000000  0.5611200000000 1.0
C      1  0.5795340000000  0.4883170000000  0.5542660000000 1.0
C      1  0.5790110000000  0.5118330000000  0.4468800000000 1.0
C      1  0.4163130000000  0.5139460000000  0.5548350000000 1.0
C      1  0.4195850000000  0.4892210000000  0.4478450000000 1.0
C      1  0.5776370000000  0.5522760000000  0.4872620000000 1.0
C      1  0.5789130000000  0.4478390000000  0.5140400000000 1.0
C      1  0.4177130000000  0.5537500000000  0.5141240000000 1.0
C      1  0.4189360000000  0.4491630000000  0.4888390000000 1.0
C      1  0.5346900000000  0.5650830000000  0.4695710000000 1.0
C      1  0.5355300000000  0.4351330000000  0.5306490000000 1.0
C      1  0.4617420000000  0.4349500000000  0.4719070000000 1.0
C      1  0.4618020000000  0.5650330000000  0.5296520000000 1.0
C      1  0.5364230000000  0.4719740000000  0.5683500000000 1.0
C      1  0.5363490000000  0.5285410000000  0.4318420000000 1.0
C      1  0.4620370000000  0.4707550000000  0.4339900000000 1.0
C      1  0.4601480000000  0.5289870000000  0.5682380000000 1.0
C      1  0.5905790000000  0.5413810000000  0.5078500000000 1.0
C      1  0.5915690000000  0.4589520000000  0.4933820000000 1.0
C      1  0.4057260000000  0.4604460000000  0.5090390000000 1.0
C      1  0.4053690000000  0.5426840000000  0.4932490000000 1.0
C      1  0.5920730000000  0.5084650000000  0.5421240000000 1.0
C      1  0.5918180000000  0.4919020000000  0.4590940000000 1.0
C      1  0.4063580000000  0.5092010000000  0.4595140000000 1.0
C      1  0.4035140000000  0.4939460000000  0.5427000000000 1.0
C      1  0.4365690000000  0.5326350000000  0.5540240000000 1.0
C      1  0.4386570000000  0.4693650000000  0.4488250000000 1.0
C      1  0.5598500000000  0.4690360000000  0.5537840000000 1.0
C      1  0.5593870000000  0.5311740000000  0.4470570000000 1.0
C      1  0.4373370000000  0.5524840000000  0.5334430000000 1.0
C      1  0.4384010000000  0.4496070000000  0.4693610000000 1.0
C      1  0.5585240000000  0.5511110000000  0.4674570000000 1.0
C      1  0.5594650000000  0.4488720000000  0.5335400000000 1.0
C      1  0.4812690000000  0.4868800000000  0.5217600000000 1.0
C      1  0.4770430000000  0.5191280000000  0.4759500000000 1.0
C      1  0.5124210000000  0.5101940000000  0.5194730000000 1.0
C      1  0.5215490000000  0.4780430000000  0.4777270000000 1.0
C      1  0.6024920000000  0.4817190000000  0.4823650000000 1.0
C      1  0.6022290000000  0.5189200000000  0.5187410000000 1.0
C      1  0.3948460000000  0.5197330000000  0.4822270000000 1.0
C      1  0.3939210000000  0.4831500000000  0.5192260000000 1.0
C      1  0.5019030000000  0.4699090000000  0.5342400000000 1.0
C      1  0.4932310000000  0.5281670000000  0.5327100000000 1.0
C      1  0.4989600000000  0.5328710000000  0.4625570000000 1.0
C      1  0.4988940000000  0.4659130000000  0.4653940000000 1.0
C      1  0.4975160000000  0.5631890000000  0.4987280000000 1.0
C      1  0.4987310000000  0.4345990000000  0.5010430000000 1.0
C      1  0.4978150000000  0.4997920000000  0.5707680000000 1.0
C      1  0.5001000000000  0.4982150000000  0.4296280000000 1.0
C      1  0.4780270000000  0.4942500000000  0.4926170000000 1.0
C      1  0.5086620000000  0.5010390000000  0.4908470000000 1.0
C      1  0.3852670000000  0.5013300000000  0.5003880000000 1.0
C      1  0.6114900000000  0.5004350000000  0.5005000000000 1.0
END
