TITL C-38187-2739-467 -3.8682253272077e-07 125000 -360.498947497755 0 0 60 (C1) n - 1
REM
REM in /home/bkarasulu/CARBON/AIRSS/Generating-Clusters/EDIP-Nigel-Params/Higher-Symm/Box-15A/Only-C60/SD-CG/FIRE-HFTN
REM
REM
REM
REM
REM
REM ./C.cell (414f73aa93bd7a1190c7fd0f31ff2f98)
REM
REM compiler GCC version 9.2.1 20190827 (Red Hat 9.2.1-1)
REM options -cpp -mtune=generic -march=x86-64 -g -O0 -fpre-include=/usr/include/finclude/math-vector-fortran.h
REM seed -1895719564 130151460 2081485449 -399616510 1705800590 302098452 796102389 121632473 2033224519 419390825 -929843468 -171296716 40059912 -542128287 -1967928921 -476105472 1990178551 -974499627 -553956598 -1008793601 -1018397059 1965163875 850759777 -2130346169 87993494 2112540557 516229369 812873468 -1412084010 -1423084190 -697480117 269326961 851267409
REM
CELL 1.54180   50.00000   50.00000   50.00000   90.00000   90.00000   90.00000
LATT -1
SFAC C  
C      1  0.4622250000000  0.5549360000000  0.4801580000000 1.0
C      1  0.4828910000000  0.4223490000000  0.4564030000000 1.0
C      1  0.4608120000000  0.5040530000000  0.5252730000000 1.0
C      1  0.5018530000000  0.4055470000000  0.4656190000000 1.0
C      1  0.4689500000000  0.4741230000000  0.4567410000000 1.0
C      1  0.4888690000000  0.4658620000000  0.5561840000000 1.0
C      1  0.4669820000000  0.5472320000000  0.5392000000000 1.0
C      1  0.5457020000000  0.5036960000000  0.5558060000000 1.0
C      1  0.5815310000000  0.4922410000000  0.4913810000000 1.0
C      1  0.4972710000000  0.4261630000000  0.5276770000000 1.0
C      1  0.4416910000000  0.4686080000000  0.4979970000000 1.0
C      1  0.4975000000000  0.4706700000000  0.5032440000000 1.0
C      1  0.4680630000000  0.4443230000000  0.4653430000000 1.0
C      1  0.5321000000000  0.5542740000000  0.5124090000000 1.0
C      1  0.5149190000000  0.5763110000000  0.4629820000000 1.0
C      1  0.5202710000000  0.4747690000000  0.5210760000000 1.0
C      1  0.4398990000000  0.5427530000000  0.4966360000000 1.0
C      1  0.4948680000000  0.4906440000000  0.4454820000000 1.0
C      1  0.5381680000000  0.4952970000000  0.4696590000000 1.0
C      1  0.4469340000000  0.5322270000000  0.5231820000000 1.0
C      1  0.5054500000000  0.5859770000000  0.4864730000000 1.0
C      1  0.4817920000000  0.5592370000000  0.4350760000000 1.0
C      1  0.5451110000000  0.5118070000000  0.5259920000000 1.0
C      1  0.5146320000000  0.5401840000000  0.5589530000000 1.0
C      1  0.4727690000000  0.5041810000000  0.4322570000000 1.0
C      1  0.5678170000000  0.5289340000000  0.5178800000000 1.0
C      1  0.4455130000000  0.4779960000000  0.5270290000000 1.0
C      1  0.4820600000000  0.5769920000000  0.5006080000000 1.0
C      1  0.5089120000000  0.5592500000000  0.4416580000000 1.0
C      1  0.5673490000000  0.4744390000000  0.5094030000000 1.0
C      1  0.5172880000000  0.5080680000000  0.4532390000000 1.0
C      1  0.5090970000000  0.4431490000000  0.5503240000000 1.0
C      1  0.5637940000000  0.5106580000000  0.4773030000000 1.0
C      1  0.5415030000000  0.4886710000000  0.5078650000000 1.0
C      1  0.4751280000000  0.5113470000000  0.5500310000000 1.0
C      1  0.5135160000000  0.4667050000000  0.4780080000000 1.0
C      1  0.4527440000000  0.5217220000000  0.4447770000000 1.0
C      1  0.5152430000000  0.4137310000000  0.5102860000000 1.0
C      1  0.4976000000000  0.4948980000000  0.5533600000000 1.0
C      1  0.5204430000000  0.5273450000000  0.5182610000000 1.0
C      1  0.4859540000000  0.5671490000000  0.5292930000000 1.0
C      1  0.4890420000000  0.5423690000000  0.4843390000000 1.0
C      1  0.5205200000000  0.4166200000000  0.4831180000000 1.0
C      1  0.4793820000000  0.4470680000000  0.5142520000000 1.0
C      1  0.5201050000000  0.5336800000000  0.4423940000000 1.0
C      1  0.5267420000000  0.4426110000000  0.4757780000000 1.0
C      1  0.4392930000000  0.5092810000000  0.4677390000000 1.0
C      1  0.4574620000000  0.4431340000000  0.4929590000000 1.0
C      1  0.5187620000000  0.5122320000000  0.5648240000000 1.0
C      1  0.4567620000000  0.4885710000000  0.4802920000000 1.0
C      1  0.4800920000000  0.4973840000000  0.5012680000000 1.0
C      1  0.4594160000000  0.5505980000000  0.4496570000000 1.0
C      1  0.4992390000000  0.5200230000000  0.4979340000000 1.0
C      1  0.4224820000000  0.5258360000000  0.4827550000000 1.0
C      1  0.4649280000000  0.4578830000000  0.5383860000000 1.0
C      1  0.5515270000000  0.4739100000000  0.5580530000000 1.0
C      1  0.5594240000000  0.5362220000000  0.4918240000000 1.0
C      1  0.5714190000000  0.4667560000000  0.5372250000000 1.0
C      1  0.5142500000000  0.5613590000000  0.5380810000000 1.0
C      1  0.5339360000000  0.4559440000000  0.5385920000000 1.0
END
