TITL C-38195-9455-343 267.524094763377 125000 -363.002256834642 0 0 60 (C1) n - 1
REM
REM in /home/bkarasulu/CARBON/AIRSS/Generating-Clusters/EDIP-Nigel-Params/Higher-Symm/Box-15A/Only-C60/SD-CG/FIRE-HFTN
REM
REM
REM
REM
REM
REM ./C.cell (414f73aa93bd7a1190c7fd0f31ff2f98)
REM
REM compiler GCC version 9.2.1 20190827 (Red Hat 9.2.1-1)
REM options -cpp -mtune=generic -march=x86-64 -g -O0 -fpre-include=/usr/include/finclude/math-vector-fortran.h
REM seed 118173820 -165334337 -2036855083 -1297682029 -882477635 -1173171826 -1450972470 -2053909306 -1043585081 1011832014 -895785512 852194351 1258264233 -84855024 -1826329316 1860624533 -260058321 425199011 -1049758614 -1335400897 -660340988 -2001172498 1544408387 -673463895 -1291840153 1362774010 -1309713401 -376232307 -925218973 1958320916 1845115582 137500576 -866636819
REM
CELL 1.54180   50.00000   50.00000   50.00000   90.00000   90.00000   90.00000
LATT -1
SFAC C  
C      1  0.4212570000000  0.5704990000000  0.4681110000000 1.0
C      1  0.3992220000000  0.5191240000000  0.4335950000000 1.0
C      1  0.4371040000000  0.4595340000000  0.4366020000000 1.0
C      1  0.4239910000000  0.4206810000000  0.4886010000000 1.0
C      1  0.4117740000000  0.4484420000000  0.5571710000000 1.0
C      1  0.4495950000000  0.5110150000000  0.5723340000000 1.0
C      1  0.4656260000000  0.5576620000000  0.5283220000000 1.0
C      1  0.5891650000000  0.4880960000000  0.4830180000000 1.0
C      1  0.6023390000000  0.4680350000000  0.5019320000000 1.0
C      1  0.5997190000000  0.4776890000000  0.5302260000000 1.0
C      1  0.5839220000000  0.5041590000000  0.5306490000000 1.0
C      1  0.5941200000000  0.5324420000000  0.5242660000000 1.0
C      1  0.5868530000000  0.5303770000000  0.4950360000000 1.0
C      1  0.6016890000000  0.5146490000000  0.4735520000000 1.0
C      1  0.5636130000000  0.5422610000000  0.4591380000000 1.0
C      1  0.5673990000000  0.4950190000000  0.4443800000000 1.0
C      1  0.5646700000000  0.4526370000000  0.4723620000000 1.0
C      1  0.5640560000000  0.4468860000000  0.5212700000000 1.0
C      1  0.5582200000000  0.4794510000000  0.5574590000000 1.0
C      1  0.5523060000000  0.5294240000000  0.5503070000000 1.0
C      1  0.5531770000000  0.5560700000000  0.5074400000000 1.0
C      1  0.5337490000000  0.5331420000000  0.4991680000000 1.0
C      1  0.5430240000000  0.5252350000000  0.4715630000000 1.0
C      1  0.5447830000000  0.4970780000000  0.4633530000000 1.0
C      1  0.5420360000000  0.4715640000000  0.4813510000000 1.0
C      1  0.5437130000000  0.4672610000000  0.5136400000000 1.0
C      1  0.5376300000000  0.4850580000000  0.5369010000000 1.0
C      1  0.5331200000000  0.5141870000000  0.5333600000000 1.0
C      1  0.4537820000000  0.5006640000000  0.5264960000000 1.0
C      1  0.4552220000000  0.5295300000000  0.4896860000000 1.0
C      1  0.4337130000000  0.5252010000000  0.4724700000000 1.0
C      1  0.4302480000000  0.4986610000000  0.4639940000000 1.0
C      1  0.4452850000000  0.4779630000000  0.4806360000000 1.0
C      1  0.4312430000000  0.4659050000000  0.5052540000000 1.0
C      1  0.4377800000000  0.4781340000000  0.5300260000000 1.0
C      1  0.4376960000000  0.5739120000000  0.4901850000000 1.0
C      1  0.4025590000000  0.5449660000000  0.4429600000000 1.0
C      1  0.4155540000000  0.4727070000000  0.4266080000000 1.0
C      1  0.4428990000000  0.4301820000000  0.4717870000000 1.0
C      1  0.4105220000000  0.4343140000000  0.5340940000000 1.0
C      1  0.4338200000000  0.4888150000000  0.5762710000000 1.0
C      1  0.4661450000000  0.5412720000000  0.5501850000000 1.0
C      1  0.5733010000000  0.5555360000000  0.4845500000000 1.0
C      1  0.5839140000000  0.5209940000000  0.4490370000000 1.0
C      1  0.5815780000000  0.4723760000000  0.4575270000000 1.0
C      1  0.5817200000000  0.4453520000000  0.4972510000000 1.0
C      1  0.5786050000000  0.4601480000000  0.5440920000000 1.0
C      1  0.5704010000000  0.5068060000000  0.5579640000000 1.0
C      1  0.5688080000000  0.5485100000000  0.5330500000000 1.0
C      1  0.4262800000000  0.4721220000000  0.5552520000000 1.0
C      1  0.4638470000000  0.5142710000000  0.5494850000000 1.0
C      1  0.4538420000000  0.5549680000000  0.5032870000000 1.0
C      1  0.4255740000000  0.5467880000000  0.4564550000000 1.0
C      1  0.4119930000000  0.4956250000000  0.4420980000000 1.0
C      1  0.4495660000000  0.4549160000000  0.4610980000000 1.0
C      1  0.4197350000000  0.4398190000000  0.5083960000000 1.0
C      1  0.4640810000000  0.5026060000000  0.4989750000000 1.0
C      1  0.4921990000000  0.4994210000000  0.4974840000000 1.0
C      1  0.5622600000000  0.5010710000000  0.5034360000000 1.0
C      1  0.5201600000000  0.5007120000000  0.4997420000000 1.0
END
