TITL C-38193-7935-289 5.0340728708867e-06 125000 -377.408029199731 0 0 60 (C1) n - 1
REM
REM in /home/bkarasulu/CARBON/AIRSS/Generating-Clusters/EDIP-Nigel-Params/Higher-Symm/Box-15A/Only-C60/SD-CG/FIRE-HFTN
REM
REM
REM
REM
REM
REM ./C.cell (414f73aa93bd7a1190c7fd0f31ff2f98)
REM
REM compiler GCC version 9.2.1 20190827 (Red Hat 9.2.1-1)
REM options -cpp -mtune=generic -march=x86-64 -g -O0 -fpre-include=/usr/include/finclude/math-vector-fortran.h
REM seed -452427284 -360724663 486160543 -903638301 -551278329 422002119 -404663015 635957278 941269770 -47000385 553752849 -509882945 -572981212 87815273 1937915082 -1119984623 -1410240056 1151918940 917729995 171192236 1708455761 369237771 1251910396 108466687 1609032597 -1513279067 -855042060 -1817476008 1759795539 -1081201360 -1086997118 -182785874 1447185993
REM
CELL 1.54180   50.00000   50.00000   50.00000   90.00000   90.00000   90.00000
LATT -1
SFAC C  
C      1  0.5366190000000  0.5009510000000  0.4376210000000 1.0
C      1  0.5177950000000  0.4308220000000  0.5318240000000 1.0
C      1  0.4293230000000  0.5348110000000  0.5233970000000 1.0
C      1  0.5211890000000  0.4946160000000  0.5732810000000 1.0
C      1  0.4775160000000  0.5023980000000  0.5696590000000 1.0
C      1  0.4753440000000  0.4943810000000  0.4299950000000 1.0
C      1  0.5190710000000  0.5610170000000  0.4608870000000 1.0
C      1  0.4832970000000  0.4271440000000  0.4667340000000 1.0
C      1  0.4885820000000  0.5687310000000  0.5352790000000 1.0
C      1  0.4272890000000  0.4636140000000  0.4778910000000 1.0
C      1  0.5795540000000  0.5276280000000  0.4914790000000 1.0
C      1  0.5647750000000  0.4761080000000  0.5168520000000 1.0
C      1  0.4636400000000  0.5163730000000  0.4433870000000 1.0
C      1  0.4936680000000  0.4170770000000  0.5270550000000 1.0
C      1  0.5741660000000  0.5488730000000  0.5093580000000 1.0
C      1  0.4659610000000  0.4809260000000  0.5552890000000 1.0
C      1  0.5312000000000  0.5197700000000  0.5657870000000 1.0
C      1  0.5271820000000  0.4753810000000  0.4334710000000 1.0
C      1  0.4986210000000  0.5766580000000  0.4728780000000 1.0
C      1  0.5081760000000  0.4147510000000  0.4710020000000 1.0
C      1  0.5133190000000  0.5795590000000  0.5292440000000 1.0
C      1  0.5611620000000  0.4651760000000  0.4915890000000 1.0
C      1  0.4358790000000  0.5421810000000  0.4973980000000 1.0
C      1  0.4332540000000  0.4557130000000  0.5038590000000 1.0
C      1  0.4822330000000  0.4582890000000  0.5457840000000 1.0
C      1  0.4757900000000  0.5599880000000  0.4711970000000 1.0
C      1  0.5660440000000  0.4816150000000  0.4699030000000 1.0
C      1  0.4804180000000  0.5380270000000  0.4528200000000 1.0
C      1  0.5143010000000  0.4548920000000  0.4474010000000 1.0
C      1  0.5129890000000  0.5408430000000  0.5660180000000 1.0
C      1  0.4720870000000  0.4352720000000  0.5303320000000 1.0
C      1  0.5392110000000  0.5709100000000  0.5256180000000 1.0
C      1  0.5271860000000  0.4352260000000  0.4654290000000 1.0
C      1  0.5629720000000  0.5422670000000  0.5357420000000 1.0
C      1  0.4281490000000  0.4731160000000  0.5245850000000 1.0
C      1  0.4286730000000  0.5257180000000  0.4764360000000 1.0
C      1  0.5310010000000  0.4762740000000  0.5542370000000 1.0
C      1  0.5399450000000  0.5500020000000  0.4783190000000 1.0
C      1  0.4427120000000  0.4794180000000  0.4607520000000 1.0
C      1  0.5218660000000  0.5228120000000  0.4299040000000 1.0
C      1  0.4660780000000  0.4719910000000  0.4447120000000 1.0
C      1  0.4687150000000  0.5253290000000  0.5555800000000 1.0
C      1  0.5379320000000  0.4289460000000  0.5127690000000 1.0
C      1  0.4678640000000  0.5722450000000  0.5172710000000 1.0
C      1  0.4622990000000  0.4224770000000  0.4843350000000 1.0
C      1  0.4453130000000  0.5184950000000  0.5394510000000 1.0
C      1  0.5517350000000  0.4891150000000  0.5378100000000 1.0
C      1  0.5595970000000  0.5294960000000  0.4719340000000 1.0
C      1  0.4406770000000  0.5081340000000  0.4587080000000 1.0
C      1  0.4598640000000  0.5576450000000  0.4951390000000 1.0
C      1  0.5417610000000  0.4439570000000  0.4896330000000 1.0
C      1  0.4421300000000  0.4898730000000  0.5415710000000 1.0
C      1  0.5497740000000  0.5178070000000  0.5438350000000 1.0
C      1  0.5526240000000  0.5039760000000  0.4607470000000 1.0
C      1  0.4860420000000  0.4523240000000  0.4529230000000 1.0
C      1  0.4561140000000  0.4386410000000  0.5061410000000 1.0
C      1  0.4894240000000  0.5453410000000  0.5518940000000 1.0
C      1  0.5116090000000  0.4563730000000  0.5441910000000 1.0
C      1  0.5065320000000  0.5426910000000  0.4417800000000 1.0
C      1  0.5517610000000  0.5658140000000  0.4998840000000 1.0
END
