TITL C-38193-7935-251 3.39339992806465e-06 125000 -363.111584788989 0 0 60 (C4) n - 1
REM
REM in /home/bkarasulu/CARBON/AIRSS/Generating-Clusters/EDIP-Nigel-Params/Higher-Symm/Box-15A/Only-C60/SD-CG/FIRE-HFTN
REM
REM
REM
REM
REM
REM ./C.cell (414f73aa93bd7a1190c7fd0f31ff2f98)
REM
REM compiler GCC version 9.2.1 20190827 (Red Hat 9.2.1-1)
REM options -cpp -mtune=generic -march=x86-64 -g -O0 -fpre-include=/usr/include/finclude/math-vector-fortran.h
REM seed 128622003 534756875 642888650 -132615206 1190350621 -620313138 -2063809606 895567427 -2117276858 -1508286840 -815477269 1561426566 -206498520 -1435683671 -1825197615 470994198 1734405376 1775513126 -1311070306 1038566035 2096600517 33121312 -918599892 -241299985 2028531421 377755789 2146569634 -1452912129 1708566202 -1914432729 -1236518294 -1173539198 44079627
REM
CELL 1.54180   50.00000   50.00000   50.00000   90.00000   90.00000   90.00000
LATT -1
SFAC C  
C      1  0.5625500000000  0.4664270000000  0.5147170000000 1.0
C      1  0.5625500000000  0.4852830000000  0.4664270000000 1.0
C      1  0.5625500000000  0.5335730000000  0.4852830000000 1.0
C      1  0.5625500000000  0.5147170000000  0.5335730000000 1.0
C      1  0.5552340000000  0.4664210000000  0.4870450000000 1.0
C      1  0.5552340000000  0.4870450000000  0.5335790000000 1.0
C      1  0.5552340000000  0.5335790000000  0.5129550000000 1.0
C      1  0.5552340000000  0.5129550000000  0.4664210000000 1.0
C      1  0.5516020000000  0.5576500000000  0.4755240000000 1.0
C      1  0.5516020000000  0.5244760000000  0.5576500000000 1.0
C      1  0.5516020000000  0.4423500000000  0.5244760000000 1.0
C      1  0.5516020000000  0.4755240000000  0.4423500000000 1.0
C      1  0.5479570000000  0.5591430000000  0.5222500000000 1.0
C      1  0.5479570000000  0.5222500000000  0.4408570000000 1.0
C      1  0.5479570000000  0.4408570000000  0.4777500000000 1.0
C      1  0.5479570000000  0.4777500000000  0.5591430000000 1.0
C      1  0.4986630000000  0.5460790000000  0.5197980000000 1.0
C      1  0.4986630000000  0.4802020000000  0.5460790000000 1.0
C      1  0.4986630000000  0.4539210000000  0.4802020000000 1.0
C      1  0.4986630000000  0.5197980000000  0.4539210000000 1.0
C      1  0.5004150000000  0.5470860000000  0.4811480000000 1.0
C      1  0.5004150000000  0.4811480000000  0.4529140000000 1.0
C      1  0.5004150000000  0.4529140000000  0.5188520000000 1.0
C      1  0.5004150000000  0.5188520000000  0.5470860000000 1.0
C      1  0.4507990000000  0.4422680000000  0.4753620000000 1.0
C      1  0.4507990000000  0.5246380000000  0.4422680000000 1.0
C      1  0.4507990000000  0.5577320000000  0.5246380000000 1.0
C      1  0.4507990000000  0.4753620000000  0.5577320000000 1.0
C      1  0.4537010000000  0.4423550000000  0.5256000000000 1.0
C      1  0.4537010000000  0.5256000000000  0.5576450000000 1.0
C      1  0.4537020000000  0.5576450000000  0.4744000000000 1.0
C      1  0.4537020000000  0.4744000000000  0.4423550000000 1.0
C      1  0.5231310000000  0.5351360000000  0.4452440000000 1.0
C      1  0.5231310000000  0.5547560000000  0.5351360000000 1.0
C      1  0.5231300000000  0.4648640000000  0.5547560000000 1.0
C      1  0.5231310000000  0.4452440000000  0.4648640000000 1.0
C      1  0.5250610000000  0.5345950000000  0.5560830000000 1.0
C      1  0.5250610000000  0.5560830000000  0.4654050000000 1.0
C      1  0.5250610000000  0.4654050000000  0.4439170000000 1.0
C      1  0.5250610000000  0.4439170000000  0.5345960000000 1.0
C      1  0.4462560000000  0.4857190000000  0.4668000000000 1.0
C      1  0.4462560000000  0.5332000000000  0.4857190000000 1.0
C      1  0.4462560000000  0.5142810000000  0.5332000000000 1.0
C      1  0.4462560000000  0.4668000000000  0.5142810000000 1.0
C      1  0.4399480000000  0.4862350000000  0.5342630000000 1.0
C      1  0.4399480000000  0.5342630000000  0.5137650000000 1.0
C      1  0.4399480000000  0.5137650000000  0.4657370000000 1.0
C      1  0.4399480000000  0.4657370000000  0.4862350000000 1.0
C      1  0.4793430000000  0.5682160000000  0.4785510000000 1.0
C      1  0.4793430000000  0.5214490000000  0.5682160000000 1.0
C      1  0.4793430000000  0.4317840000000  0.5214490000000 1.0
C      1  0.4793430000000  0.4785510000000  0.4317840000000 1.0
C      1  0.4773190000000  0.5671450000000  0.5226930000000 1.0
C      1  0.4773190000000  0.5226930000000  0.4328550000000 1.0
C      1  0.4773190000000  0.4328550000000  0.4773070000000 1.0
C      1  0.4773190000000  0.4773070000000  0.5671450000000 1.0
C      1  0.4801880000000  0.4988550000000  0.5852390000000 1.0
C      1  0.4801880000000  0.5011450000000  0.4147610000000 1.0
C      1  0.4801880000000  0.5852390000000  0.5011450000000 1.0
C      1  0.4801880000000  0.4147610000000  0.4988540000000 1.0
END
