TITL C-38190-6388-78 7.14489768118324e-06 125000 -357.438902252515 0 0 60 (C5) n - 1
REM
REM in /home/bkarasulu/CARBON/AIRSS/Generating-Clusters/EDIP-Nigel-Params/Higher-Symm/Box-15A/Only-C60/SD-CG/FIRE-HFTN
REM
REM
REM
REM
REM
REM ./C.cell (414f73aa93bd7a1190c7fd0f31ff2f98)
REM
REM compiler GCC version 9.2.1 20190827 (Red Hat 9.2.1-1)
REM options -cpp -mtune=generic -march=x86-64 -g -O0 -fpre-include=/usr/include/finclude/math-vector-fortran.h
REM seed 419573255 -891227803 -759069652 429824955 834582213 -89637900 999894341 -1919911590 1004806431 1969005867 910567201 1358211627 793008672 -183242035 957145033 -1742032024 -401353283 754562542 1929937817 -129534916 1612399877 520464457 913913198 219322994 -437687928 -684804384 583393377 601900009 -480784114 -1438159905 1442287880 -1061090477 -1489626029
REM
CELL 1.54180   50.00000   50.00000   50.00000   90.00000   90.00000   90.00000
LATT -1
SFAC C  
C      1  0.5032080000000  0.4758120000000  0.4823000000000 1.0
C      1  0.5239950000000  0.4955760000000  0.4823010000000 1.0
C      1  0.5116220000000  0.5214540000000  0.4823010000000 1.0
C      1  0.4831880000000  0.5176830000000  0.4823010000000 1.0
C      1  0.4779870000000  0.4894750000000  0.4823000000000 1.0
C      1  0.5804900000000  0.4596910000000  0.5270870000000 1.0
C      1  0.5632090000000  0.5640950000000  0.5270870000000 1.0
C      1  0.4585750000000  0.5799210000000  0.5270870000000 1.0
C      1  0.4111890000000  0.4852990000000  0.5270860000000 1.0
C      1  0.4865370000000  0.4109930000000  0.5270860000000 1.0
C      1  0.5668500000000  0.4627180000000  0.4669460000000 1.0
C      1  0.5561160000000  0.5520570000000  0.4669470000000 1.0
C      1  0.4678310000000  0.5694560000000  0.4669460000000 1.0
C      1  0.4240030000000  0.4908690000000  0.4669460000000 1.0
C      1  0.4852000000000  0.4249010000000  0.4669460000000 1.0
C      1  0.4762350000000  0.5086680000000  0.5356510000000 1.0
C      1  0.4844120000000  0.4800770000000  0.5356510000000 1.0
C      1  0.5141310000000  0.4790180000000  0.5356510000000 1.0
C      1  0.5243210000000  0.5069560000000  0.5356510000000 1.0
C      1  0.5009000000000  0.5252800000000  0.5356510000000 1.0
C      1  0.5131480000000  0.5698360000000  0.4768380000000 1.0
C      1  0.4376450000000  0.5340850000000  0.4768380000000 1.0
C      1  0.4483150000000  0.4512300000000  0.4768370000000 1.0
C      1  0.5304120000000  0.4357740000000  0.4768380000000 1.0
C      1  0.5704800000000  0.5090760000000  0.4768380000000 1.0
C      1  0.5556340000000  0.5400260000000  0.5131180000000 1.0
C      1  0.4791240000000  0.5652800000000  0.5131170000000 1.0
C      1  0.4314640000000  0.5003190000000  0.5131170000000 1.0
C      1  0.4785180000000  0.4349170000000  0.5131170000000 1.0
C      1  0.5552590000000  0.4594580000000  0.5131170000000 1.0
C      1  0.4413370000000  0.5454350000000  0.5250810000000 1.0
C      1  0.4386600000000  0.4582480000000  0.5250810000000 1.0
C      1  0.5207530000000  0.4287610000000  0.5250810000000 1.0
C      1  0.5741650000000  0.4977230000000  0.5250810000000 1.0
C      1  0.5250840000000  0.5698320000000  0.5250810000000 1.0
C      1  0.5292210000000  0.5550040000000  0.4591390000000 1.0
C      1  0.4567180000000  0.5447880000000  0.4591390000000 1.0
C      1  0.4440300000000  0.4726760000000  0.4591390000000 1.0
C      1  0.5086910000000  0.4383250000000  0.4591390000000 1.0
C      1  0.5613420000000  0.4892070000000  0.4591390000000 1.0
C      1  0.5314210000000  0.4550000000000  0.5303470000000 1.0
C      1  0.5525070000000  0.5159780000000  0.5303470000000 1.0
C      1  0.5010300000000  0.5548750000000  0.5303470000000 1.0
C      1  0.4481290000000  0.5179370000000  0.5303470000000 1.0
C      1  0.4669120000000  0.4562110000000  0.5303470000000 1.0
C      1  0.5546040000000  0.4464940000000  0.4862640000000 1.0
C      1  0.5677600000000  0.5353970000000  0.4862650000000 1.0
C      1  0.4872740000000  0.5753820000000  0.4862640000000 1.0
C      1  0.4243750000000  0.5111920000000  0.4862640000000 1.0
C      1  0.4659870000000  0.4315350000000  0.4862640000000 1.0
C      1  0.5449340000000  0.5770590000000  0.5432400000000 1.0
C      1  0.4405980000000  0.5665470000000  0.5432390000000 1.0
C      1  0.4183530000000  0.4640700000000  0.5432390000000 1.0
C      1  0.5089410000000  0.4112460000000  0.5432390000000 1.0
C      1  0.5871730000000  0.4810770000000  0.5432390000000 1.0
C      1  0.4773840000000  0.5239710000000  0.4539890000000 1.0
C      1  0.4702140000000  0.4858980000000  0.4539890000000 1.0
C      1  0.5042080000000  0.4673140000000  0.4539890000000 1.0
C      1  0.5323870000000  0.4939010000000  0.4539900000000 1.0
C      1  0.5158080000000  0.5289170000000  0.4539900000000 1.0
END
