TITL C-38193-7935-590 1.12142136168561e-05 125000 -358.757548449654 0 0 60 (Cs) n - 1
REM
REM in /home/bkarasulu/CARBON/AIRSS/Generating-Clusters/EDIP-Nigel-Params/Higher-Symm/Box-15A/Only-C60/SD-CG/FIRE-HFTN
REM
REM
REM
REM
REM
REM ./C.cell (414f73aa93bd7a1190c7fd0f31ff2f98)
REM
REM compiler GCC version 9.2.1 20190827 (Red Hat 9.2.1-1)
REM options -cpp -mtune=generic -march=x86-64 -g -O0 -fpre-include=/usr/include/finclude/math-vector-fortran.h
REM seed -904573077 -1938510273 827201603 -387686128 -2140839569 1664081391 -1134896622 -592948403 -1070175704 1674837907 84643536 -6128556 2053231575 -1630812030 273584641 -481506338 -957327925 -91994109 3026146 -1194624250 1146559494 -838253421 -111226903 -1677951719 1735880156 805719105 1775632997 -1105227589 -2047637938 869346115 1445214869 -1882356742 797506890
REM
CELL 1.54180   50.00000   50.00000   50.00000   90.00000   90.00000   90.00000
LATT -1
SFAC C  
C      1  0.5494390000000  0.4727680000000  0.4397650000000 1.0
C      1  0.5003320000000  0.5556790000000  0.4396060000000 1.0
C      1  0.4528610000000  0.4716580000000  0.4411810000000 1.0
C      1  0.5494390000000  0.5272320000000  0.4397650000000 1.0
C      1  0.5003320000000  0.4443210000000  0.4396060000000 1.0
C      1  0.4528610000000  0.5283420000000  0.4411810000000 1.0
C      1  0.5245670000000  0.5151850000000  0.5792370000000 1.0
C      1  0.4735780000000  0.5150780000000  0.5815930000000 1.0
C      1  0.4996170000000  0.4746450000000  0.5908370000000 1.0
C      1  0.5245670000000  0.4848150000000  0.5792370000000 1.0
C      1  0.4735780000000  0.4849220000000  0.5815930000000 1.0
C      1  0.4996170000000  0.5253550000000  0.5908370000000 1.0
C      1  0.4952460000000  0.4268300000000  0.4590190000000 1.0
C      1  0.5670150000000  0.5305600000000  0.4595760000000 1.0
C      1  0.4399210000000  0.5411010000000  0.4607040000000 1.0
C      1  0.4952460000000  0.5731700000000  0.4590190000000 1.0
C      1  0.5670150000000  0.4694400000000  0.4595760000000 1.0
C      1  0.4399210000000  0.4588990000000  0.4607040000000 1.0
C      1  0.4847690000000  0.5595890000000  0.5327640000000 1.0
C      1  0.4589760000000  0.4575320000000  0.5342000000000 1.0
C      1  0.5543020000000  0.4848830000000  0.5334030000000 1.0
C      1  0.4847690000000  0.4404110000000  0.5327640000000 1.0
C      1  0.4589760000000  0.5424680000000  0.5342000000000 1.0
C      1  0.5543020000000  0.5151170000000  0.5334030000000 1.0
C      1  0.5007600000000  0.5284830000000  0.4351660000000 1.0
C      1  0.4760150000000  0.4857160000000  0.4358260000000 1.0
C      1  0.5255560000000  0.4857440000000  0.4347990000000 1.0
C      1  0.5007600000000  0.4715170000000  0.4351660000000 1.0
C      1  0.4760150000000  0.5142840000000  0.4358260000000 1.0
C      1  0.5255560000000  0.5142560000000  0.4347990000000 1.0
C      1  0.5248640000000  0.4300150000000  0.5060900000000 1.0
C      1  0.5488790000000  0.5554250000000  0.5054080000000 1.0
C      1  0.4272180000000  0.5140770000000  0.5084990000000 1.0
C      1  0.5248640000000  0.5699850000000  0.5060900000000 1.0
C      1  0.5488790000000  0.4445750000000  0.5054080000000 1.0
C      1  0.4272180000000  0.4859230000000  0.5084990000000 1.0
C      1  0.4726560000000  0.4778470000000  0.5526520000000 1.0
C      1  0.5270320000000  0.4832600000000  0.5483440000000 1.0
C      1  0.4974030000000  0.5409720000000  0.5550210000000 1.0
C      1  0.4726560000000  0.5221530000000  0.5526520000000 1.0
C      1  0.5270320000000  0.5167400000000  0.5483440000000 1.0
C      1  0.4974030000000  0.4590280000000  0.5550210000000 1.0
C      1  0.4927360000000  0.5773200000000  0.4858940000000 1.0
C      1  0.4368420000000  0.4548130000000  0.4875770000000 1.0
C      1  0.5711210000000  0.4701080000000  0.4866280000000 1.0
C      1  0.4927360000000  0.4226800000000  0.4858940000000 1.0
C      1  0.4368420000000  0.5451870000000  0.4875770000000 1.0
C      1  0.5711210000000  0.5298920000000  0.4866280000000 1.0
C      1  0.4995530000000  0.4712590000000  0.4962590000000 1.0
C      1  0.5243340000000  0.5144160000000  0.4944240000000 1.0
C      1  0.4747460000000  0.5143870000000  0.4964610000000 1.0
C      1  0.4995530000000  0.5287410000000  0.4962590000000 1.0
C      1  0.5243340000000  0.4855840000000  0.4944240000000 1.0
C      1  0.4747460000000  0.4856130000000  0.4964610000000 1.0
C      1  0.5492150000000  0.5265010000000  0.5056320000000 1.0
C      1  0.4515770000000  0.5297080000000  0.5073840000000 1.0
C      1  0.4988680000000  0.4429300000000  0.5060500000000 1.0
C      1  0.5492150000000  0.4734990000000  0.5056320000000 1.0
C      1  0.4515770000000  0.4702920000000  0.5073840000000 1.0
C      1  0.4988680000000  0.5570700000000  0.5060500000000 1.0
END
