TITL C-38186-4112-296 4.09983498188723e-06 125000 -360.577804005626 0 0 60 (D5d) n - 1
REM
REM in /home/bkarasulu/CARBON/AIRSS/Generating-Clusters/EDIP-Nigel-Params/Higher-Symm/Box-15A/Only-C60/SD-CG/FIRE-HFTN
REM
REM
REM
REM
REM
REM ./C.cell (414f73aa93bd7a1190c7fd0f31ff2f98)
REM
REM compiler GCC version 9.2.1 20190827 (Red Hat 9.2.1-1)
REM options -cpp -mtune=generic -march=x86-64 -g -O0 -fpre-include=/usr/include/finclude/math-vector-fortran.h
REM seed 528804016 -1183920450 129314940 1227864434 -1236631413 -1239258270 -2050124341 914678480 475757912 1633488664 -240722182 647710399 1957877256 -992897862 -139479430 -998796837 738457734 -484887881 -315264297 -1156677489 1996075763 1177260270 1294375042 -1717689408 1516267628 228467387 496651000 1300640051 -948924713 -972773423 1290332867 1176543585 1724974181
REM
CELL 1.54180   50.00000   50.00000   50.00000   90.00000   90.00000   90.00000
LATT -1
SFAC C  
C      1  0.5194540000000  0.4475530000000  0.5460440000000 1.0
C      1  0.4805460000000  0.4305060000000  0.5064230000000 1.0
C      1  0.5194540000000  0.4400030000000  0.4643490000000 1.0
C      1  0.4805460000000  0.4724170000000  0.4358920000000 1.0
C      1  0.5194540000000  0.5153660000000  0.4319220000000 1.0
C      1  0.4805460000000  0.5524470000000  0.4539560000000 1.0
C      1  0.5194540000000  0.5694940000000  0.4935770000000 1.0
C      1  0.4805460000000  0.5599970000000  0.5356510000000 1.0
C      1  0.5194540000000  0.5275830000000  0.5641080000000 1.0
C      1  0.4805460000000  0.4846340000000  0.5680780000000 1.0
C      1  0.4308680000000  0.5087610000000  0.4611860000000 1.0
C      1  0.5691320000000  0.5299020000000  0.4737480000000 1.0
C      1  0.4308680000000  0.5396220000000  0.4963380000000 1.0
C      1  0.5691320000000  0.5342070000000  0.5203260000000 1.0
C      1  0.4308680000000  0.5157270000000  0.5365510000000 1.0
C      1  0.5691320000000  0.4912390000000  0.5388140000000 1.0
C      1  0.4308680000000  0.4700980000000  0.5262520000000 1.0
C      1  0.5691320000000  0.4603780000000  0.5036620000000 1.0
C      1  0.4308680000000  0.4657930000000  0.4796740000000 1.0
C      1  0.5691320000000  0.4842730000000  0.4634490000000 1.0
C      1  0.5081130000000  0.4627600000000  0.4778710000000 1.0
C      1  0.4918870000000  0.4828790000000  0.4602080000000 1.0
C      1  0.5081130000000  0.5095380000000  0.4577440000000 1.0
C      1  0.4918870000000  0.5325540000000  0.4714200000000 1.0
C      1  0.5081130000000  0.5431350000000  0.4960130000000 1.0
C      1  0.4918870000000  0.5372400000000  0.5221290000000 1.0
C      1  0.5081130000000  0.5171210000000  0.5397920000000 1.0
C      1  0.4918870000000  0.4904620000000  0.5422560000000 1.0
C      1  0.5081130000000  0.4674460000000  0.5285800000000 1.0
C      1  0.4918870000000  0.4568650000000  0.5039870000000 1.0
C      1  0.5465810000000  0.5259700000000  0.5603590000000 1.0
C      1  0.4534190000000  0.4855320000000  0.5640970000000 1.0
C      1  0.5465810000000  0.4506200000000  0.5433510000000 1.0
C      1  0.4534190000000  0.4345700000000  0.5060470000000 1.0
C      1  0.5465810000000  0.4435110000000  0.4664330000000 1.0
C      1  0.4534190000000  0.4740300000000  0.4396410000000 1.0
C      1  0.5465810000000  0.5144680000000  0.4359030000000 1.0
C      1  0.4534190000000  0.5493800000000  0.4566490000000 1.0
C      1  0.5465810000000  0.5654300000000  0.4939530000000 1.0
C      1  0.4534190000000  0.5564890000000  0.5335670000000 1.0
C      1  0.4311610000000  0.4521020000000  0.5044270000000 1.0
C      1  0.5688390000000  0.4586470000000  0.4754270000000 1.0
C      1  0.4311610000000  0.4809880000000  0.4558140000000 1.0
C      1  0.5688390000000  0.5105910000000  0.4530780000000 1.0
C      1  0.4311610000000  0.5361490000000  0.4682650000000 1.0
C      1  0.5688390000000  0.5478980000000  0.4955730000000 1.0
C      1  0.4311610000000  0.5413530000000  0.5245730000000 1.0
C      1  0.5688390000000  0.5190120000000  0.5441860000000 1.0
C      1  0.4311610000000  0.4894090000000  0.5469220000000 1.0
C      1  0.5688390000000  0.4638510000000  0.5317350000000 1.0
C      1  0.4670160000000  0.5221930000000  0.5131870000000 1.0
C      1  0.5329840000000  0.5102030000000  0.5237130000000 1.0
C      1  0.4670160000000  0.4943160000000  0.5251820000000 1.0
C      1  0.5329840000000  0.4806000000000  0.5170310000000 1.0
C      1  0.4670160000000  0.4742950000000  0.5023760000000 1.0
C      1  0.5329840000000  0.4778070000000  0.4868130000000 1.0
C      1  0.4670160000000  0.4897970000000  0.4762870000000 1.0
C      1  0.5329840000000  0.5056840000000  0.4748180000000 1.0
C      1  0.4670160000000  0.5194000000000  0.4829690000000 1.0
C      1  0.5329840000000  0.5257050000000  0.4976240000000 1.0
END
