TITL C-38196-2854-677 7.83024832528386e-06 125000 -353.536201854015 0 0 60 (C3) n - 1
REM
REM in /home/bkarasulu/CARBON/AIRSS/Generating-Clusters/EDIP-Nigel-Params/Higher-Symm/Box-15A/Only-C60/SD-CG/FIRE-HFTN
REM
REM
REM
REM
REM
REM ./C.cell (414f73aa93bd7a1190c7fd0f31ff2f98)
REM
REM compiler GCC version 9.2.1 20190827 (Red Hat 9.2.1-1)
REM options -cpp -mtune=generic -march=x86-64 -g -O0 -fpre-include=/usr/include/finclude/math-vector-fortran.h
REM seed -698951498 1863376289 13128802 103801315 -444581554 -1751801179 -259863861 873537465 1822684255 -1039310185 -804207473 776715820 -1479827683 -1692706108 -433753866 -1424131222 1422171855 675290670 1875388631 1468409276 -121681514 -952022266 1003070220 1754088718 907369616 -1962734911 644287770 1054809494 628993146 1569344925 574274120 -421128360 -689591756
REM
CELL 1.54180   50.00000   50.00000   50.00000   90.00000   90.00000   90.00000
LATT -1
SFAC C  
C      1  0.5657280000000  0.4912240000000  0.4642800000000 1.0
C      1  0.4362020000000  0.4912240000000  0.4609380000000 1.0
C      1  0.4980700000000  0.4912240000000  0.5747820000000 1.0
C      1  0.5009180000000  0.5418620000000  0.5616890000000 1.0
C      1  0.5529650000000  0.5418610000000  0.4683610000000 1.0
C      1  0.4461170000000  0.5418610000000  0.4699500000000 1.0
C      1  0.4704550000000  0.5056350000000  0.4282950000000 1.0
C      1  0.4526740000000  0.5056350000000  0.5614390000000 1.0
C      1  0.5768710000000  0.5056350000000  0.5102660000000 1.0
C      1  0.5092980000000  0.5698610000000  0.5277750000000 1.0
C      1  0.5194050000000  0.5698600000000  0.4780600000000 1.0
C      1  0.4712970000000  0.5698600000000  0.4941650000000 1.0
C      1  0.5243630000000  0.4794440000000  0.4417280000000 1.0
C      1  0.4373540000000  0.4794440000000  0.5080370000000 1.0
C      1  0.5382840000000  0.4794450000000  0.5502350000000 1.0
C      1  0.5203200000000  0.5099910000000  0.4812040000000 1.0
C      1  0.4735630000000  0.5099910000000  0.4918000000000 1.0
C      1  0.5061170000000  0.5099910000000  0.5269950000000 1.0
C      1  0.5078190000000  0.4447500000000  0.5656830000000 1.0
C      1  0.5529730000000  0.4447490000000  0.4603870000000 1.0
C      1  0.4392070000000  0.4447490000000  0.4739300000000 1.0
C      1  0.5570740000000  0.4626500000000  0.5068850000000 1.0
C      1  0.4774260000000  0.4626500000000  0.4471300000000 1.0
C      1  0.4655000000000  0.4626500000000  0.5459850000000 1.0
C      1  0.5272670000000  0.5662480000000  0.5056800000000 1.0
C      1  0.4912860000000  0.5662480000000  0.4735460000000 1.0
C      1  0.4814470000000  0.5662480000000  0.5207730000000 1.0
C      1  0.5178620000000  0.5627670000000  0.5539170000000 1.0
C      1  0.5377630000000  0.5627670000000  0.4575720000000 1.0
C      1  0.4443750000000  0.5627670000000  0.4885100000000 1.0
C      1  0.5521750000000  0.4702740000000  0.4483270000000 1.0
C      1  0.4291630000000  0.4702750000000  0.4806520000000 1.0
C      1  0.5186630000000  0.4702750000000  0.5710210000000 1.0
C      1  0.4562030000000  0.4587920000000  0.5191200000000 1.0
C      1  0.5384570000000  0.4587920000000  0.5283690000000 1.0
C      1  0.5053400000000  0.4587920000000  0.4525110000000 1.0
C      1  0.5384750000000  0.5328120000000  0.4922170000000 1.0
C      1  0.4740220000000  0.5328120000000  0.4705720000000 1.0
C      1  0.4875030000000  0.5328120000000  0.5372110000000 1.0
C      1  0.5220490000000  0.4833310000000  0.4953540000000 1.0
C      1  0.4849520000000  0.4833310000000  0.4832280000000 1.0
C      1  0.4929990000000  0.4833310000000  0.5214180000000 1.0
C      1  0.4489490000000  0.5057050000000  0.5056600000000 1.0
C      1  0.5304280000000  0.5057050000000  0.5413810000000 1.0
C      1  0.5206240000000  0.5057050000000  0.4529580000000 1.0
C      1  0.5087880000000  0.4526180000000  0.5225550000000 1.0
C      1  0.5151390000000  0.4526180000000  0.4811120000000 1.0
C      1  0.4760730000000  0.4526180000000  0.4963330000000 1.0
C      1  0.5614830000000  0.5182170000000  0.4551030000000 1.0
C      1  0.4303770000000  0.5182170000000  0.4692030000000 1.0
C      1  0.5081410000000  0.5182170000000  0.5756940000000 1.0
C      1  0.5663870000000  0.4856450000000  0.4935900000000 1.0
C      1  0.4612550000000  0.4856450000000  0.4457120000000 1.0
C      1  0.4723580000000  0.4856450000000  0.5606980000000 1.0
C      1  0.5576220000000  0.5246070000000  0.5119910000000 1.0
C      1  0.4815730000000  0.5246070000000  0.4441030000000 1.0
C      1  0.4608050000000  0.5246080000000  0.5439070000000 1.0
C      1  0.5372830000000  0.4335670000000  0.4796270000000 1.0
C      1  0.4637150000000  0.4335670000000  0.4778990000000 1.0
C      1  0.4990020000000  0.4335670000000  0.5424750000000 1.0
END
