TITL C-38192-7909-178 2.47223414887724e-05 125000 -366.533512039076 0 0 60 (C5) n - 1
REM
REM in /home/bkarasulu/CARBON/AIRSS/Generating-Clusters/EDIP-Nigel-Params/Higher-Symm/Box-15A/Only-C60/SD-CG/FIRE-HFTN
REM
REM
REM
REM
REM
REM ./C.cell (414f73aa93bd7a1190c7fd0f31ff2f98)
REM
REM compiler GCC version 9.2.1 20190827 (Red Hat 9.2.1-1)
REM options -cpp -mtune=generic -march=x86-64 -g -O0 -fpre-include=/usr/include/finclude/math-vector-fortran.h
REM seed -1319644182 1960492438 532230165 678357775 -566107429 1263680642 -611492645 766413163 530668024 -837494806 -1239597962 -883083202 -1206446849 1401744057 -1464992055 1948166403 -650076826 -732131869 -854233383 -1627227156 -669310979 929704433 -842289929 54301837 -2085268753 -1941445677 18358701 1909204584 930190917 1924016938 1226810676 2663041 -379302057
REM
CELL 1.54180   50.00000   50.00000   50.00000   90.00000   90.00000   90.00000
LATT -1
SFAC C  
C      1  0.4747680000000  0.5661890000000  0.4998320000000 1.0
C      1  0.4920430000000  0.5661890000000  0.5239450000000 1.0
C      1  0.5203140000000  0.5661890000000  0.5149670000000 1.0
C      1  0.5205120000000  0.5661890000000  0.4853050000000 1.0
C      1  0.4923630000000  0.5661890000000  0.4759510000000 1.0
C      1  0.4265770000000  0.5123440000000  0.4873510000000 1.0
C      1  0.4652810000000  0.5123440000000  0.5659210000000 1.0
C      1  0.5519660000000  0.5123440000000  0.5533910000000 1.0
C      1  0.5668360000000  0.5123440000000  0.4670760000000 1.0
C      1  0.4893410000000  0.5123440000000  0.4262610000000 1.0
C      1  0.5721020000000  0.5154990000000  0.5335330000000 1.0
C      1  0.5541720000000  0.5154990000000  0.4417900000000 1.0
C      1  0.4613790000000  0.5154990000000  0.4304910000000 1.0
C      1  0.4219590000000  0.5154990000000  0.5152520000000 1.0
C      1  0.4903890000000  0.5154990000000  0.5789350000000 1.0
C      1  0.4842790000000  0.5483510000000  0.5460380000000 1.0
C      1  0.5389270000000  0.5483510000000  0.5291780000000 1.0
C      1  0.5397790000000  0.5483510000000  0.4719950000000 1.0
C      1  0.4856580000000  0.5483510000000  0.4535140000000 1.0
C      1  0.4513570000000  0.5483510000000  0.4992750000000 1.0
C      1  0.4757660000000  0.4605020000000  0.4651840000000 1.0
C      1  0.4593990000000  0.4605020000000  0.5122890000000 1.0
C      1  0.4991410000000  0.4605020000000  0.5424110000000 1.0
C      1  0.5400700000000  0.4605020000000  0.5139220000000 1.0
C      1  0.5256230000000  0.4605020000000  0.4661940000000 1.0
C      1  0.4268320000000  0.4868460000000  0.4765770000000 1.0
C      1  0.4551130000000  0.4868460000000  0.5623490000000 1.0
C      1  0.5454270000000  0.4868460000000  0.5619570000000 1.0
C      1  0.5729620000000  0.4868460000000  0.4759420000000 1.0
C      1  0.4996660000000  0.4868460000000  0.4231750000000 1.0
C      1  0.5696310000000  0.4587450000000  0.5142450000000 1.0
C      1  0.5350650000000  0.4587450000000  0.4381780000000 1.0
C      1  0.4520400000000  0.4587450000000  0.4475480000000 1.0
C      1  0.4352940000000  0.4587450000000  0.5294040000000 1.0
C      1  0.5079700000000  0.4587450000000  0.5706250000000 1.0
C      1  0.4853590000000  0.4349960000000  0.4792710000000 1.0
C      1  0.4757610000000  0.4349960000000  0.5075190000000 1.0
C      1  0.4996610000000  0.4349960000000  0.5253760000000 1.0
C      1  0.5240290000000  0.4349960000000  0.5081640000000 1.0
C      1  0.5151900000000  0.4349960000000  0.4796700000000 1.0
C      1  0.5054490000000  0.5322360000000  0.4403100000000 1.0
C      1  0.4449150000000  0.5322360000000  0.4763720000000 1.0
C      1  0.4605070000000  0.5322360000000  0.5450880000000 1.0
C      1  0.5306770000000  0.5322360000000  0.5514930000000 1.0
C      1  0.5584530000000  0.5322360000000  0.4867370000000 1.0
C      1  0.5078380000000  0.4632190000000  0.4350030000000 1.0
C      1  0.4406060000000  0.4632190000000  0.4724600000000 1.0
C      1  0.4554550000000  0.4632190000000  0.5479760000000 1.0
C      1  0.5318630000000  0.4632190000000  0.5571910000000 1.0
C      1  0.5642380000000  0.4632190000000  0.4873690000000 1.0
C      1  0.4757820000000  0.4861720000000  0.5072690000000 1.0
C      1  0.4994290000000  0.4861720000000  0.5252790000000 1.0
C      1  0.5238650000000  0.4861720000000  0.5083540000000 1.0
C      1  0.5153200000000  0.4861720000000  0.4798850000000 1.0
C      1  0.4856030000000  0.4861720000000  0.4792140000000 1.0
C      1  0.5341110000000  0.5349010000000  0.4468390000000 1.0
C      1  0.4599820000000  0.5349010000000  0.4511310000000 1.0
C      1  0.4411560000000  0.5349010000000  0.5229580000000 1.0
C      1  0.5036510000000  0.5349010000000  0.5630580000000 1.0
C      1  0.5611000000000  0.5349010000000  0.5160140000000 1.0
END
