TITL C-38196-2854-44 -1.88679399267045e-06 125000 -368.983348158343 0 0 60 (C1) n - 1
REM
REM in /home/bkarasulu/CARBON/AIRSS/Generating-Clusters/EDIP-Nigel-Params/Higher-Symm/Box-15A/Only-C60/SD-CG/FIRE-HFTN
REM
REM
REM
REM
REM
REM ./C.cell (414f73aa93bd7a1190c7fd0f31ff2f98)
REM
REM compiler GCC version 9.2.1 20190827 (Red Hat 9.2.1-1)
REM options -cpp -mtune=generic -march=x86-64 -g -O0 -fpre-include=/usr/include/finclude/math-vector-fortran.h
REM seed 2094708573 -1871336886 -1703428250 1274080668 -1442256596 -325068272 -287021616 -872718044 1944878351 -1609426372 206386584 -783536059 -1033415659 -1339792187 -23115656 -1006680703 1751966464 -1639796203 1853036608 -544600273 -737987527 692586999 512753281 936791362 415154580 -1335582713 1208667501 -941554270 1282444151 -1048095248 -1145663410 -222412309 -1962355776
REM
CELL 1.54180   50.00000   50.00000   50.00000   90.00000   90.00000   90.00000
LATT -1
SFAC C  
C      1  0.5593660000000  0.4646780000000  0.4666620000000 1.0
C      1  0.5197120000000  0.4487810000000  0.4788600000000 1.0
C      1  0.4697400000000  0.4462550000000  0.4646820000000 1.0
C      1  0.4453140000000  0.4939070000000  0.4586270000000 1.0
C      1  0.4558920000000  0.5502740000000  0.4756560000000 1.0
C      1  0.5107600000000  0.5713700000000  0.4751270000000 1.0
C      1  0.5540830000000  0.5331760000000  0.4650980000000 1.0
C      1  0.5566900000000  0.4384020000000  0.4817680000000 1.0
C      1  0.5099480000000  0.4234830000000  0.4908790000000 1.0
C      1  0.4456670000000  0.4651980000000  0.4697960000000 1.0
C      1  0.4261550000000  0.5088880000000  0.4759920000000 1.0
C      1  0.4659110000000  0.5729830000000  0.4888820000000 1.0
C      1  0.5377760000000  0.5753030000000  0.4812620000000 1.0
C      1  0.5711920000000  0.5112310000000  0.4674900000000 1.0
C      1  0.5214490000000  0.4718850000000  0.5039740000000 1.0
C      1  0.4644700000000  0.4692360000000  0.5018690000000 1.0
C      1  0.4421820000000  0.4870890000000  0.5132590000000 1.0
C      1  0.4558080000000  0.5147970000000  0.5124440000000 1.0
C      1  0.5063960000000  0.5326430000000  0.5021780000000 1.0
C      1  0.5366600000000  0.5240090000000  0.5041020000000 1.0
C      1  0.5464730000000  0.4932780000000  0.5049270000000 1.0
C      1  0.4811690000000  0.4300540000000  0.4901840000000 1.0
C      1  0.4201150000000  0.4871920000000  0.4940080000000 1.0
C      1  0.4390140000000  0.5316060000000  0.4918410000000 1.0
C      1  0.4922280000000  0.5779220000000  0.4976670000000 1.0
C      1  0.5551500000000  0.5535340000000  0.4867490000000 1.0
C      1  0.5667510000000  0.4883350000000  0.4829900000000 1.0
C      1  0.5451480000000  0.4284220000000  0.5069040000000 1.0
C      1  0.4714930000000  0.5178630000000  0.5611170000000 1.0
C      1  0.4953590000000  0.5330090000000  0.5546550000000 1.0
C      1  0.5225730000000  0.5239010000000  0.5569230000000 1.0
C      1  0.5315770000000  0.4967060000000  0.5612130000000 1.0
C      1  0.5165290000000  0.4723770000000  0.5567210000000 1.0
C      1  0.4883060000000  0.4692250000000  0.5539920000000 1.0
C      1  0.4688290000000  0.4887380000000  0.5630300000000 1.0
C      1  0.5297790000000  0.4478910000000  0.5221640000000 1.0
C      1  0.4691840000000  0.4430830000000  0.5153200000000 1.0
C      1  0.4328720000000  0.4792120000000  0.5390120000000 1.0
C      1  0.4439890000000  0.5345080000000  0.5304680000000 1.0
C      1  0.5006720000000  0.5579030000000  0.5180540000000 1.0
C      1  0.5520860000000  0.5410470000000  0.5229060000000 1.0
C      1  0.5613800000000  0.4900220000000  0.5293710000000 1.0
C      1  0.4770820000000  0.5354370000000  0.4621490000000 1.0
C      1  0.5048400000000  0.5416100000000  0.4727460000000 1.0
C      1  0.5265420000000  0.5255890000000  0.4592590000000 1.0
C      1  0.5368240000000  0.4740730000000  0.4471510000000 1.0
C      1  0.5167960000000  0.4512280000000  0.4478150000000 1.0
C      1  0.4895260000000  0.4622700000000  0.4494510000000 1.0
C      1  0.4719110000000  0.5069310000000  0.4566750000000 1.0
C      1  0.4475680000000  0.5321680000000  0.5578190000000 1.0
C      1  0.4914200000000  0.5590230000000  0.5448550000000 1.0
C      1  0.5426740000000  0.5416780000000  0.5489790000000 1.0
C      1  0.5591730000000  0.4930680000000  0.5563650000000 1.0
C      1  0.5315910000000  0.4497120000000  0.5501130000000 1.0
C      1  0.4798440000000  0.4453610000000  0.5415100000000 1.0
C      1  0.4424470000000  0.4792300000000  0.5640820000000 1.0
C      1  0.4912540000000  0.4847490000000  0.4955440000000 1.0
C      1  0.4932740000000  0.4881590000000  0.4641180000000 1.0
C      1  0.4863760000000  0.5111400000000  0.5080290000000 1.0
C      1  0.5207820000000  0.4971150000000  0.4578930000000 1.0
END
