TITL C-38186-4112-611 7.13654923454906e-05 125000 -364.947827147229 0 0 60 (C1) n - 1
REM
REM in /home/bkarasulu/CARBON/AIRSS/Generating-Clusters/EDIP-Nigel-Params/Higher-Symm/Box-15A/Only-C60/SD-CG/FIRE-HFTN
REM
REM
REM
REM
REM
REM ./C.cell (414f73aa93bd7a1190c7fd0f31ff2f98)
REM
REM compiler GCC version 9.2.1 20190827 (Red Hat 9.2.1-1)
REM options -cpp -mtune=generic -march=x86-64 -g -O0 -fpre-include=/usr/include/finclude/math-vector-fortran.h
REM seed -1545112615 1070801209 -686057549 -962729820 996788785 602263828 -1247115022 35378215 -1960543444 -869740614 1949946960 -326082165 -1712129047 617592050 -205236160 -2117449679 -982962142 659450013 -1614196992 -936412314 1878915786 -841334157 -979216911 557078476 19976673 1461475906 -1659500047 1914405802 -487633911 1652865108 1616517246 1209501932 -1151320072
REM
CELL 1.54180   50.00000   50.00000   50.00000   90.00000   90.00000   90.00000
LATT -1
SFAC C  
C      1  0.5032490000000  0.4961820000000  0.4691840000000 1.0
C      1  0.5034780000000  0.5325580000000  0.4886150000000 1.0
C      1  0.5044640000000  0.5411710000000  0.5172510000000 1.0
C      1  0.5021440000000  0.5177170000000  0.5373650000000 1.0
C      1  0.5012000000000  0.4875170000000  0.5241950000000 1.0
C      1  0.5031580000000  0.4596420000000  0.5032830000000 1.0
C      1  0.5047640000000  0.4663480000000  0.4731910000000 1.0
C      1  0.4780470000000  0.4737370000000  0.5399880000000 1.0
C      1  0.4837050000000  0.4363200000000  0.5039240000000 1.0
C      1  0.4836900000000  0.4527500000000  0.4566280000000 1.0
C      1  0.4805260000000  0.5003620000000  0.4481100000000 1.0
C      1  0.4829740000000  0.5505660000000  0.4759440000000 1.0
C      1  0.4858690000000  0.5625100000000  0.5250490000000 1.0
C      1  0.4775350000000  0.5162030000000  0.5536160000000 1.0
C      1  0.4584050000000  0.5414600000000  0.4906440000000 1.0
C      1  0.4593110000000  0.5515780000000  0.5187540000000 1.0
C      1  0.4524330000000  0.5201460000000  0.5382770000000 1.0
C      1  0.4541180000000  0.4732200000000  0.5219420000000 1.0
C      1  0.4591840000000  0.4541560000000  0.4981870000000 1.0
C      1  0.4580960000000  0.4641650000000  0.4688770000000 1.0
C      1  0.4562290000000  0.4946730000000  0.4646530000000 1.0
C      1  0.5431100000000  0.5058710000000  0.4555370000000 1.0
C      1  0.5409830000000  0.5295810000000  0.4725150000000 1.0
C      1  0.5471300000000  0.5245600000000  0.5158610000000 1.0
C      1  0.5476190000000  0.5105110000000  0.5417100000000 1.0
C      1  0.5431270000000  0.4822770000000  0.5374900000000 1.0
C      1  0.5465970000000  0.4721030000000  0.5086390000000 1.0
C      1  0.5492600000000  0.4803490000000  0.4695820000000 1.0
C      1  0.5276290000000  0.4328590000000  0.5338540000000 1.0
C      1  0.5386450000000  0.4310540000000  0.4644720000000 1.0
C      1  0.5278800000000  0.4806170000000  0.4149770000000 1.0
C      1  0.5168410000000  0.5495340000000  0.4352600000000 1.0
C      1  0.5349620000000  0.5726080000000  0.5007290000000 1.0
C      1  0.5301440000000  0.5483920000000  0.5672520000000 1.0
C      1  0.5216970000000  0.4818230000000  0.5842520000000 1.0
C      1  0.5204950000000  0.5742110000000  0.4768880000000 1.0
C      1  0.5243380000000  0.5666960000000  0.5477430000000 1.0
C      1  0.5113190000000  0.5071790000000  0.5811660000000 1.0
C      1  0.5132440000000  0.4458340000000  0.5537020000000 1.0
C      1  0.5247690000000  0.4240230000000  0.4871330000000 1.0
C      1  0.5189370000000  0.4591570000000  0.4301730000000 1.0
C      1  0.5081320000000  0.5255630000000  0.4241640000000 1.0
C      1  0.5299160000000  0.5530990000000  0.4594960000000 1.0
C      1  0.5318310000000  0.5526640000000  0.5211050000000 1.0
C      1  0.5246370000000  0.5214250000000  0.5584330000000 1.0
C      1  0.5248710000000  0.4716790000000  0.5581850000000 1.0
C      1  0.5290520000000  0.4453660000000  0.5082290000000 1.0
C      1  0.5303090000000  0.4581280000000  0.4587170000000 1.0
C      1  0.5254910000000  0.5029550000000  0.4320520000000 1.0
C      1  0.4920110000000  0.5776620000000  0.4768380000000 1.0
C      1  0.4971640000000  0.5754750000000  0.5476360000000 1.0
C      1  0.4831030000000  0.5112140000000  0.5810950000000 1.0
C      1  0.4853040000000  0.4481900000000  0.5507150000000 1.0
C      1  0.4966840000000  0.4176750000000  0.4857500000000 1.0
C      1  0.4908160000000  0.4543570000000  0.4290830000000 1.0
C      1  0.4806470000000  0.5206790000000  0.4281650000000 1.0
C      1  0.5339190000000  0.5009830000000  0.4981100000000 1.0
C      1  0.4459210000000  0.5013430000000  0.5158000000000 1.0
C      1  0.4601370000000  0.5105530000000  0.4910190000000 1.0
C      1  0.4899950000000  0.5053890000000  0.4950300000000 1.0
END
