TITL C-38194-9318-500 0.00207644650578927 125000 -354.018278119938 0 0 60 (C1) n - 1
REM
REM in /home/bkarasulu/CARBON/AIRSS/Generating-Clusters/EDIP-Nigel-Params/Higher-Symm/Box-15A/Only-C60/SD-CG/FIRE-HFTN
REM
REM
REM
REM
REM
REM ./C.cell (414f73aa93bd7a1190c7fd0f31ff2f98)
REM
REM compiler GCC version 9.2.1 20190827 (Red Hat 9.2.1-1)
REM options -cpp -mtune=generic -march=x86-64 -g -O0 -fpre-include=/usr/include/finclude/math-vector-fortran.h
REM seed 978063684 1362903275 -142080945 1271594991 353402924 759629536 1006898285 -1381400003 -446546919 -953300858 1945980215 654598310 1888467397 -846934949 -180177736 -891926802 -155939715 -1936830264 -875006373 -125286187 -1307938338 25244300 714846731 -689770555 -1188662488 578287493 -405771290 1304426459 1702809419 2019679331 1400524940 -2033796174 -1502910866
REM
CELL 1.54180   50.00000   50.00000   50.00000   90.00000   90.00000   90.00000
LATT -1
SFAC C  
C      1  0.5479640000000  0.5325060000000  0.5636090000000 1.0
C      1  0.4303250000000  0.5213000000000  0.5330650000000 1.0
C      1  0.5380640000000  0.4750480000000  0.4399700000000 1.0
C      1  0.5709170000000  0.5299220000000  0.4977550000000 1.0
C      1  0.4806140000000  0.4224760000000  0.4842310000000 1.0
C      1  0.5026640000000  0.5140920000000  0.5122620000000 1.0
C      1  0.4380480000000  0.5184580000000  0.4816810000000 1.0
C      1  0.4173640000000  0.5018110000000  0.4790060000000 1.0
C      1  0.5144190000000  0.4359950000000  0.4513940000000 1.0
C      1  0.5182290000000  0.5633330000000  0.4477540000000 1.0
C      1  0.5454320000000  0.4876740000000  0.5434440000000 1.0
C      1  0.5368570000000  0.4773110000000  0.5067380000000 1.0
C      1  0.5592860000000  0.4408190000000  0.4644940000000 1.0
C      1  0.4559110000000  0.4709050000000  0.4394080000000 1.0
C      1  0.4801330000000  0.4783730000000  0.5541260000000 1.0
C      1  0.4701280000000  0.4909030000000  0.4533190000000 1.0
C      1  0.4814030000000  0.5663770000000  0.5585860000000 1.0
C      1  0.5385570000000  0.4487310000000  0.4481430000000 1.0
C      1  0.4977330000000  0.4244120000000  0.5062470000000 1.0
C      1  0.5268990000000  0.5485300000000  0.5597640000000 1.0
C      1  0.5390830000000  0.5024980000000  0.4419190000000 1.0
C      1  0.4663890000000  0.5490230000000  0.5166720000000 1.0
C      1  0.4696990000000  0.5637780000000  0.4727850000000 1.0
C      1  0.4783100000000  0.5401510000000  0.4612940000000 1.0
C      1  0.4585900000000  0.5571910000000  0.5446450000000 1.0
C      1  0.5159980000000  0.5174640000000  0.4391120000000 1.0
C      1  0.4878890000000  0.4342120000000  0.4588040000000 1.0
C      1  0.5648850000000  0.4680000000000  0.5327430000000 1.0
C      1  0.4534150000000  0.4213080000000  0.4895180000000 1.0
C      1  0.4385870000000  0.4601610000000  0.5055510000000 1.0
C      1  0.4581420000000  0.4972730000000  0.5572310000000 1.0
C      1  0.4471320000000  0.5262690000000  0.5090450000000 1.0
C      1  0.5631630000000  0.5599850000000  0.4624040000000 1.0
C      1  0.4953220000000  0.5406320000000  0.5212100000000 1.0
C      1  0.5704990000000  0.5346250000000  0.4703960000000 1.0
C      1  0.5457010000000  0.6012680000000  0.4487510000000 1.0
C      1  0.5023700000000  0.5513620000000  0.5474210000000 1.0
C      1  0.5505700000000  0.5251210000000  0.5164730000000 1.0
C      1  0.5413400000000  0.4561350000000  0.5789980000000 1.0
C      1  0.5606510000000  0.5142510000000  0.4545180000000 1.0
C      1  0.4454450000000  0.5338200000000  0.5551070000000 1.0
C      1  0.5310530000000  0.4778590000000  0.5679170000000 1.0
C      1  0.4683040000000  0.4472940000000  0.4438110000000 1.0
C      1  0.4581620000000  0.5185870000000  0.4588060000000 1.0
C      1  0.5425270000000  0.5753350000000  0.4525730000000 1.0
C      1  0.5034470000000  0.4804790000000  0.5689680000000 1.0
C      1  0.5025680000000  0.5407310000000  0.4457320000000 1.0
C      1  0.4806350000000  0.4588330000000  0.5323790000000 1.0
C      1  0.5704200000000  0.4465500000000  0.4880880000000 1.0
C      1  0.4254530000000  0.4732750000000  0.5257640000000 1.0
C      1  0.5652670000000  0.4683540000000  0.5041100000000 1.0
C      1  0.5568520000000  0.5154130000000  0.5435570000000 1.0
C      1  0.4316350000000  0.4341450000000  0.4985010000000 1.0
C      1  0.5300030000000  0.5063050000000  0.5062550000000 1.0
C      1  0.5002260000000  0.4391760000000  0.5288160000000 1.0
C      1  0.4645040000000  0.5710760000000  0.4980760000000 1.0
C      1  0.4816440000000  0.5007240000000  0.4986900000000 1.0
C      1  0.4672480000000  0.4661170000000  0.5072400000000 1.0
C      1  0.4844090000000  0.4827930000000  0.4770210000000 1.0
C      1  0.4315200000000  0.4934530000000  0.5441050000000 1.0
END
