TITL C-38197-8510-657 8.23457245057739e-05 125000 -353.740565656574 0 0 60 (C1) n - 1
REM
REM in /home/bkarasulu/CARBON/AIRSS/Generating-Clusters/EDIP-Nigel-Params/Higher-Symm/Box-15A/Only-C60/SD-CG/FIRE-HFTN
REM
REM
REM
REM
REM
REM ./C.cell (414f73aa93bd7a1190c7fd0f31ff2f98)
REM
REM compiler GCC version 9.2.1 20190827 (Red Hat 9.2.1-1)
REM options -cpp -mtune=generic -march=x86-64 -g -O0 -fpre-include=/usr/include/finclude/math-vector-fortran.h
REM seed 1825296539 -1985016115 -531375890 1103977394 -945084247 783555786 -1419285868 1626312593 -1650289890 2025262318 1414747261 929140294 -1297825064 1594959038 360890424 287411695 1297559866 -228008266 907241841 1590438352 -128942718 680572876 -1871041923 498903318 -984031459 -787461145 -1418341707 171986801 1259559973 547234778 -818129829 1356593806 1756728683
REM
CELL 1.54180   50.00000   50.00000   50.00000   90.00000   90.00000   90.00000
LATT -1
SFAC C  
C      1  0.4223470000000  0.4722810000000  0.4999720000000 1.0
C      1  0.5763870000000  0.5323470000000  0.5011040000000 1.0
C      1  0.5003320000000  0.5135970000000  0.4376710000000 1.0
C      1  0.4984410000000  0.4847680000000  0.4370500000000 1.0
C      1  0.4793180000000  0.4653910000000  0.5662450000000 1.0
C      1  0.5237100000000  0.5370840000000  0.5685990000000 1.0
C      1  0.4949450000000  0.5673160000000  0.5368120000000 1.0
C      1  0.5033780000000  0.4307250000000  0.5337010000000 1.0
C      1  0.5153190000000  0.4255070000000  0.4601940000000 1.0
C      1  0.4799240000000  0.5715180000000  0.4620380000000 1.0
C      1  0.5647970000000  0.4606240000000  0.5045590000000 1.0
C      1  0.4339860000000  0.5396470000000  0.5056540000000 1.0
C      1  0.5639750000000  0.4882610000000  0.5082360000000 1.0
C      1  0.4430830000000  0.5138600000000  0.5005490000000 1.0
C      1  0.5585200000000  0.5012720000000  0.4411430000000 1.0
C      1  0.4408130000000  0.4955140000000  0.4361580000000 1.0
C      1  0.5416980000000  0.5644810000000  0.4778250000000 1.0
C      1  0.4531680000000  0.4339640000000  0.4769810000000 1.0
C      1  0.5485860000000  0.5046170000000  0.5293400000000 1.0
C      1  0.4571710000000  0.4973080000000  0.5221170000000 1.0
C      1  0.4975410000000  0.5806080000000  0.4799560000000 1.0
C      1  0.4970220000000  0.4170370000000  0.4777730000000 1.0
C      1  0.5230510000000  0.4666840000000  0.4288580000000 1.0
C      1  0.4760400000000  0.5316540000000  0.4284850000000 1.0
C      1  0.5205320000000  0.5720880000000  0.5223560000000 1.0
C      1  0.4767400000000  0.4287820000000  0.5206150000000 1.0
C      1  0.4473600000000  0.5604650000000  0.5161870000000 1.0
C      1  0.5505900000000  0.4380760000000  0.5082940000000 1.0
C      1  0.5591110000000  0.5059800000000  0.5569420000000 1.0
C      1  0.4499200000000  0.5013510000000  0.5505740000000 1.0
C      1  0.4741720000000  0.4233950000000  0.4919690000000 1.0
C      1  0.5213180000000  0.5757730000000  0.4932260000000 1.0
C      1  0.4537000000000  0.5149060000000  0.4231030000000 1.0
C      1  0.5460960000000  0.4830670000000  0.4261320000000 1.0
C      1  0.4454490000000  0.4703300000000  0.5159640000000 1.0
C      1  0.5547270000000  0.5323960000000  0.5192190000000 1.0
C      1  0.5434310000000  0.5740450000000  0.5385760000000 1.0
C      1  0.4547380000000  0.4300400000000  0.5381420000000 1.0
C      1  0.4923200000000  0.5253040000000  0.4634700000000 1.0
C      1  0.5045210000000  0.4720230000000  0.4628740000000 1.0
C      1  0.4986480000000  0.5458080000000  0.5599540000000 1.0
C      1  0.5019390000000  0.4510850000000  0.5585820000000 1.0
C      1  0.4278920000000  0.4947480000000  0.4834520000000 1.0
C      1  0.5733960000000  0.5075280000000  0.4876290000000 1.0
C      1  0.5514390000000  0.5429870000000  0.4645860000000 1.0
C      1  0.4433650000000  0.4545200000000  0.4624320000000 1.0
C      1  0.5508440000000  0.5328100000000  0.5636140000000 1.0
C      1  0.4536820000000  0.4740580000000  0.5596320000000 1.0
C      1  0.5193230000000  0.4937460000000  0.5321850000000 1.0
C      1  0.4932650000000  0.5057870000000  0.5249840000000 1.0
C      1  0.5569410000000  0.5154900000000  0.4647060000000 1.0
C      1  0.4410610000000  0.4823720000000  0.4604410000000 1.0
C      1  0.5248880000000  0.4452810000000  0.5162450000000 1.0
C      1  0.4739360000000  0.5527860000000  0.5196200000000 1.0
C      1  0.5229510000000  0.4644860000000  0.5400630000000 1.0
C      1  0.4808100000000  0.5297960000000  0.5392690000000 1.0
C      1  0.5584060000000  0.5505630000000  0.5414260000000 1.0
C      1  0.4423320000000  0.4551100000000  0.5401520000000 1.0
C      1  0.5241160000000  0.4513550000000  0.4560890000000 1.0
C      1  0.4724890000000  0.5455990000000  0.4562720000000 1.0
END
