TITL C-38187-2739-394 8.29318711797548e-07 125000 -359.708142602788 0 0 60 (C3h) n - 1
REM
REM in /home/bkarasulu/CARBON/AIRSS/Generating-Clusters/EDIP-Nigel-Params/Higher-Symm/Box-15A/Only-C60/SD-CG/FIRE-HFTN
REM
REM
REM
REM
REM
REM ./C.cell (414f73aa93bd7a1190c7fd0f31ff2f98)
REM
REM compiler GCC version 9.2.1 20190827 (Red Hat 9.2.1-1)
REM options -cpp -mtune=generic -march=x86-64 -g -O0 -fpre-include=/usr/include/finclude/math-vector-fortran.h
REM seed 1304073155 -977294981 -1923048204 -217993081 -43140011 1552601907 -1361293031 -1930190416 -1569787350 -1422263682 -1484271105 1622872742 675787926 1897928640 -662731224 1493050970 -1305697808 -44361355 -1110846103 -511216768 -271412697 1902939581 160910713 -2004642295 -1853128375 -2032023773 1380696049 1119314674 1680139914 -989370653 1519758941 1124754824 -1436220584
REM
CELL 1.54180   50.00000   50.00000   50.00000   90.00000   90.00000   90.00000
LATT -1
SFAC C  
C      1  0.4787220000000  0.5196570000000  0.4310400000000 1.0
C      1  0.4936160000000  0.4717450000000  0.4310400000000 1.0
C      1  0.5276620000000  0.5085990000000  0.4310400000000 1.0
C      1  0.4787220000000  0.5196570000000  0.5689600000000 1.0
C      1  0.4936160000000  0.4717450000000  0.5689600000000 1.0
C      1  0.5276620000000  0.5085990000000  0.5689600000000 1.0
C      1  0.4809040000000  0.5554390000000  0.5180870000000 1.0
C      1  0.4615370000000  0.4557430000000  0.5180870000000 1.0
C      1  0.5575590000000  0.4888180000000  0.5180870000000 1.0
C      1  0.4809040000000  0.5554390000000  0.4819130000000 1.0
C      1  0.4615370000000  0.4557430000000  0.4819130000000 1.0
C      1  0.5575590000000  0.4888180000000  0.4819130000000 1.0
C      1  0.4374860000000  0.4380780000000  0.5140660000000 1.0
C      1  0.5848830000000  0.4768220000000  0.5140660000000 1.0
C      1  0.4776310000000  0.5850990000000  0.5140660000000 1.0
C      1  0.4374860000000  0.4380780000000  0.4859340000000 1.0
C      1  0.5848830000000  0.4768220000000  0.4859340000000 1.0
C      1  0.4776310000000  0.5850990000000  0.4859340000000 1.0
C      1  0.4595520000000  0.5368240000000  0.5579790000000 1.0
C      1  0.4883330000000  0.4465590000000  0.5579790000000 1.0
C      1  0.5521150000000  0.5166170000000  0.5579790000000 1.0
C      1  0.4595520000000  0.5368240000000  0.4420210000000 1.0
C      1  0.4883330000000  0.4465590000000  0.4420210000000 1.0
C      1  0.5521150000000  0.5166170000000  0.4420210000000 1.0
C      1  0.4582190000000  0.5410610000000  0.4696190000000 1.0
C      1  0.4853300000000  0.4432860000000  0.4696190000000 1.0
C      1  0.5564510000000  0.5156530000000  0.4696190000000 1.0
C      1  0.4582190000000  0.5410610000000  0.5303810000000 1.0
C      1  0.4853300000000  0.4432860000000  0.5303810000000 1.0
C      1  0.5564510000000  0.5156530000000  0.5303810000000 1.0
C      1  0.5389730000000  0.4632090000000  0.4450060000000 1.0
C      1  0.5123750000000  0.5521470000000  0.4450060000000 1.0
C      1  0.4486520000000  0.4846440000000  0.4450060000000 1.0
C      1  0.5389730000000  0.4632090000000  0.5549940000000 1.0
C      1  0.5123750000000  0.5521470000000  0.5549940000000 1.0
C      1  0.4486520000000  0.4846440000000  0.5549940000000 1.0
C      1  0.4435480000000  0.5233070000000  0.4858990000000 1.0
C      1  0.5080420000000  0.4394580000000  0.4858990000000 1.0
C      1  0.5484100000000  0.5372350000000  0.4858990000000 1.0
C      1  0.4435480000000  0.5233070000000  0.5141010000000 1.0
C      1  0.5080420000000  0.4394580000000  0.5141010000000 1.0
C      1  0.5484100000000  0.5372350000000  0.5141010000000 1.0
C      1  0.4562020000000  0.4831830000000  0.5277090000000 1.0
C      1  0.5364630000000  0.4704780000000  0.5277090000000 1.0
C      1  0.5073350000000  0.5463390000000  0.5277090000000 1.0
C      1  0.4562020000000  0.4831830000000  0.4722910000000 1.0
C      1  0.5364630000000  0.4704780000000  0.4722910000000 1.0
C      1  0.5073350000000  0.5463390000000  0.4722910000000 1.0
C      1  0.5087970000000  0.4782050000000  0.5160140000000 1.0
C      1  0.5144770000000  0.5185160000000  0.5160140000000 1.0
C      1  0.4767270000000  0.5032790000000  0.5160140000000 1.0
C      1  0.5087970000000  0.4782050000000  0.4839860000000 1.0
C      1  0.5144770000000  0.5185160000000  0.4839860000000 1.0
C      1  0.4767270000000  0.5032790000000  0.4839860000000 1.0
C      1  0.4725030000000  0.4915470000000  0.4319790000000 1.0
C      1  0.5210690000000  0.4804140000000  0.4319790000000 1.0
C      1  0.5064280000000  0.5280390000000  0.4319790000000 1.0
C      1  0.4725030000000  0.4915470000000  0.5680210000000 1.0
C      1  0.5210690000000  0.4804140000000  0.5680210000000 1.0
C      1  0.5064280000000  0.5280390000000  0.5680210000000 1.0
END
