TITL C-38184-643-642 -3.03104865928639e-06 125000 -363.188252863291 0 0 60 (Ci) n - 1
REM
REM in /home/bkarasulu/CARBON/AIRSS/Generating-Clusters/EDIP-Nigel-Params/Higher-Symm/Box-15A/Only-C60/SD-CG/FIRE-HFTN
REM
REM
REM
REM
REM
REM ./C.cell (414f73aa93bd7a1190c7fd0f31ff2f98)
REM
REM compiler GCC version 9.2.1 20190827 (Red Hat 9.2.1-1)
REM options -cpp -mtune=generic -march=x86-64 -g -O0 -fpre-include=/usr/include/finclude/math-vector-fortran.h
REM seed 290167548 -1277927790 -368302504 755232986 1694658443 1478172392 704113868 1841261871 -311390960 390217834 -1560911905 -1878397572 -1593563587 929780343 1268838885 514249030 801128602 -925853265 -96189615 2058949716 1734655989 34067757 -1183661024 -1588315044 -683103308 -836326224 -548453303 819405302 -57193302 -1249313637 1034147726 -2081306013 878117282
REM
CELL 1.54180   50.00000   50.00000   50.00000   90.00000   90.00000   90.00000
LATT -1
SFAC C  
C      1  0.4580330000000  0.5155930000000  0.5752580000000 1.0
C      1  0.5419670000000  0.4844070000000  0.4247420000000 1.0
C      1  0.5914140000000  0.5417990000000  0.4522380000000 1.0
C      1  0.4085860000000  0.4582010000000  0.5477620000000 1.0
C      1  0.4379050000000  0.4877450000000  0.4745450000000 1.0
C      1  0.5620950000000  0.5122550000000  0.5254550000000 1.0
C      1  0.4903980000000  0.5409140000000  0.4489880000000 1.0
C      1  0.5096020000000  0.4590860000000  0.5510120000000 1.0
C      1  0.3979770000000  0.4807590000000  0.5362000000000 1.0
C      1  0.6020230000000  0.5192410000000  0.4638000000000 1.0
C      1  0.4316130000000  0.4656110000000  0.4897970000000 1.0
C      1  0.5683870000000  0.5343890000000  0.5102030000000 1.0
C      1  0.5001110000000  0.5344100000000  0.4252710000000 1.0
C      1  0.4998890000000  0.4655900000000  0.5747290000000 1.0
C      1  0.4617710000000  0.5389370000000  0.5333600000000 1.0
C      1  0.5382290000000  0.4610630000000  0.4666400000000 1.0
C      1  0.4715910000000  0.5341520000000  0.5599780000000 1.0
C      1  0.5284090000000  0.4658480000000  0.4400220000000 1.0
C      1  0.4378960000000  0.5676720000000  0.5101300000000 1.0
C      1  0.5621040000000  0.4323280000000  0.4898700000000 1.0
C      1  0.5518810000000  0.4629480000000  0.5278340000000 1.0
C      1  0.4481190000000  0.5370520000000  0.4721660000000 1.0
C      1  0.5230800000000  0.4577070000000  0.5270030000000 1.0
C      1  0.4769200000000  0.5422930000000  0.4729970000000 1.0
C      1  0.5818650000000  0.5384870000000  0.4266350000000 1.0
C      1  0.4181350000000  0.4615130000000  0.5733650000000 1.0
C      1  0.5239830000000  0.5267900000000  0.5591260000000 1.0
C      1  0.4760170000000  0.4732100000000  0.4408740000000 1.0
C      1  0.4845370000000  0.5629340000000  0.4926050000000 1.0
C      1  0.5154630000000  0.4370660000000  0.5073950000000 1.0
C      1  0.4810890000000  0.4774420000000  0.5891520000000 1.0
C      1  0.5189110000000  0.5225580000000  0.4108480000000 1.0
C      1  0.4575090000000  0.4914940000000  0.5886370000000 1.0
C      1  0.5424910000000  0.5085060000000  0.4113630000000 1.0
C      1  0.5010540000000  0.4653260000000  0.4369800000000 1.0
C      1  0.4989460000000  0.5346740000000  0.5630200000000 1.0
C      1  0.4234580000000  0.4427710000000  0.5303770000000 1.0
C      1  0.5765420000000  0.5572290000000  0.4696230000000 1.0
C      1  0.5626100000000  0.5555040000000  0.4933660000000 1.0
C      1  0.4373900000000  0.4444960000000  0.5066340000000 1.0
C      1  0.4050000000000  0.5015340000000  0.5211840000000 1.0
C      1  0.5950000000000  0.4984660000000  0.4788160000000 1.0
C      1  0.5113710000000  0.5694060000000  0.4951320000000 1.0
C      1  0.4886290000000  0.4305940000000  0.5048680000000 1.0
C      1  0.4356920000000  0.5600110000000  0.4831540000000 1.0
C      1  0.5643080000000  0.4399890000000  0.5168460000000 1.0
C      1  0.4548890000000  0.4833120000000  0.4533550000000 1.0
C      1  0.5451110000000  0.5166880000000  0.5466450000000 1.0
C      1  0.5318210000000  0.4350920000000  0.4822680000000 1.0
C      1  0.4681790000000  0.5649080000000  0.5177320000000 1.0
C      1  0.4314940000000  0.5422490000000  0.5271690000000 1.0
C      1  0.5685060000000  0.4577510000000  0.4728310000000 1.0
C      1  0.5796810000000  0.4788390000000  0.4910270000000 1.0
C      1  0.4203190000000  0.5211610000000  0.5089730000000 1.0
C      1  0.5378180000000  0.5671530000000  0.4950230000000 1.0
C      1  0.4621820000000  0.4328470000000  0.5049770000000 1.0
C      1  0.5611150000000  0.4863450000000  0.5126550000000 1.0
C      1  0.4388850000000  0.5136550000000  0.4873450000000 1.0
C      1  0.4343460000000  0.4766840000000  0.5880830000000 1.0
C      1  0.5656540000000  0.5233160000000  0.4119170000000 1.0
END
