TITL C-38190-6388-27 -1.46722783978855e-06 125000 -375.400816280128 0 0 60 (C3) n - 1
REM
REM in /home/bkarasulu/CARBON/AIRSS/Generating-Clusters/EDIP-Nigel-Params/Higher-Symm/Box-15A/Only-C60/SD-CG/FIRE-HFTN
REM
REM
REM
REM
REM
REM ./C.cell (414f73aa93bd7a1190c7fd0f31ff2f98)
REM
REM compiler GCC version 9.2.1 20190827 (Red Hat 9.2.1-1)
REM options -cpp -mtune=generic -march=x86-64 -g -O0 -fpre-include=/usr/include/finclude/math-vector-fortran.h
REM seed -1597578489 2039350956 428803475 681988354 1729071721 -618725735 -1045718321 1556684201 68761535 1124332846 1518743024 1575906073 856595921 -1860258905 792344078 -1224298214 1929048366 2040106856 -1605079837 -682537789 -594655160 408267076 -1422082119 -1766259610 -125092203 -450390881 -926000829 1835652486 1195277459 -1757958597 842272670 -694101369 -1588434023
REM
CELL 1.54180   50.00000   50.00000   50.00000   90.00000   90.00000   90.00000
LATT -1
SFAC C  
C      1  0.5261930000000  0.5466510000000  0.4849770000000 1.0
C      1  0.4999130000000  0.5466510000000  0.5301940000000 1.0
C      1  0.4738940000000  0.5466510000000  0.4848270000000 1.0
C      1  0.5262100000000  0.5465380000000  0.5150180000000 1.0
C      1  0.4999020000000  0.5465380000000  0.4697920000000 1.0
C      1  0.4738880000000  0.5465380000000  0.5151880000000 1.0
C      1  0.5588910000000  0.4963110000000  0.5644990000000 1.0
C      1  0.4146970000000  0.4963100000000  0.5187520000000 1.0
C      1  0.5264120000000  0.4963090000000  0.4167490000000 1.0
C      1  0.5593350000000  0.4968480000000  0.4352560000000 1.0
C      1  0.4142620000000  0.4968490000000  0.4809870000000 1.0
C      1  0.5264030000000  0.4968500000000  0.5837580000000 1.0
C      1  0.5000380000000  0.5231090000000  0.4493370000000 1.0
C      1  0.5438560000000  0.5231100000000  0.5253640000000 1.0
C      1  0.4561060000000  0.5231100000000  0.5252980000000 1.0
C      1  0.5000220000000  0.5234190000000  0.5507630000000 1.0
C      1  0.5439510000000  0.5234180000000  0.4745990000000 1.0
C      1  0.4560270000000  0.5234180000000  0.4746370000000 1.0
C      1  0.4520480000000  0.5181620000000  0.4454480000000 1.0
C      1  0.5712190000000  0.5181620000000  0.4857480000000 1.0
C      1  0.4767320000000  0.5181630000000  0.5688030000000 1.0
C      1  0.4521880000000  0.5175280000000  0.5543730000000 1.0
C      1  0.5709950000000  0.5175280000000  0.5142200000000 1.0
C      1  0.4768170000000  0.5175260000000  0.4314070000000 1.0
C      1  0.4806450000000  0.4935220000000  0.4169800000000 1.0
C      1  0.5815750000000  0.4935230000000  0.5247480000000 1.0
C      1  0.4377800000000  0.4935230000000  0.5582720000000 1.0
C      1  0.4806600000000  0.4948320000000  0.5842760000000 1.0
C      1  0.5826550000000  0.4948310000000  0.4746110000000 1.0
C      1  0.4366850000000  0.4948300000000  0.4411130000000 1.0
C      1  0.5060510000000  0.4730310000000  0.4534520000000 1.0
C      1  0.5372870000000  0.4730320000000  0.5285150000000 1.0
C      1  0.4566620000000  0.4730310000000  0.5180340000000 1.0
C      1  0.5050610000000  0.4736010000000  0.5475860000000 1.0
C      1  0.5386800000000  0.4736000000000  0.4718240000000 1.0
C      1  0.4562590000000  0.4736000000000  0.4805900000000 1.0
C      1  0.5236630000000  0.5226490000000  0.5694110000000 1.0
C      1  0.4280560000000  0.5226480000000  0.4857860000000 1.0
C      1  0.5482810000000  0.5226480000000  0.4448020000000 1.0
C      1  0.5234940000000  0.5223450000000  0.4305970000000 1.0
C      1  0.4281480000000  0.5223460000000  0.5143550000000 1.0
C      1  0.5483580000000  0.5223460000000  0.5550480000000 1.0
C      1  0.5270600000000  0.4993720000000  0.4842290000000 1.0
C      1  0.5001280000000  0.4993730000000  0.5313200000000 1.0
C      1  0.4728120000000  0.4993720000000  0.4844510000000 1.0
C      1  0.5267800000000  0.4992040000000  0.5157870000000 1.0
C      1  0.5002820000000  0.4992040000000  0.4689140000000 1.0
C      1  0.4729380000000  0.4992040000000  0.5152990000000 1.0
C      1  0.5040550000000  0.4789300000000  0.4234310000000 1.0
C      1  0.5642830000000  0.4789310000000  0.5417970000000 1.0
C      1  0.4316620000000  0.4789310000000  0.5347730000000 1.0
C      1  0.5037190000000  0.4798040000000  0.5776160000000 1.0
C      1  0.5653570000000  0.4798030000000  0.4579720000000 1.0
C      1  0.4309240000000  0.4798030000000  0.4644130000000 1.0
C      1  0.5267680000000  0.4465930000000  0.5140320000000 1.0
C      1  0.4744640000000  0.4465930000000  0.5161660000000 1.0
C      1  0.4987680000000  0.4465920000000  0.4698030000000 1.0
C      1  0.5258240000000  0.4475520000000  0.4839970000000 1.0
C      1  0.4732290000000  0.4475520000000  0.4856380000000 1.0
C      1  0.5009470000000  0.4475520000000  0.5303660000000 1.0
END
