TITL C-38195-9455-157 -2.24432267247636e-05 125000 -365.090915311842 0 0 60 (C1) n - 1
REM
REM in /home/bkarasulu/CARBON/AIRSS/Generating-Clusters/EDIP-Nigel-Params/Higher-Symm/Box-15A/Only-C60/SD-CG/FIRE-HFTN
REM
REM
REM
REM
REM
REM ./C.cell (414f73aa93bd7a1190c7fd0f31ff2f98)
REM
REM compiler GCC version 9.2.1 20190827 (Red Hat 9.2.1-1)
REM options -cpp -mtune=generic -march=x86-64 -g -O0 -fpre-include=/usr/include/finclude/math-vector-fortran.h
REM seed -1300426763 -645095667 -1650077078 1462600461 -1835980503 1425382675 1118168196 450827607 956763271 1393070008 815530714 -579343814 -1949762388 -1365904944 -298755025 1666441708 -1139369170 626154714 -318017606 -1593839310 1134811991 -1233209223 690490063 1351432274 -639776464 19360594 203273973 -1707774622 1365534904 -1959275199 -447729551 -1378684222 -27794290
REM
CELL 1.54180   50.00000   50.00000   50.00000   90.00000   90.00000   90.00000
LATT -1
SFAC C  
C      1  0.4586070000000  0.5613570000000  0.5201700000000 1.0
C      1  0.4914310000000  0.5225720000000  0.5202180000000 1.0
C      1  0.4527870000000  0.4743340000000  0.4984860000000 1.0
C      1  0.5561740000000  0.4814120000000  0.5327460000000 1.0
C      1  0.5769140000000  0.5025280000000  0.4939680000000 1.0
C      1  0.5366850000000  0.5319970000000  0.4489000000000 1.0
C      1  0.5299050000000  0.5621840000000  0.5139060000000 1.0
C      1  0.4997210000000  0.4856650000000  0.5828720000000 1.0
C      1  0.5141040000000  0.5106280000000  0.5018870000000 1.0
C      1  0.4636510000000  0.4480300000000  0.5090200000000 1.0
C      1  0.5704210000000  0.4813370000000  0.4758420000000 1.0
C      1  0.5147810000000  0.5187740000000  0.4379480000000 1.0
C      1  0.4589000000000  0.5175770000000  0.4780250000000 1.0
C      1  0.5440670000000  0.5157340000000  0.5084750000000 1.0
C      1  0.5032680000000  0.4607440000000  0.5398350000000 1.0
C      1  0.4992350000000  0.4884510000000  0.4891270000000 1.0
C      1  0.4363160000000  0.5319530000000  0.4915370000000 1.0
C      1  0.5363590000000  0.4747690000000  0.4479280000000 1.0
C      1  0.5162570000000  0.4735340000000  0.5631500000000 1.0
C      1  0.5477310000000  0.4596970000000  0.5156950000000 1.0
C      1  0.5446030000000  0.5393910000000  0.5267820000000 1.0
C      1  0.4862160000000  0.4381190000000  0.4922990000000 1.0
C      1  0.5611110000000  0.4880380000000  0.4501260000000 1.0
C      1  0.5197280000000  0.4533400000000  0.5170710000000 1.0
C      1  0.4438970000000  0.5414050000000  0.5346840000000 1.0
C      1  0.5055410000000  0.4255500000000  0.4465530000000 1.0
C      1  0.4549630000000  0.4620720000000  0.5543020000000 1.0
C      1  0.5762260000000  0.4983310000000  0.5218930000000 1.0
C      1  0.5135030000000  0.4898140000000  0.4384100000000 1.0
C      1  0.4890520000000  0.5081430000000  0.5695790000000 1.0
C      1  0.4663760000000  0.4297100000000  0.4742990000000 1.0
C      1  0.4868400000000  0.5529380000000  0.5174970000000 1.0
C      1  0.4655430000000  0.5643070000000  0.4697290000000 1.0
C      1  0.5477280000000  0.5124640000000  0.5693670000000 1.0
C      1  0.4748570000000  0.4534030000000  0.5369670000000 1.0
C      1  0.4391380000000  0.4718650000000  0.4741750000000 1.0
C      1  0.4909150000000  0.4761620000000  0.4294700000000 1.0
C      1  0.5437120000000  0.5504000000000  0.4672000000000 1.0
C      1  0.5321030000000  0.4534500000000  0.4691380000000 1.0
C      1  0.5046890000000  0.5181840000000  0.5472580000000 1.0
C      1  0.4904030000000  0.5314890000000  0.4413950000000 1.0
C      1  0.5067030000000  0.5708920000000  0.5275900000000 1.0
C      1  0.4311970000000  0.5221810000000  0.5188320000000 1.0
C      1  0.4472350000000  0.4688930000000  0.4486440000000 1.0
C      1  0.4617410000000  0.5101190000000  0.5652270000000 1.0
C      1  0.4390200000000  0.5032430000000  0.5509030000000 1.0
C      1  0.5111240000000  0.5844310000000  0.4751640000000 1.0
C      1  0.4844830000000  0.5849820000000  0.4712540000000 1.0
C      1  0.5426730000000  0.4867570000000  0.5581870000000 1.0
C      1  0.5301980000000  0.4271430000000  0.4573010000000 1.0
C      1  0.4716770000000  0.4985270000000  0.4982540000000 1.0
C      1  0.4704900000000  0.4588740000000  0.4369340000000 1.0
C      1  0.4787020000000  0.4333760000000  0.4486380000000 1.0
C      1  0.4320290000000  0.4763410000000  0.5539590000000 1.0
C      1  0.5318150000000  0.5294150000000  0.5526340000000 1.0
C      1  0.5083040000000  0.4587100000000  0.4898640000000 1.0
C      1  0.4754630000000  0.5374770000000  0.4641840000000 1.0
C      1  0.5309680000000  0.5675170000000  0.4849660000000 1.0
C      1  0.5560780000000  0.4581150000000  0.4870440000000 1.0
C      1  0.4456390000000  0.5611580000000  0.4924890000000 1.0
END
