TITL C-38196-2854-539 1.0363042748707e-06 125000 -369.07040295805 0 0 60 (C5) n - 1
REM
REM in /home/bkarasulu/CARBON/AIRSS/Generating-Clusters/EDIP-Nigel-Params/Higher-Symm/Box-15A/Only-C60/SD-CG/FIRE-HFTN
REM
REM
REM
REM
REM
REM ./C.cell (414f73aa93bd7a1190c7fd0f31ff2f98)
REM
REM compiler GCC version 9.2.1 20190827 (Red Hat 9.2.1-1)
REM options -cpp -mtune=generic -march=x86-64 -g -O0 -fpre-include=/usr/include/finclude/math-vector-fortran.h
REM seed -1912162757 -720143859 -2046443743 -1995417454 -591296164 1025778367 420096957 521458813 -149053077 1393054435 -1322756399 -1731889069 -786557516 -2120144639 1537910129 -1853325594 570418514 -451266162 -392037533 -1006129526 -749418473 2055053572 -375505908 -503160388 -1441353866 73248816 -819928330 880339903 218542245 274804082 -155198925 1117888979 -355534692
REM
CELL 1.54180   50.00000   50.00000   50.00000   90.00000   90.00000   90.00000
LATT -1
SFAC C  
C      1  0.5614410000000  0.4888520000000  0.5394290000000 1.0
C      1  0.5614410000000  0.5340540000000  0.5227870000000 1.0
C      1  0.5614410000000  0.5321950000000  0.4746540000000 1.0
C      1  0.5614410000000  0.4858430000000  0.4615480000000 1.0
C      1  0.5614410000000  0.4590560000000  0.5015820000000 1.0
C      1  0.5304610000000  0.5187590000000  0.4403480000000 1.0
C      1  0.5304610000000  0.4490640000000  0.4637250000000 1.0
C      1  0.5304610000000  0.4497610000000  0.5372330000000 1.0
C      1  0.5304610000000  0.5198860000000  0.5592860000000 1.0
C      1  0.5304610000000  0.5625300000000  0.4994070000000 1.0
C      1  0.5542060000000  0.4641990000000  0.5281630000000 1.0
C      1  0.5542060000000  0.5157210000000  0.5427520000000 1.0
C      1  0.5542060000000  0.5455170000000  0.4982590000000 1.0
C      1  0.5542060000000  0.5124100000000  0.4561720000000 1.0
C      1  0.5542060000000  0.4621520000000  0.4746540000000 1.0
C      1  0.4542880000000  0.5473770000000  0.4758580000000 1.0
C      1  0.4542880000000  0.4916800000000  0.4474810000000 1.0
C      1  0.4542880000000  0.4474810000000  0.4916840000000 1.0
C      1  0.4542880000000  0.4758620000000  0.5473790000000 1.0
C      1  0.4542880000000  0.5376010000000  0.5375980000000 1.0
C      1  0.4412190000000  0.5172010000000  0.5191830000000 1.0
C      1  0.4412190000000  0.5235590000000  0.4895690000000 1.0
C      1  0.4412190000000  0.4973600000000  0.4743700000000 1.0
C      1  0.4412190000000  0.4748090000000  0.4945910000000 1.0
C      1  0.4412190000000  0.4870720000000  0.5222870000000 1.0
C      1  0.4758070000000  0.4692400000000  0.4533960000000 1.0
C      1  0.4758070000000  0.4461710000000  0.5148530000000 1.0
C      1  0.4758070000000  0.4974920000000  0.5557840000000 1.0
C      1  0.4758070000000  0.5522790000000  0.5196230000000 1.0
C      1  0.4758070000000  0.5348180000000  0.4563440000000 1.0
C      1  0.5137780000000  0.4596730000000  0.5591010000000 1.0
C      1  0.5137780000000  0.5437460000000  0.5566170000000 1.0
C      1  0.5137780000000  0.5673640000000  0.4758900000000 1.0
C      1  0.5137780000000  0.4978870000000  0.4284830000000 1.0
C      1  0.5137780000000  0.4313300000000  0.4799090000000 1.0
C      1  0.4826060000000  0.5248420000000  0.5060580000000 1.0
C      1  0.4826060000000  0.5134380000000  0.4782460000000 1.0
C      1  0.4826060000000  0.4834630000000  0.4804980000000 1.0
C      1  0.4826060000000  0.4763420000000  0.5097010000000 1.0
C      1  0.4826060000000  0.5019150000000  0.5254980000000 1.0
C      1  0.5093620000000  0.5424310000000  0.4594430000000 1.0
C      1  0.5093620000000  0.4745400000000  0.4471130000000 1.0
C      1  0.5093620000000  0.4418340000000  0.5078710000000 1.0
C      1  0.5093620000000  0.4895110000000  0.5577510000000 1.0
C      1  0.5093620000000  0.5516840000000  0.5278210000000 1.0
C      1  0.5203600000000  0.4927980000000  0.5260310000000 1.0
C      1  0.5203600000000  0.5225320000000  0.5148930000000 1.0
C      1  0.5203600000000  0.5211270000000  0.4831730000000 1.0
C      1  0.5203600000000  0.4905260000000  0.4747070000000 1.0
C      1  0.5203600000000  0.4730170000000  0.5011950000000 1.0
C      1  0.4892300000000  0.5074600000000  0.4192930000000 1.0
C      1  0.4892300000000  0.4255480000000  0.4679650000000 1.0
C      1  0.4892300000000  0.4465260000000  0.5609080000000 1.0
C      1  0.4892300000000  0.5414030000000  0.5696790000000 1.0
C      1  0.4892300000000  0.5790620000000  0.4821550000000 1.0
C      1  0.4672430000000  0.5668210000000  0.4944910000000 1.0
C      1  0.4672430000000  0.5154100000000  0.4347470000000 1.0
C      1  0.4672430000000  0.4427030000000  0.4651800000000 1.0
C      1  0.4672430000000  0.4491790000000  0.5437330000000 1.0
C      1  0.4672430000000  0.5258880000000  0.5618480000000 1.0
END
