TITL C-38187-2739-117 -1.40612814856089e-06 125000 -351.948312745193 0 0 60 (D2d) n - 1
REM
REM in /home/bkarasulu/CARBON/AIRSS/Generating-Clusters/EDIP-Nigel-Params/Higher-Symm/Box-15A/Only-C60/SD-CG/FIRE-HFTN
REM
REM
REM
REM
REM
REM ./C.cell (414f73aa93bd7a1190c7fd0f31ff2f98)
REM
REM compiler GCC version 9.2.1 20190827 (Red Hat 9.2.1-1)
REM options -cpp -mtune=generic -march=x86-64 -g -O0 -fpre-include=/usr/include/finclude/math-vector-fortran.h
REM seed 2135745058 858664813 237692678 473390578 1393707189 1447330629 113362812 -633697140 -461765921 -1864973476 -404540553 584757732 -1376195015 -1917856041 44984758 -1071485962 2108009599 1141773262 -1583175041 -1955597286 -1577438153 -31245408 598206423 1966602691 -1912789664 357413009 963159638 1024365063 -1994484621 -1061214439 2106380563 -1405448481 -393734111
REM
CELL 1.54180   50.00000   50.00000   50.00000   90.00000   90.00000   90.00000
LATT -1
SFAC C  
C      1  0.5283500000000  0.4271890000000  0.4926940000000 1.0
C      1  0.4716500000000  0.4271890000000  0.5073060000000 1.0
C      1  0.4716500000000  0.5728110000000  0.4926940000000 1.0
C      1  0.5283500000000  0.5728110000000  0.5073060000000 1.0
C      1  0.4926940000000  0.4271890000000  0.5283500000000 1.0
C      1  0.5073060000000  0.4271890000000  0.4716500000000 1.0
C      1  0.4926940000000  0.5728110000000  0.4716500000000 1.0
C      1  0.5073060000000  0.5728110000000  0.5283500000000 1.0
C      1  0.4755970000000  0.5160980000000  0.5029270000000 1.0
C      1  0.5244030000000  0.5160980000000  0.4970730000000 1.0
C      1  0.5244030000000  0.4839020000000  0.5029270000000 1.0
C      1  0.4755970000000  0.4839020000000  0.4970730000000 1.0
C      1  0.5029270000000  0.5160980000000  0.4755970000000 1.0
C      1  0.4970730000000  0.5160980000000  0.5244030000000 1.0
C      1  0.5029270000000  0.4839020000000  0.5244030000000 1.0
C      1  0.4970730000000  0.4839020000000  0.4755970000000 1.0
C      1  0.5380720000000  0.4954940000000  0.4419000000000 1.0
C      1  0.4619280000000  0.4954940000000  0.5581000000000 1.0
C      1  0.4619280000000  0.5045060000000  0.4419000000000 1.0
C      1  0.5380720000000  0.5045060000000  0.5581000000000 1.0
C      1  0.4419000000000  0.4954940000000  0.5380720000000 1.0
C      1  0.5581000000000  0.4954940000000  0.4619280000000 1.0
C      1  0.4419000000000  0.5045060000000  0.4619280000000 1.0
C      1  0.5581000000000  0.5045060000000  0.5380720000000 1.0
C      1  0.4892320000000  0.4674090000000  0.4512410000000 1.0
C      1  0.5107680000000  0.4674090000000  0.5487590000000 1.0
C      1  0.5107680000000  0.5325910000000  0.4512410000000 1.0
C      1  0.4892320000000  0.5325910000000  0.5487590000000 1.0
C      1  0.4512410000000  0.4674090000000  0.4892320000000 1.0
C      1  0.5487590000000  0.4674090000000  0.5107680000000 1.0
C      1  0.4512410000000  0.5325910000000  0.5107680000000 1.0
C      1  0.5487590000000  0.5325910000000  0.4892320000000 1.0
C      1  0.4476110000000  0.5549190000000  0.4903990000000 1.0
C      1  0.5523890000000  0.5549190000000  0.5096010000000 1.0
C      1  0.5523890000000  0.4450810000000  0.4903990000000 1.0
C      1  0.4476110000000  0.4450810000000  0.5096010000000 1.0
C      1  0.4903990000000  0.5549190000000  0.4476110000000 1.0
C      1  0.5096010000000  0.5549190000000  0.5523890000000 1.0
C      1  0.4903990000000  0.4450810000000  0.5523890000000 1.0
C      1  0.5096010000000  0.4450810000000  0.4476110000000 1.0
C      1  0.5666940000000  0.4914490000000  0.5132640000000 1.0
C      1  0.4333060000000  0.4914490000000  0.4867360000000 1.0
C      1  0.4333060000000  0.5085510000000  0.5132640000000 1.0
C      1  0.5666940000000  0.5085510000000  0.4867360000000 1.0
C      1  0.5132640000000  0.4914490000000  0.5666940000000 1.0
C      1  0.4867360000000  0.4914490000000  0.4333060000000 1.0
C      1  0.5132640000000  0.5085510000000  0.4333060000000 1.0
C      1  0.4867360000000  0.5085510000000  0.5666940000000 1.0
C      1  0.5559420000000  0.5464890000000  0.5365310000000 1.0
C      1  0.4440580000000  0.5464890000000  0.4634690000000 1.0
C      1  0.4440580000000  0.4535110000000  0.5365310000000 1.0
C      1  0.5559420000000  0.4535110000000  0.4634690000000 1.0
C      1  0.5365310000000  0.5464890000000  0.5559420000000 1.0
C      1  0.4634690000000  0.5464890000000  0.4440580000000 1.0
C      1  0.5365310000000  0.4535110000000  0.4440580000000 1.0
C      1  0.4634690000000  0.4535110000000  0.5559420000000 1.0
C      1  0.5186090000000  0.4212670000000  0.5186090000000 1.0
C      1  0.4813910000000  0.4212670000000  0.4813910000000 1.0
C      1  0.4813910000000  0.5787330000000  0.5186090000000 1.0
C      1  0.5186090000000  0.5787330000000  0.4813910000000 1.0
END
