TITL C-38189-4514-19 1.66482087387207e-06 125000 -349.126794039128 0 0 60 (C6h) n - 1
REM
REM in /home/bkarasulu/CARBON/AIRSS/Generating-Clusters/EDIP-Nigel-Params/Higher-Symm/Box-15A/Only-C60/SD-CG/FIRE-HFTN
REM
REM
REM
REM
REM
REM ./C.cell (414f73aa93bd7a1190c7fd0f31ff2f98)
REM
REM compiler GCC version 9.2.1 20190827 (Red Hat 9.2.1-1)
REM options -cpp -mtune=generic -march=x86-64 -g -O0 -fpre-include=/usr/include/finclude/math-vector-fortran.h
REM seed 846262804 -498286269 -323924459 -909822902 1010872600 -1814220543 342755910 -1458134722 791646292 251367524 750320843 614612102 1780900792 2029628533 -837457241 -382673120 597031522 1795532163 -1617424950 1071074354 -2092620097 -743587413 -1592399518 -986138181 38071052 961163373 567805720 -1722710826 -2121214354 -542691769 -87496280 395794562 -194728421
REM
CELL 1.54180   50.00000   50.00000   50.00000   90.00000   90.00000   90.00000
LATT -1
SFAC C  
C      1  0.4430830000000  0.4725090000000  0.4669720000000 1.0
C      1  0.5001440000000  0.4725090000000  0.4341940000000 1.0
C      1  0.5570610000000  0.4725090000000  0.4672220000000 1.0
C      1  0.5569170000000  0.4725090000000  0.5330280000000 1.0
C      1  0.4998560000000  0.4725090000000  0.5658060000000 1.0
C      1  0.4429390000000  0.4725090000000  0.5327780000000 1.0
C      1  0.4430830000000  0.5274910000000  0.4669720000000 1.0
C      1  0.5001440000000  0.5274910000000  0.4341940000000 1.0
C      1  0.5570610000000  0.5274910000000  0.4672220000000 1.0
C      1  0.5569170000000  0.5274910000000  0.5330280000000 1.0
C      1  0.4998560000000  0.5274910000000  0.5658060000000 1.0
C      1  0.4429390000000  0.5274910000000  0.5327780000000 1.0
C      1  0.4727600000000  0.5152760000000  0.5543380000000 1.0
C      1  0.4393220000000  0.5152760000000  0.5035780000000 1.0
C      1  0.4665630000000  0.5152760000000  0.4492400000000 1.0
C      1  0.5272400000000  0.5152760000000  0.4456620000000 1.0
C      1  0.5606780000000  0.5152760000000  0.4964220000000 1.0
C      1  0.5334370000000  0.5152760000000  0.5507600000000 1.0
C      1  0.4727600000000  0.4847240000000  0.5543380000000 1.0
C      1  0.4393220000000  0.4847240000000  0.5035780000000 1.0
C      1  0.4665630000000  0.4847240000000  0.4492400000000 1.0
C      1  0.5272400000000  0.4847240000000  0.4456620000000 1.0
C      1  0.5606780000000  0.4847240000000  0.4964220000000 1.0
C      1  0.5334370000000  0.4847240000000  0.5507600000000 1.0
C      1  0.5160340000000  0.4794780000000  0.5255210000000 1.0
C      1  0.4859150000000  0.4794780000000  0.5266470000000 1.0
C      1  0.4698810000000  0.4794780000000  0.5011250000000 1.0
C      1  0.4839660000000  0.4794780000000  0.4744790000000 1.0
C      1  0.5140850000000  0.4794780000000  0.4733530000000 1.0
C      1  0.5301190000000  0.4794780000000  0.4988750000000 1.0
C      1  0.5160340000000  0.5205220000000  0.5255210000000 1.0
C      1  0.4859150000000  0.5205220000000  0.5266470000000 1.0
C      1  0.4698810000000  0.5205220000000  0.5011250000000 1.0
C      1  0.4839660000000  0.5205220000000  0.4744790000000 1.0
C      1  0.5140850000000  0.5205220000000  0.4733530000000 1.0
C      1  0.5301190000000  0.5205220000000  0.4988750000000 1.0
C      1  0.4968250000000  0.5533250000000  0.4443960000000 1.0
C      1  0.5465670000000  0.5533250000000  0.4694480000000 1.0
C      1  0.5497420000000  0.5533250000000  0.5250520000000 1.0
C      1  0.5031750000000  0.5533250000000  0.5556040000000 1.0
C      1  0.4534330000000  0.5533250000000  0.5305520000000 1.0
C      1  0.4502580000000  0.5533250000000  0.4749480000000 1.0
C      1  0.4968250000000  0.4466750000000  0.4443960000000 1.0
C      1  0.5465670000000  0.4466750000000  0.4694480000000 1.0
C      1  0.5497420000000  0.4466750000000  0.5250520000000 1.0
C      1  0.5031750000000  0.4466750000000  0.5556040000000 1.0
C      1  0.4534330000000  0.4466750000000  0.5305520000000 1.0
C      1  0.4502580000000  0.4466750000000  0.4749480000000 1.0
C      1  0.4741390000000  0.5618830000000  0.4867840000000 1.0
C      1  0.4985150000000  0.5618830000000  0.4709960000000 1.0
C      1  0.5243760000000  0.5618830000000  0.4842120000000 1.0
C      1  0.5258610000000  0.5618830000000  0.5132160000000 1.0
C      1  0.5014850000000  0.5618830000000  0.5290040000000 1.0
C      1  0.4756240000000  0.5618830000000  0.5157880000000 1.0
C      1  0.4741390000000  0.4381170000000  0.4867840000000 1.0
C      1  0.4985150000000  0.4381170000000  0.4709960000000 1.0
C      1  0.5243760000000  0.4381170000000  0.4842120000000 1.0
C      1  0.5258610000000  0.4381170000000  0.5132160000000 1.0
C      1  0.5014850000000  0.4381170000000  0.5290040000000 1.0
C      1  0.4756240000000  0.4381170000000  0.5157880000000 1.0
END
