TITL C-38189-4514-697 -2.75651313730692e-07 125000 -367.308819092652 0 0 60 (C5) n - 1
REM
REM in /home/bkarasulu/CARBON/AIRSS/Generating-Clusters/EDIP-Nigel-Params/Higher-Symm/Box-15A/Only-C60/SD-CG/FIRE-HFTN
REM
REM
REM
REM
REM
REM ./C.cell (414f73aa93bd7a1190c7fd0f31ff2f98)
REM
REM compiler GCC version 9.2.1 20190827 (Red Hat 9.2.1-1)
REM options -cpp -mtune=generic -march=x86-64 -g -O0 -fpre-include=/usr/include/finclude/math-vector-fortran.h
REM seed 1296551720 -1922760863 1684012090 -1183435001 639565193 -417296470 83876961 -529889471 -2020143066 -1885859578 -64216743 342133297 681449654 -863932124 435389877 526518015 1172441883 830939581 -1945404558 1368335803 2040224916 1030834705 1919217307 492966833 -416420208 1273559215 -682467164 -1185604085 2091756500 -937369713 1176697796 -1335359292 -1579161981
REM
CELL 1.54180   50.00000   50.00000   50.00000   90.00000   90.00000   90.00000
LATT -1
SFAC C  
C      1  0.5198510000000  0.5534950000000  0.4848880000000 1.0
C      1  0.4917620000000  0.5534950000000  0.4764510000000 1.0
C      1  0.4750580000000  0.5534950000000  0.5005580000000 1.0
C      1  0.4928230000000  0.5534950000000  0.5238940000000 1.0
C      1  0.5205070000000  0.5534950000000  0.5142090000000 1.0
C      1  0.4513710000000  0.4818080000000  0.5165080000000 1.0
C      1  0.5006730000000  0.4818080000000  0.5513510000000 1.0
C      1  0.5490450000000  0.4818080000000  0.5152280000000 1.0
C      1  0.5296390000000  0.4818080000000  0.4580610000000 1.0
C      1  0.4692720000000  0.4818080000000  0.4588520000000 1.0
C      1  0.5731230000000  0.4936360000000  0.4735260000000 1.0
C      1  0.4974180000000  0.4936350000000  0.4222750000000 1.0
C      1  0.4252820000000  0.4936350000000  0.4784380000000 1.0
C      1  0.4564040000000  0.4936360000000  0.5643980000000 1.0
C      1  0.5477740000000  0.4936360000000  0.5613630000000 1.0
C      1  0.4527090000000  0.5349890000000  0.4664700000000 1.0
C      1  0.4534970000000  0.5349890000000  0.5346150000000 1.0
C      1  0.5185510000000  0.5349890000000  0.5549230000000 1.0
C      1  0.5579670000000  0.5349890000000  0.4993300000000 1.0
C      1  0.5172750000000  0.5349890000000  0.4446630000000 1.0
C      1  0.4915830000000  0.5293170000000  0.5414280000000 1.0
C      1  0.5367990000000  0.5293170000000  0.5208070000000 1.0
C      1  0.5311600000000  0.5293170000000  0.4714320000000 1.0
C      1  0.4824590000000  0.5293170000000  0.4615370000000 1.0
C      1  0.4579990000000  0.5293170000000  0.5047970000000 1.0
C      1  0.4628100000000  0.4974250000000  0.4341270000000 1.0
C      1  0.4258590000000  0.4974250000000  0.5150140000000 1.0
C      1  0.4913680000000  0.4974250000000  0.5751520000000 1.0
C      1  0.5688070000000  0.4974250000000  0.5314320000000 1.0
C      1  0.5511560000000  0.4974250000000  0.4442740000000 1.0
C      1  0.5176440000000  0.5024790000000  0.4795980000000 1.0
C      1  0.4860490000000  0.5024790000000  0.4769150000000 1.0
C      1  0.4737340000000  0.5024790000000  0.5061350000000 1.0
C      1  0.4977180000000  0.5024790000000  0.5268760000000 1.0
C      1  0.5248560000000  0.5024790000000  0.5104760000000 1.0
C      1  0.5395590000000  0.5201430000000  0.4289980000000 1.0
C      1  0.4446980000000  0.5201430000000  0.4404370000000 1.0
C      1  0.4262630000000  0.5201430000000  0.5341900000000 1.0
C      1  0.5097300000000  0.5201430000000  0.5806940000000 1.0
C      1  0.5797510000000  0.5201430000000  0.5156820000000 1.0
C      1  0.5163200000000  0.5127730000000  0.4126690000000 1.0
C      1  0.4219870000000  0.5127730000000  0.4574920000000 1.0
C      1  0.4354650000000  0.5127730000000  0.5610590000000 1.0
C      1  0.5381280000000  0.5127730000000  0.5802450000000 1.0
C      1  0.5881000000000  0.5127730000000  0.4885350000000 1.0
C      1  0.4871000000000  0.4589930000000  0.4516370000000 1.0
C      1  0.4500180000000  0.4589930000000  0.4973230000000 1.0
C      1  0.4820090000000  0.4589930000000  0.5467090000000 1.0
C      1  0.5388630000000  0.4589930000000  0.5315440000000 1.0
C      1  0.5420100000000  0.4589930000000  0.4727870000000 1.0
C      1  0.4439370000000  0.4721810000000  0.4720520000000 1.0
C      1  0.4560960000000  0.4721810000000  0.5446830000000 1.0
C      1  0.5289290000000  0.4721810000000  0.5555630000000 1.0
C      1  0.5617830000000  0.4721810000000  0.4896570000000 1.0
C      1  0.5092550000000  0.4721810000000  0.4380440000000 1.0
C      1  0.5216350000000  0.4427630000000  0.4868390000000 1.0
C      1  0.4941690000000  0.4427630000000  0.4753570000000 1.0
C      1  0.4747610000000  0.4427630000000  0.4979300000000 1.0
C      1  0.4902320000000  0.4427630000000  0.5233640000000 1.0
C      1  0.5192020000000  0.4427630000000  0.5165100000000 1.0
END
