TITL C-38187-2739-547 2.0106975224075 125000 -361.361023280861 0 0 60 (C2) n - 1
REM
REM in /home/bkarasulu/CARBON/AIRSS/Generating-Clusters/EDIP-Nigel-Params/Higher-Symm/Box-15A/Only-C60/SD-CG/FIRE-HFTN
REM
REM
REM
REM
REM
REM ./C.cell (414f73aa93bd7a1190c7fd0f31ff2f98)
REM
REM compiler GCC version 9.2.1 20190827 (Red Hat 9.2.1-1)
REM options -cpp -mtune=generic -march=x86-64 -g -O0 -fpre-include=/usr/include/finclude/math-vector-fortran.h
REM seed -2003299511 222176110 -1149710624 -1063436396 -1045119082 -1183197157 -1604000614 -824798744 -2140473239 -1273594290 1242301132 -1059177946 1718624270 1533680250 -1558954716 -368338444 474151286 659151186 512982979 946787255 -979630271 -854609568 -2073090341 -1080209507 -1550210129 -1712320992 -188306499 -740151128 492326248 -997418279 2087474093 1412562304 260267477
REM
CELL 1.54180   50.00000   50.00000   50.00000   90.00000   90.00000   90.00000
LATT -1
SFAC C  
C      1  0.4374950000000  0.4920380000000  0.4927800000000 1.0
C      1  0.5060070000000  0.4466340000000  0.4865930000000 1.0
C      1  0.5667270000000  0.5048910000000  0.4815790000000 1.0
C      1  0.5335020000000  0.5780590000000  0.4850050000000 1.0
C      1  0.4539380000000  0.5691710000000  0.4906400000000 1.0
C      1  0.5625040000000  0.4920380000000  0.5072200000000 1.0
C      1  0.4939930000000  0.4466340000000  0.5134070000000 1.0
C      1  0.4332730000000  0.5048920000000  0.5184210000000 1.0
C      1  0.4664990000000  0.5780600000000  0.5149950000000 1.0
C      1  0.5460630000000  0.5691700000000  0.5093600000000 1.0
C      1  0.5416690000000  0.4660390000000  0.4084050000000 1.0
C      1  0.5167690000000  0.4919240000000  0.3703000000000 1.0
C      1  0.4710750000000  0.4736610000000  0.3626470000000 1.0
C      1  0.4731820000000  0.4387730000000  0.3981950000000 1.0
C      1  0.5188540000000  0.4388660000000  0.4241820000000 1.0
C      1  0.4583310000000  0.4660400000000  0.5915950000000 1.0
C      1  0.4832310000000  0.4919240000000  0.6297000000000 1.0
C      1  0.5289240000000  0.4736600000000  0.6373530000000 1.0
C      1  0.5268180000000  0.4387720000000  0.6018040000000 1.0
C      1  0.4811450000000  0.4388660000000  0.5758180000000 1.0
C      1  0.4621370000000  0.4572280000000  0.4683680000000 1.0
C      1  0.5428040000000  0.4681460000000  0.4583220000000 1.0
C      1  0.5620890000000  0.5483410000000  0.4569780000000 1.0
C      1  0.4885950000000  0.5873800000000  0.4649500000000 1.0
C      1  0.4289830000000  0.5306210000000  0.4720490000000 1.0
C      1  0.5378620000000  0.4572270000000  0.5316320000000 1.0
C      1  0.4571960000000  0.4681460000000  0.5416780000000 1.0
C      1  0.4379110000000  0.5483420000000  0.5430220000000 1.0
C      1  0.5114070000000  0.5873800000000  0.5350500000000 1.0
C      1  0.5710180000000  0.5306200000000  0.5279510000000 1.0
C      1  0.5452130000000  0.5688800000000  0.4615240000000 1.0
C      1  0.4628460000000  0.5793160000000  0.4661790000000 1.0
C      1  0.4277440000000  0.5038320000000  0.4693470000000 1.0
C      1  0.4868390000000  0.4466410000000  0.4662080000000 1.0
C      1  0.5605920000000  0.4894250000000  0.4592950000000 1.0
C      1  0.4547880000000  0.5688810000000  0.5384760000000 1.0
C      1  0.5371550000000  0.5793150000000  0.5338210000000 1.0
C      1  0.5722560000000  0.5038310000000  0.5306530000000 1.0
C      1  0.5131610000000  0.4466410000000  0.5337920000000 1.0
C      1  0.4394070000000  0.4894250000000  0.5407050000000 1.0
C      1  0.4712380000000  0.4638320000000  0.5663830000000 1.0
C      1  0.5062330000000  0.4343910000000  0.5856440000000 1.0
C      1  0.5363540000000  0.4534920000000  0.6217190000000 1.0
C      1  0.5073910000000  0.4889640000000  0.6402810000000 1.0
C      1  0.4661540000000  0.4829250000000  0.6115260000000 1.0
C      1  0.5287610000000  0.4638320000000  0.4336170000000 1.0
C      1  0.4937660000000  0.4343910000000  0.4143560000000 1.0
C      1  0.4636450000000  0.4534930000000  0.3782810000000 1.0
C      1  0.4926090000000  0.4889650000000  0.3597190000000 1.0
C      1  0.5338460000000  0.4829250000000  0.3884740000000 1.0
C      1  0.5464290000000  0.4680280000000  0.5074890000000 1.0
C      1  0.5641560000000  0.5468470000000  0.5064620000000 1.0
C      1  0.4941530000000  0.5862030000000  0.5131890000000 1.0
C      1  0.4350220000000  0.5337390000000  0.5193110000000 1.0
C      1  0.4690720000000  0.4617110000000  0.5161810000000 1.0
C      1  0.4535700000000  0.4680290000000  0.4925110000000 1.0
C      1  0.4358440000000  0.5468480000000  0.4935380000000 1.0
C      1  0.5058480000000  0.5862030000000  0.4868110000000 1.0
C      1  0.5649790000000  0.5337390000000  0.4806900000000 1.0
C      1  0.5309270000000  0.4617110000000  0.4838180000000 1.0
END
