TITL C-38194-9318-540 6.7020670971381e-06 125000 -357.44777861676 0 0 60 (C2h) n - 1
REM
REM in /home/bkarasulu/CARBON/AIRSS/Generating-Clusters/EDIP-Nigel-Params/Higher-Symm/Box-15A/Only-C60/SD-CG/FIRE-HFTN
REM
REM
REM
REM
REM
REM ./C.cell (414f73aa93bd7a1190c7fd0f31ff2f98)
REM
REM compiler GCC version 9.2.1 20190827 (Red Hat 9.2.1-1)
REM options -cpp -mtune=generic -march=x86-64 -g -O0 -fpre-include=/usr/include/finclude/math-vector-fortran.h
REM seed 1937874939 -2114715144 -873859460 -48524237 1736256364 -1280695189 -478421534 -365644185 -664236238 -1724923845 -679450190 -1181157962 133122534 956469579 463343279 1431969548 579352023 1622714426 269463427 1256261407 1143215524 2102562698 -1100148887 1536502798 -1924240670 -701422291 1053559851 -150168100 367303035 -1555857058 -1118509632 -270053355 602611688
REM
CELL 1.54180   50.00000   50.00000   50.00000   90.00000   90.00000   90.00000
LATT -1
SFAC C  
C      1  0.4434710000000  0.4631250000000  0.5124320000000 1.0
C      1  0.4434710000000  0.5368750000000  0.4875680000000 1.0
C      1  0.5565290000000  0.4631250000000  0.5124320000000 1.0
C      1  0.5565290000000  0.5368750000000  0.4875680000000 1.0
C      1  0.5344620000000  0.4538580000000  0.5539530000000 1.0
C      1  0.5344620000000  0.5461420000000  0.4460470000000 1.0
C      1  0.4655380000000  0.4538580000000  0.5539530000000 1.0
C      1  0.4655380000000  0.5461420000000  0.4460470000000 1.0
C      1  0.5654620000000  0.4853370000000  0.5320740000000 1.0
C      1  0.5654620000000  0.5146630000000  0.4679260000000 1.0
C      1  0.4345380000000  0.4853370000000  0.5320740000000 1.0
C      1  0.4345380000000  0.5146630000000  0.4679260000000 1.0
C      1  0.5153790000000  0.4995470000000  0.4260090000000 1.0
C      1  0.5153790000000  0.5004530000000  0.5739910000000 1.0
C      1  0.4846210000000  0.4995470000000  0.4260090000000 1.0
C      1  0.4846210000000  0.5004530000000  0.5739910000000 1.0
C      1  0.4666740000000  0.4478600000000  0.5240550000000 1.0
C      1  0.4666740000000  0.5521400000000  0.4759450000000 1.0
C      1  0.5333260000000  0.4478600000000  0.5240550000000 1.0
C      1  0.5333260000000  0.5521400000000  0.4759450000000 1.0
C      1  0.4449680000000  0.5381400000000  0.5175180000000 1.0
C      1  0.4449680000000  0.4618600000000  0.4824820000000 1.0
C      1  0.5550320000000  0.5381400000000  0.5175180000000 1.0
C      1  0.5550320000000  0.4618600000000  0.4824820000000 1.0
C      1  0.5153800000000  0.5215550000000  0.4918750000000 1.0
C      1  0.5153800000000  0.4784450000000  0.5081250000000 1.0
C      1  0.4846200000000  0.5215550000000  0.4918750000000 1.0
C      1  0.4846200000000  0.4784450000000  0.5081250000000 1.0
C      1  0.4417130000000  0.5289910000000  0.4433630000000 1.0
C      1  0.4417130000000  0.4710090000000  0.5566370000000 1.0
C      1  0.5582870000000  0.5289910000000  0.4433630000000 1.0
C      1  0.5582870000000  0.4710090000000  0.5566370000000 1.0
C      1  0.4506570000000  0.4872700000000  0.4668330000000 1.0
C      1  0.4506570000000  0.5127300000000  0.5331670000000 1.0
C      1  0.5493430000000  0.4872700000000  0.4668330000000 1.0
C      1  0.5493430000000  0.5127300000000  0.5331670000000 1.0
C      1  0.5212710000000  0.5185220000000  0.4489940000000 1.0
C      1  0.5212710000000  0.4814780000000  0.5510060000000 1.0
C      1  0.4787290000000  0.5185220000000  0.4489940000000 1.0
C      1  0.4787290000000  0.4814780000000  0.5510060000000 1.0
C      1  0.5219460000000  0.5068990000000  0.5209030000000 1.0
C      1  0.5219460000000  0.4931010000000  0.4790970000000 1.0
C      1  0.4780540000000  0.5068990000000  0.5209030000000 1.0
C      1  0.4780540000000  0.4931010000000  0.4790970000000 1.0
C      1  0.5146560000000  0.4571410000000  0.4543430000000 1.0
C      1  0.5146560000000  0.5428590000000  0.5456570000000 1.0
C      1  0.4853440000000  0.4571410000000  0.4543430000000 1.0
C      1  0.4853440000000  0.5428590000000  0.5456570000000 1.0
C      1  0.4846170000000  0.4353060000000  0.5005780000000 1.0
C      1  0.4846170000000  0.5646940000000  0.4994220000000 1.0
C      1  0.5153830000000  0.4353060000000  0.5005780000000 1.0
C      1  0.5153830000000  0.5646940000000  0.4994220000000 1.0
C      1  0.4697250000000  0.5233620000000  0.5613200000000 1.0
C      1  0.4697250000000  0.4766380000000  0.4386800000000 1.0
C      1  0.5302750000000  0.5233620000000  0.5613200000000 1.0
C      1  0.5302750000000  0.4766380000000  0.4386800000000 1.0
C      1  0.5303090000000  0.5553270000000  0.5239320000000 1.0
C      1  0.5303090000000  0.4446730000000  0.4760680000000 1.0
C      1  0.4696910000000  0.5553270000000  0.5239320000000 1.0
C      1  0.4696910000000  0.4446730000000  0.4760680000000 1.0
END
