TITL C-38195-9455-299 -8.51954502319361e-06 125000 -340.497403664326 0 0 60 (C3) n - 1
REM
REM in /home/bkarasulu/CARBON/AIRSS/Generating-Clusters/EDIP-Nigel-Params/Higher-Symm/Box-15A/Only-C60/SD-CG/FIRE-HFTN
REM
REM
REM
REM
REM
REM ./C.cell (414f73aa93bd7a1190c7fd0f31ff2f98)
REM
REM compiler GCC version 9.2.1 20190827 (Red Hat 9.2.1-1)
REM options -cpp -mtune=generic -march=x86-64 -g -O0 -fpre-include=/usr/include/finclude/math-vector-fortran.h
REM seed 2143204266 1717124558 -2097203001 1681345165 452855746 -955953279 -468394450 1365556548 1874278473 -51710683 1531445417 -419438401 1183699740 -1139321131 -810931477 -2074780509 -1965218401 -2102707475 1398693544 -273389146 51893075 1549135107 -1806494748 -827007011 1576458597 1355164637 -858314973 1730891312 630316849 -1086402411 1593465326 187323813 -1406266128
REM
CELL 1.54180   50.00000   50.00000   50.00000   90.00000   90.00000   90.00000
LATT -1
SFAC C  
C      1  0.5636730000000  0.4718890000000  0.5142380000000 1.0
C      1  0.4805160000000  0.4718900000000  0.4375630000000 1.0
C      1  0.4556920000000  0.4718890000000  0.5479160000000 1.0
C      1  0.5422420000000  0.5124270000000  0.4755920000000 1.0
C      1  0.4577630000000  0.5124270000000  0.4754450000000 1.0
C      1  0.4998760000000  0.5124270000000  0.5486790000000 1.0
C      1  0.5291650000000  0.4463020000000  0.5436240000000 1.0
C      1  0.5232190000000  0.4463020000000  0.4527540000000 1.0
C      1  0.4474970000000  0.4463020000000  0.5033380000000 1.0
C      1  0.5041080000000  0.4421730000000  0.5306450000000 1.0
C      1  0.5245080000000  0.4421730000000  0.4809430000000 1.0
C      1  0.4712650000000  0.4421730000000  0.4881280000000 1.0
C      1  0.4411460000000  0.5489870000000  0.5062600000000 1.0
C      1  0.5348700000000  0.5489870000000  0.5476630000000 1.0
C      1  0.5238650000000  0.5489880000000  0.4457940000000 1.0
C      1  0.4521240000000  0.5206300000000  0.5303360000000 1.0
C      1  0.5502320000000  0.5206300000000  0.5261180000000 1.0
C      1  0.4975250000000  0.5206300000000  0.4432630000000 1.0
C      1  0.4350090000000  0.5343370000000  0.4816070000000 1.0
C      1  0.5165890000000  0.5343370000000  0.5653050000000 1.0
C      1  0.5482830000000  0.5343370000000  0.4528050000000 1.0
C      1  0.5078060000000  0.5529520000000  0.4715730000000 1.0
C      1  0.4715010000000  0.5529520000000  0.5072780000000 1.0
C      1  0.5205740000000  0.5529520000000  0.5208660000000 1.0
C      1  0.5229090000000  0.5246470000000  0.5132370000000 1.0
C      1  0.5000310000000  0.5246470000000  0.4733660000000 1.0
C      1  0.4769410000000  0.5246470000000  0.5131140000000 1.0
C      1  0.4863580000000  0.4637570000000  0.5443820000000 1.0
C      1  0.5452790000000  0.4637580000000  0.4894480000000 1.0
C      1  0.4682440000000  0.4637580000000  0.4658870000000 1.0
C      1  0.5047340000000  0.4840270000000  0.5571600000000 1.0
C      1  0.5471570000000  0.4840270000000  0.4671440000000 1.0
C      1  0.4479900000000  0.4840270000000  0.4754130000000 1.0
C      1  0.5516630000000  0.4898880000000  0.5358600000000 1.0
C      1  0.5052460000000  0.4898890000000  0.4371520000000 1.0
C      1  0.4429710000000  0.4898890000000  0.5267040000000 1.0
C      1  0.4694870000000  0.5220470000000  0.5566230000000 1.0
C      1  0.5643160000000  0.5220470000000  0.4979380000000 1.0
C      1  0.4660780000000  0.5220470000000  0.4451560000000 1.0
C      1  0.4371770000000  0.4731050000000  0.5006520000000 1.0
C      1  0.5319990000000  0.4731050000000  0.5539040000000 1.0
C      1  0.5307050000000  0.4731050000000  0.4451600000000 1.0
C      1  0.4876880000000  0.5428580000000  0.5687250000000 1.0
C      1  0.5656960000000  0.5428580000000  0.4761240000000 1.0
C      1  0.4464970000000  0.5428580000000  0.4548680000000 1.0
C      1  0.5259060000000  0.4746130000000  0.5107870000000 1.0
C      1  0.4964110000000  0.4746130000000  0.4719950000000 1.0
C      1  0.4775640000000  0.4746130000000  0.5169340000000 1.0
C      1  0.4999600000000  0.5137060000000  0.4999060000000 1.0
C      1  0.4999600000000  0.6462270000000  0.4999050000000 1.0
C      1  0.4999600000000  0.3792180000000  0.4999060000000 1.0
C      1  0.4999600000000  0.5650630000000  0.4999060000000 1.0
C      1  0.4999600000000  0.4341250000000  0.4999050000000 1.0
C      1  0.4999600000000  0.5934020000000  0.4999060000000 1.0
C      1  0.4999600000000  0.6717970000000  0.4999050000000 1.0
C      1  0.4999600000000  0.4056910000000  0.4999050000000 1.0
C      1  0.4999600000000  0.3528330000000  0.4999060000000 1.0
C      1  0.4999600000000  0.3272620000000  0.4999060000000 1.0
C      1  0.4999600000000  0.4847020000000  0.4999060000000 1.0
C      1  0.4999600000000  0.6198410000000  0.4999050000000 1.0
END
