TITL C-38191-7580-189 1.44728647826313e-07 125000 -359.350640716425 0 0 60 (Ci) n - 1
REM
REM in /home/bkarasulu/CARBON/AIRSS/Generating-Clusters/EDIP-Nigel-Params/Higher-Symm/Box-15A/Only-C60/SD-CG/FIRE-HFTN
REM
REM
REM
REM
REM
REM ./C.cell (414f73aa93bd7a1190c7fd0f31ff2f98)
REM
REM compiler GCC version 9.2.1 20190827 (Red Hat 9.2.1-1)
REM options -cpp -mtune=generic -march=x86-64 -g -O0 -fpre-include=/usr/include/finclude/math-vector-fortran.h
REM seed 229018282 -178390136 1073423683 942624512 -1713981998 1562098358 1954215107 -1684550804 1964398261 -759590363 -1287590318 -1396042956 -612175134 -2035735126 -86225611 -469524566 -149807730 -1324223292 33568921 669935001 1118455413 2076555276 -691833614 436675886 -998816461 2114210403 -1480900756 1556698933 884348413 -912696816 2078869281 -271907317 -1274765906
REM
CELL 1.54180   50.00000   50.00000   50.00000   90.00000   90.00000   90.00000
LATT -1
SFAC C  
C      1  0.5051480000000  0.4750430000000  0.5539850000000 1.0
C      1  0.4950890000000  0.4753790000000  0.4453030000000 1.0
C      1  0.5049110000000  0.5246210000000  0.5546970000000 1.0
C      1  0.4948520000000  0.5249570000000  0.4460150000000 1.0
C      1  0.4607710000000  0.4365980000000  0.4693400000000 1.0
C      1  0.5389950000000  0.4363820000000  0.5304850000000 1.0
C      1  0.4610050000000  0.5636180000000  0.4695150000000 1.0
C      1  0.5392290000000  0.5634020000000  0.5306600000000 1.0
C      1  0.4660900000000  0.5157430000000  0.5350540000000 1.0
C      1  0.5339100000000  0.5160620000000  0.4651200000000 1.0
C      1  0.4660900000000  0.4839380000000  0.5348800000000 1.0
C      1  0.5339100000000  0.4842570000000  0.4649460000000 1.0
C      1  0.4274050000000  0.4865640000000  0.4884100000000 1.0
C      1  0.5725260000000  0.4866380000000  0.5116460000000 1.0
C      1  0.4274740000000  0.5133620000000  0.4883540000000 1.0
C      1  0.5725950000000  0.5134360000000  0.5115900000000 1.0
C      1  0.5604090000000  0.5289850000000  0.4683040000000 1.0
C      1  0.4396310000000  0.5287120000000  0.5317090000000 1.0
C      1  0.5603690000000  0.4712880000000  0.4682910000000 1.0
C      1  0.4395910000000  0.4710150000000  0.5316960000000 1.0
C      1  0.5051710000000  0.4228470000000  0.4861670000000 1.0
C      1  0.4946660000000  0.4225550000000  0.5137610000000 1.0
C      1  0.5053340000000  0.5774450000000  0.4862390000000 1.0
C      1  0.4948290000000  0.5771530000000  0.5138330000000 1.0
C      1  0.5327040000000  0.4314710000000  0.4821190000000 1.0
C      1  0.4671710000000  0.4313080000000  0.5178280000000 1.0
C      1  0.5328290000000  0.5686920000000  0.4821720000000 1.0
C      1  0.4672960000000  0.5685290000000  0.5178810000000 1.0
C      1  0.5340900000000  0.4461370000000  0.4562540000000 1.0
C      1  0.4658820000000  0.4458980000000  0.5437660000000 1.0
C      1  0.5341180000000  0.5541020000000  0.4562340000000 1.0
C      1  0.4659100000000  0.5538630000000  0.5437460000000 1.0
C      1  0.4948700000000  0.5526370000000  0.5549550000000 1.0
C      1  0.5050510000000  0.5529070000000  0.4450440000000 1.0
C      1  0.4949490000000  0.4470930000000  0.5549560000000 1.0
C      1  0.5051300000000  0.4473630000000  0.4450450000000 1.0
C      1  0.5175660000000  0.4876270000000  0.5757770000000 1.0
C      1  0.4803410000000  0.4854910000000  0.4235030000000 1.0
C      1  0.5196590000000  0.5145090000000  0.5764970000000 1.0
C      1  0.4824340000000  0.5123730000000  0.4242230000000 1.0
C      1  0.5440660000000  0.4460530000000  0.5045780000000 1.0
C      1  0.4558290000000  0.4460040000000  0.4953770000000 1.0
C      1  0.5441710000000  0.5539960000000  0.5046230000000 1.0
C      1  0.4559340000000  0.5539470000000  0.4954220000000 1.0
C      1  0.4349970000000  0.5353070000000  0.5038600000000 1.0
C      1  0.5651560000000  0.5354580000000  0.4961490000000 1.0
C      1  0.4348440000000  0.4645420000000  0.5038510000000 1.0
C      1  0.5650030000000  0.4646930000000  0.4961400000000 1.0
C      1  0.5120190000000  0.5695320000000  0.5364460000000 1.0
C      1  0.4881000000000  0.5701150000000  0.4635010000000 1.0
C      1  0.5119000000000  0.4298850000000  0.5364990000000 1.0
C      1  0.4879810000000  0.4304680000000  0.4635540000000 1.0
C      1  0.5155840000000  0.4755970000000  0.4884400000000 1.0
C      1  0.4842700000000  0.4757800000000  0.5111830000000 1.0
C      1  0.5157300000000  0.5242200000000  0.4888170000000 1.0
C      1  0.4844160000000  0.5244030000000  0.5115600000000 1.0
C      1  0.5102640000000  0.4847980000000  0.5257620000000 1.0
C      1  0.4897300000000  0.4849010000000  0.4737580000000 1.0
C      1  0.5102700000000  0.5150990000000  0.5262420000000 1.0
C      1  0.4897360000000  0.5152020000000  0.4742380000000 1.0
END
