TITL C-38189-4514-629 9.85456633757368e-06 125000 -360.324530935705 0 0 60 (C2) n - 1
REM
REM in /home/bkarasulu/CARBON/AIRSS/Generating-Clusters/EDIP-Nigel-Params/Higher-Symm/Box-15A/Only-C60/SD-CG/FIRE-HFTN
REM
REM
REM
REM
REM
REM ./C.cell (414f73aa93bd7a1190c7fd0f31ff2f98)
REM
REM compiler GCC version 9.2.1 20190827 (Red Hat 9.2.1-1)
REM options -cpp -mtune=generic -march=x86-64 -g -O0 -fpre-include=/usr/include/finclude/math-vector-fortran.h
REM seed -623544316 -1005058462 1425011085 -1841075266 -644122574 -1734256973 691375414 -2093179535 1942499510 188881870 1242493915 -667502231 487805075 -1089497130 1043363415 -555324936 -361364573 211198042 1330578164 -1061055122 -46527806 1346912158 317677280 -1906419349 329671776 10690625 -787970490 -429033279 -1229749660 -542225587 115173056 -1926923091 314231263
REM
CELL 1.54180   50.00000   50.00000   50.00000   90.00000   90.00000   90.00000
LATT -1
SFAC C  
C      1  0.4879410000000  0.5212420000000  0.5199710000000 1.0
C      1  0.4917960000000  0.5253300000000  0.4735910000000 1.0
C      1  0.4879350000000  0.4787620000000  0.4800290000000 1.0
C      1  0.4917880000000  0.4746730000000  0.5264090000000 1.0
C      1  0.4523410000000  0.4780290000000  0.5522390000000 1.0
C      1  0.4490720000000  0.5499410000000  0.5206190000000 1.0
C      1  0.4523480000000  0.5219860000000  0.4477610000000 1.0
C      1  0.4490570000000  0.4500760000000  0.4793810000000 1.0
C      1  0.5502510000000  0.4321150000000  0.5106960000000 1.0
C      1  0.5504420000000  0.5249430000000  0.5617340000000 1.0
C      1  0.5502720000000  0.5678690000000  0.4893050000000 1.0
C      1  0.5504340000000  0.4750410000000  0.4382670000000 1.0
C      1  0.4575870000000  0.5696400000000  0.5389320000000 1.0
C      1  0.4660060000000  0.5364270000000  0.4277160000000 1.0
C      1  0.4575650000000  0.4303730000000  0.4610670000000 1.0
C      1  0.4659940000000  0.4635840000000  0.5722840000000 1.0
C      1  0.5330210000000  0.5176660000000  0.4322470000000 1.0
C      1  0.5269590000000  0.4336340000000  0.4708490000000 1.0
C      1  0.5330150000000  0.4823240000000  0.5677530000000 1.0
C      1  0.5269800000000  0.5663580000000  0.5291510000000 1.0
C      1  0.4916580000000  0.4357440000000  0.5018420000000 1.0
C      1  0.4932150000000  0.5064710000000  0.5630860000000 1.0
C      1  0.4916790000000  0.5642580000000  0.4981580000000 1.0
C      1  0.4932130000000  0.4935310000000  0.4369140000000 1.0
C      1  0.5321490000000  0.5263140000000  0.5025350000000 1.0
C      1  0.5313390000000  0.4982460000000  0.4758980000000 1.0
C      1  0.5321400000000  0.4736760000000  0.4974660000000 1.0
C      1  0.5313390000000  0.5017440000000  0.5241020000000 1.0
C      1  0.4588010000000  0.5074810000000  0.5551920000000 1.0
C      1  0.4600260000000  0.5557550000000  0.4927680000000 1.0
C      1  0.4587990000000  0.4925320000000  0.4448070000000 1.0
C      1  0.4600080000000  0.4442570000000  0.5072310000000 1.0
C      1  0.5441220000000  0.4476040000000  0.4883430000000 1.0
C      1  0.5463570000000  0.4998960000000  0.5501130000000 1.0
C      1  0.5441390000000  0.5523820000000  0.5116580000000 1.0
C      1  0.5463580000000  0.5000890000000  0.4498870000000 1.0
C      1  0.5021630000000  0.4991850000000  0.4660560000000 1.0
C      1  0.5023220000000  0.4648840000000  0.5014110000000 1.0
C      1  0.5021630000000  0.5008150000000  0.5339440000000 1.0
C      1  0.5023330000000  0.5351150000000  0.4985890000000 1.0
C      1  0.5039010000000  0.4217380000000  0.5238690000000 1.0
C      1  0.5038210000000  0.5316540000000  0.5720680000000 1.0
C      1  0.5039260000000  0.5782610000000  0.4761310000000 1.0
C      1  0.5038110000000  0.4683450000000  0.4279330000000 1.0
C      1  0.5307070000000  0.4215330000000  0.5258540000000 1.0
C      1  0.5297690000000  0.5388180000000  0.5721380000000 1.0
C      1  0.5307320000000  0.5784570000000  0.4741460000000 1.0
C      1  0.5297570000000  0.4611730000000  0.4278620000000 1.0
C      1  0.5068620000000  0.4844750000000  0.5777930000000 1.0
C      1  0.5011620000000  0.5759060000000  0.5239700000000 1.0
C      1  0.5068680000000  0.5155220000000  0.4222080000000 1.0
C      1  0.5011380000000  0.4240940000000  0.4760300000000 1.0
C      1  0.4602840000000  0.5226680000000  0.5283700000000 1.0
C      1  0.4630420000000  0.5300140000000  0.4751450000000 1.0
C      1  0.4602770000000  0.4773450000000  0.4716300000000 1.0
C      1  0.4630320000000  0.4699980000000  0.5248550000000 1.0
C      1  0.4908160000000  0.5376090000000  0.4172210000000 1.0
C      1  0.4820710000000  0.4203280000000  0.4562380000000 1.0
C      1  0.4908030000000  0.4623940000000  0.5827790000000 1.0
C      1  0.4820960000000  0.5796780000000  0.5437610000000 1.0
END
