TITL C-38193-7935-436 5.18997391740966e-07 125000 -356.327231581416 0 0 60 (C2h) n - 1
REM
REM in /home/bkarasulu/CARBON/AIRSS/Generating-Clusters/EDIP-Nigel-Params/Higher-Symm/Box-15A/Only-C60/SD-CG/FIRE-HFTN
REM
REM
REM
REM
REM
REM ./C.cell (414f73aa93bd7a1190c7fd0f31ff2f98)
REM
REM compiler GCC version 9.2.1 20190827 (Red Hat 9.2.1-1)
REM options -cpp -mtune=generic -march=x86-64 -g -O0 -fpre-include=/usr/include/finclude/math-vector-fortran.h
REM seed -1781245621 2043340737 517524870 1117083326 -900944498 2129288165 -799543881 -1618675713 -1899489843 1469341578 1901908071 292051067 -945586890 -1783614104 -900174781 -1762586391 -620080001 1893326389 2086265699 -290394821 -1397782280 -1169955241 670459270 1769939654 653127167 -1240460431 -1051216014 -2133496144 -1005145015 1717040597 1250008176 904199310 461869031
REM
CELL 1.54180   50.00000   50.00000   50.00000   90.00000   90.00000   90.00000
LATT -1
SFAC C  
C      1  0.4847920000000  0.4339030000000  0.5011720000000 1.0
C      1  0.5152080000000  0.4339030000000  0.4988280000000 1.0
C      1  0.4847920000000  0.5660970000000  0.5011720000000 1.0
C      1  0.5152080000000  0.5660970000000  0.4988280000000 1.0
C      1  0.4665390000000  0.5143100000000  0.4294560000000 1.0
C      1  0.5334610000000  0.5143100000000  0.5705440000000 1.0
C      1  0.4665390000000  0.4856900000000  0.4294560000000 1.0
C      1  0.5334610000000  0.4856900000000  0.5705440000000 1.0
C      1  0.4578180000000  0.4846700000000  0.5285980000000 1.0
C      1  0.5421820000000  0.4846700000000  0.4714020000000 1.0
C      1  0.4578180000000  0.5153300000000  0.5285980000000 1.0
C      1  0.5421820000000  0.5153300000000  0.4714020000000 1.0
C      1  0.5091060000000  0.5284700000000  0.5752930000000 1.0
C      1  0.4908940000000  0.5284700000000  0.4247070000000 1.0
C      1  0.5091060000000  0.4715300000000  0.5752930000000 1.0
C      1  0.4908940000000  0.4715300000000  0.4247070000000 1.0
C      1  0.5365500000000  0.4711370000000  0.4452800000000 1.0
C      1  0.4634500000000  0.4711370000000  0.5547200000000 1.0
C      1  0.5365500000000  0.5288630000000  0.4452800000000 1.0
C      1  0.4634500000000  0.5288630000000  0.5547200000000 1.0
C      1  0.5322320000000  0.5561430000000  0.4500310000000 1.0
C      1  0.4677680000000  0.5561430000000  0.5499690000000 1.0
C      1  0.5322320000000  0.4438570000000  0.4500310000000 1.0
C      1  0.4677680000000  0.4438570000000  0.5499690000000 1.0
C      1  0.4660780000000  0.5566460000000  0.4779460000000 1.0
C      1  0.5339220000000  0.5566460000000  0.5220540000000 1.0
C      1  0.4660780000000  0.4433540000000  0.4779460000000 1.0
C      1  0.5339220000000  0.4433540000000  0.5220540000000 1.0
C      1  0.5229430000000  0.4657270000000  0.5396400000000 1.0
C      1  0.4770570000000  0.4657270000000  0.4603600000000 1.0
C      1  0.5229430000000  0.5342730000000  0.5396400000000 1.0
C      1  0.4770570000000  0.5342730000000  0.4603600000000 1.0
C      1  0.4850730000000  0.5145800000000  0.5681290000000 1.0
C      1  0.5149270000000  0.5145800000000  0.4318710000000 1.0
C      1  0.4850730000000  0.4854200000000  0.5681290000000 1.0
C      1  0.5149270000000  0.4854200000000  0.4318710000000 1.0
C      1  0.5667850000000  0.4751490000000  0.4843140000000 1.0
C      1  0.4332150000000  0.4751490000000  0.5156860000000 1.0
C      1  0.5667850000000  0.5248510000000  0.4843140000000 1.0
C      1  0.4332150000000  0.5248510000000  0.5156860000000 1.0
C      1  0.5263720000000  0.4309890000000  0.4730320000000 1.0
C      1  0.4736280000000  0.4309890000000  0.5269680000000 1.0
C      1  0.5263720000000  0.5690110000000  0.4730320000000 1.0
C      1  0.4736280000000  0.5690110000000  0.5269680000000 1.0
C      1  0.4894420000000  0.5154910000000  0.4804560000000 1.0
C      1  0.5105580000000  0.5154910000000  0.5195440000000 1.0
C      1  0.4894420000000  0.4845090000000  0.4804560000000 1.0
C      1  0.5105580000000  0.4845090000000  0.5195440000000 1.0
C      1  0.5189880000000  0.5233030000000  0.4887060000000 1.0
C      1  0.4810120000000  0.5233030000000  0.5112940000000 1.0
C      1  0.5189880000000  0.4766970000000  0.4887060000000 1.0
C      1  0.4810120000000  0.4766970000000  0.5112940000000 1.0
C      1  0.4316870000000  0.4809440000000  0.4873630000000 1.0
C      1  0.5683130000000  0.4809440000000  0.5126370000000 1.0
C      1  0.4316870000000  0.5190560000000  0.4873630000000 1.0
C      1  0.5683130000000  0.5190560000000  0.5126370000000 1.0
C      1  0.5608280000000  0.5477480000000  0.5142170000000 1.0
C      1  0.4391720000000  0.5477480000000  0.4857830000000 1.0
C      1  0.5608280000000  0.4522520000000  0.5142170000000 1.0
C      1  0.4391720000000  0.4522520000000  0.4857830000000 1.0
END
