TITL C-38196-2854-211 2.81406053722353e-06 125000 -361.69689130931 0 0 60 (C1) n - 1
REM
REM in /home/bkarasulu/CARBON/AIRSS/Generating-Clusters/EDIP-Nigel-Params/Higher-Symm/Box-15A/Only-C60/SD-CG/FIRE-HFTN
REM
REM
REM
REM
REM
REM ./C.cell (414f73aa93bd7a1190c7fd0f31ff2f98)
REM
REM compiler GCC version 9.2.1 20190827 (Red Hat 9.2.1-1)
REM options -cpp -mtune=generic -march=x86-64 -g -O0 -fpre-include=/usr/include/finclude/math-vector-fortran.h
REM seed 1142615910 -295670226 -1973678268 -1152033711 -1142191831 808439188 1102549940 471647088 -1738237789 990450203 -381026545 -338804893 1769168734 152244451 1580036623 1721359046 -2008878837 -1830519035 1500731747 2031403606 -527952258 -667635772 -171280113 -801166479 -340445528 -1830864474 1269796162 803227931 -434358263 1806915928 -496093801 -2024982297 -1864044152
REM
CELL 1.54180   50.00000   50.00000   50.00000   90.00000   90.00000   90.00000
LATT -1
SFAC C  
C      1  0.5664640000000  0.4936030000000  0.5338700000000 1.0
C      1  0.5672500000000  0.5231210000000  0.5267970000000 1.0
C      1  0.5666370000000  0.5360460000000  0.4992870000000 1.0
C      1  0.5662260000000  0.5229290000000  0.4721560000000 1.0
C      1  0.5670110000000  0.4930700000000  0.4663710000000 1.0
C      1  0.5677620000000  0.4695090000000  0.4858420000000 1.0
C      1  0.5668190000000  0.4693760000000  0.5161210000000 1.0
C      1  0.4687260000000  0.5439100000000  0.5519140000000 1.0
C      1  0.4680340000000  0.5537750000000  0.5032980000000 1.0
C      1  0.4673830000000  0.5301540000000  0.4576200000000 1.0
C      1  0.4699180000000  0.4837740000000  0.4399490000000 1.0
C      1  0.4701830000000  0.4450570000000  0.4721570000000 1.0
C      1  0.4659860000000  0.4517960000000  0.5212820000000 1.0
C      1  0.4669710000000  0.4935330000000  0.5566320000000 1.0
C      1  0.5563160000000  0.4863000000000  0.4404550000000 1.0
C      1  0.5549730000000  0.4462170000000  0.4751730000000 1.0
C      1  0.5542810000000  0.4460400000000  0.5283870000000 1.0
C      1  0.5515690000000  0.4883760000000  0.5577230000000 1.0
C      1  0.5552330000000  0.5396880000000  0.5472600000000 1.0
C      1  0.5520290000000  0.5607420000000  0.4990190000000 1.0
C      1  0.5540110000000  0.5395460000000  0.4516440000000 1.0
C      1  0.4426060000000  0.4658390000000  0.5075870000000 1.0
C      1  0.4414050000000  0.5032890000000  0.5433510000000 1.0
C      1  0.4422180000000  0.5342050000000  0.5407630000000 1.0
C      1  0.4413350000000  0.5418760000000  0.5106930000000 1.0
C      1  0.4435860000000  0.5142340000000  0.4678480000000 1.0
C      1  0.4459170000000  0.4856010000000  0.4580180000000 1.0
C      1  0.4454560000000  0.4612800000000  0.4773600000000 1.0
C      1  0.5257410000000  0.5386540000000  0.5461530000000 1.0
C      1  0.5224520000000  0.5611730000000  0.4999020000000 1.0
C      1  0.5242050000000  0.5381460000000  0.4518880000000 1.0
C      1  0.5269210000000  0.4856090000000  0.4402500000000 1.0
C      1  0.5255070000000  0.4450880000000  0.4739860000000 1.0
C      1  0.5243120000000  0.4471490000000  0.5269840000000 1.0
C      1  0.5220960000000  0.4888450000000  0.5590080000000 1.0
C      1  0.5232310000000  0.5199580000000  0.5237590000000 1.0
C      1  0.5150280000000  0.5318060000000  0.4999410000000 1.0
C      1  0.5219690000000  0.5200870000000  0.4751300000000 1.0
C      1  0.5226090000000  0.4925220000000  0.4687180000000 1.0
C      1  0.5167710000000  0.4713880000000  0.4862370000000 1.0
C      1  0.5227800000000  0.4731830000000  0.5136310000000 1.0
C      1  0.5132510000000  0.4944080000000  0.5299840000000 1.0
C      1  0.4804330000000  0.4676740000000  0.5434710000000 1.0
C      1  0.4822510000000  0.5192650000000  0.5641760000000 1.0
C      1  0.4821620000000  0.5600370000000  0.5295720000000 1.0
C      1  0.4786290000000  0.5532240000000  0.4742060000000 1.0
C      1  0.4821200000000  0.5121700000000  0.4374480000000 1.0
C      1  0.4845410000000  0.4579250000000  0.4478830000000 1.0
C      1  0.4817650000000  0.4373200000000  0.4995690000000 1.0
C      1  0.5076920000000  0.4571890000000  0.5523980000000 1.0
C      1  0.5121860000000  0.5187170000000  0.5668900000000 1.0
C      1  0.5120410000000  0.5633260000000  0.5307490000000 1.0
C      1  0.5076060000000  0.5615710000000  0.4684550000000 1.0
C      1  0.5118730000000  0.5151880000000  0.4322540000000 1.0
C      1  0.5145320000000  0.4559030000000  0.4449130000000 1.0
C      1  0.5112970000000  0.4310830000000  0.5030150000000 1.0
C      1  0.4329080000000  0.5166740000000  0.4960800000000 1.0
C      1  0.4730290000000  0.4984680000000  0.5125110000000 1.0
C      1  0.4847130000000  0.5013450000000  0.4899060000000 1.0
C      1  0.4449630000000  0.4951810000000  0.5145760000000 1.0
END
