TITL C-38196-2854-498 1.44067938185505e-06 125000 -355.648132377569 0 0 60 (C3) n - 1
REM
REM in /home/bkarasulu/CARBON/AIRSS/Generating-Clusters/EDIP-Nigel-Params/Higher-Symm/Box-15A/Only-C60/SD-CG/FIRE-HFTN
REM
REM
REM
REM
REM
REM ./C.cell (414f73aa93bd7a1190c7fd0f31ff2f98)
REM
REM compiler GCC version 9.2.1 20190827 (Red Hat 9.2.1-1)
REM options -cpp -mtune=generic -march=x86-64 -g -O0 -fpre-include=/usr/include/finclude/math-vector-fortran.h
REM seed 677902024 -1813874333 22791376 2054548317 -1947962196 136386901 1088198479 -1670786939 1854384129 2073644922 -229683828 -1483966732 -182555738 542828469 -502818691 530594103 787728173 -768776588 -1424252933 -998799463 -1183257770 -402573147 1899854266 1103799562 1051076195 473519920 513020974 462040799 -329068301 1840219221 -1127775183 1786721675 196259794
REM
CELL 1.54180   50.00000   50.00000   50.00000   90.00000   90.00000   90.00000
LATT -1
SFAC C  
C      1  0.5270060000000  0.5048430000000  0.5596080000000 1.0
C      1  0.4348750000000  0.5048430000000  0.4935840000000 1.0
C      1  0.5381190000000  0.5048430000000  0.4468080000000 1.0
C      1  0.5008030000000  0.5628870000000  0.5300160000000 1.0
C      1  0.4736040000000  0.5628870000000  0.4856870000000 1.0
C      1  0.5255930000000  0.5628870000000  0.4842970000000 1.0
C      1  0.4321680000000  0.5244500000000  0.5146280000000 1.0
C      1  0.5212480000000  0.5244500000000  0.4339420000000 1.0
C      1  0.5465840000000  0.5244500000000  0.5514300000000 1.0
C      1  0.5087260000000  0.5020460000000  0.4211990000000 1.0
C      1  0.5638810000000  0.5020460000000  0.5469570000000 1.0
C      1  0.4273940000000  0.5020460000000  0.5318440000000 1.0
C      1  0.4846780000000  0.4335420000000  0.4756810000000 1.0
C      1  0.5287210000000  0.4335420000000  0.4988900000000 1.0
C      1  0.4866000000000  0.4335420000000  0.5254280000000 1.0
C      1  0.4740760000000  0.5660380000000  0.5155410000000 1.0
C      1  0.4995030000000  0.5660380000000  0.4697790000000 1.0
C      1  0.5264210000000  0.5660380000000  0.5146800000000 1.0
C      1  0.4721330000000  0.4817900000000  0.4974070000000 1.0
C      1  0.5161790000000  0.4817900000000  0.4771630000000 1.0
C      1  0.5116880000000  0.4817900000000  0.5254300000000 1.0
C      1  0.5278070000000  0.4922230000000  0.5029890000000 1.0
C      1  0.4835080000000  0.4922230000000  0.5225870000000 1.0
C      1  0.4886850000000  0.4922230000000  0.4744240000000 1.0
C      1  0.4853680000000  0.5314120000000  0.5646910000000 1.0
C      1  0.4512920000000  0.5314120000000  0.4549830000000 1.0
C      1  0.5633400000000  0.5314120000000  0.4803260000000 1.0
C      1  0.4477130000000  0.4768920000000  0.4562500000000 1.0
C      1  0.5640320000000  0.4768920000000  0.4765930000000 1.0
C      1  0.4882550000000  0.4768920000000  0.5671570000000 1.0
C      1  0.5153920000000  0.4313480000000  0.5247300000000 1.0
C      1  0.4708870000000  0.4313480000000  0.5009650000000 1.0
C      1  0.5137210000000  0.4313480000000  0.4743050000000 1.0
C      1  0.5181290000000  0.4514790000000  0.4531660000000 1.0
C      1  0.5314950000000  0.4514790000000  0.5391180000000 1.0
C      1  0.4503760000000  0.4514790000000  0.5077170000000 1.0
C      1  0.5682410000000  0.5294110000000  0.5081210000000 1.0
C      1  0.4588470000000  0.5294110000000  0.5550380000000 1.0
C      1  0.4729120000000  0.5294110000000  0.4368410000000 1.0
C      1  0.5467320000000  0.4776420000000  0.4537870000000 1.0
C      1  0.5166550000000  0.4776420000000  0.5635780000000 1.0
C      1  0.4366120000000  0.4776420000000  0.4826350000000 1.0
C      1  0.4644540000000  0.5348170000000  0.4800730000000 1.0
C      1  0.5350300000000  0.5348170000000  0.4791800000000 1.0
C      1  0.5005150000000  0.5348170000000  0.5407470000000 1.0
C      1  0.4471240000000  0.5017510000000  0.5532870000000 1.0
C      1  0.4802900000000  0.5017510000000  0.4275650000000 1.0
C      1  0.5725860000000  0.5017510000000  0.5191480000000 1.0
C      1  0.4683880000000  0.4813080000000  0.5465210000000 1.0
C      1  0.4755170000000  0.4813080000000  0.4493630000000 1.0
C      1  0.5560940000000  0.4813080000000  0.5041160000000 1.0
C      1  0.5529960000000  0.4553670000000  0.5186610000000 1.0
C      1  0.4573410000000  0.4553670000000  0.5365660000000 1.0
C      1  0.4896630000000  0.4553670000000  0.4447730000000 1.0
C      1  0.4569510000000  0.5379920000000  0.5260580000000 1.0
C      1  0.4989580000000  0.5379920000000  0.4496900000000 1.0
C      1  0.5440910000000  0.5379920000000  0.5242530000000 1.0
C      1  0.4842310000000  0.5227620000000  0.5179080000000 1.0
C      1  0.4923760000000  0.5227620000000  0.4773900000000 1.0
C      1  0.5233930000000  0.5227620000000  0.5047030000000 1.0
END
