TITL C-38197-8510-406 0.000112404513729955 125000 -361.329674856489 0 0 60 (C1) n - 1
REM
REM in /home/bkarasulu/CARBON/AIRSS/Generating-Clusters/EDIP-Nigel-Params/Higher-Symm/Box-15A/Only-C60/SD-CG/FIRE-HFTN
REM
REM
REM
REM
REM
REM ./C.cell (414f73aa93bd7a1190c7fd0f31ff2f98)
REM
REM compiler GCC version 9.2.1 20190827 (Red Hat 9.2.1-1)
REM options -cpp -mtune=generic -march=x86-64 -g -O0 -fpre-include=/usr/include/finclude/math-vector-fortran.h
REM seed 1603961196 -1543964480 -1615941901 -259222348 353429582 -1749594122 2102289294 -1945268765 -218915735 1763613697 1450557855 850440659 -1190528666 -285990935 -1649060366 -238932457 1031061629 358302416 1926724535 -829267742 890689919 -11635635 -1909323070 1496059173 943785313 -1985597934 1903595214 1324942783 898873589 948754812 -667867862 -1707184261 -1041433605
REM
CELL 1.54180   50.00000   50.00000   50.00000   90.00000   90.00000   90.00000
LATT -1
SFAC C  
C      1  0.5303500000000  0.5709820000000  0.4891900000000 1.0
C      1  0.5643110000000  0.4747390000000  0.4543220000000 1.0
C      1  0.5516840000000  0.5207810000000  0.4419510000000 1.0
C      1  0.5024280000000  0.4770180000000  0.4810730000000 1.0
C      1  0.4826400000000  0.5073760000000  0.4405610000000 1.0
C      1  0.4444180000000  0.4377520000000  0.4943530000000 1.0
C      1  0.4977820000000  0.4933670000000  0.5731530000000 1.0
C      1  0.4590530000000  0.5000400000000  0.4562730000000 1.0
C      1  0.5528920000000  0.5582950000000  0.4963490000000 1.0
C      1  0.4222920000000  0.5123290000000  0.4848410000000 1.0
C      1  0.4916560000000  0.5695910000000  0.5398070000000 1.0
C      1  0.4291810000000  0.4594450000000  0.4788780000000 1.0
C      1  0.5391580000000  0.4971430000000  0.5488610000000 1.0
C      1  0.4158770000000  0.5315210000000  0.5042940000000 1.0
C      1  0.4508010000000  0.4413670000000  0.5219130000000 1.0
C      1  0.5256400000000  0.5303550000000  0.4401130000000 1.0
C      1  0.5158350000000  0.5351410000000  0.5654450000000 1.0
C      1  0.5663870000000  0.5349080000000  0.4899600000000 1.0
C      1  0.5076970000000  0.4235420000000  0.5102600000000 1.0
C      1  0.4871360000000  0.4920780000000  0.5274210000000 1.0
C      1  0.4888020000000  0.5481400000000  0.4681050000000 1.0
C      1  0.5391990000000  0.5676940000000  0.5431230000000 1.0
C      1  0.4637490000000  0.5426770000000  0.4815130000000 1.0
C      1  0.4731060000000  0.5735040000000  0.5194080000000 1.0
C      1  0.4933330000000  0.4587000000000  0.4390320000000 1.0
C      1  0.4691880000000  0.4399270000000  0.4786090000000 1.0
C      1  0.4747920000000  0.4708130000000  0.4767110000000 1.0
C      1  0.4902670000000  0.4237810000000  0.4883390000000 1.0
C      1  0.5165150000000  0.5819360000000  0.5393620000000 1.0
C      1  0.4456590000000  0.5228770000000  0.4693030000000 1.0
C      1  0.5436320000000  0.4688430000000  0.5474180000000 1.0
C      1  0.5651210000000  0.4665840000000  0.4809750000000 1.0
C      1  0.5365500000000  0.4296940000000  0.5054340000000 1.0
C      1  0.5464550000000  0.4331640000000  0.5326850000000 1.0
C      1  0.4927990000000  0.5436850000000  0.5517490000000 1.0
C      1  0.4998550000000  0.4406540000000  0.5322890000000 1.0
C      1  0.5396610000000  0.4540170000000  0.4882210000000 1.0
C      1  0.5215990000000  0.5078230000000  0.5690890000000 1.0
C      1  0.4996310000000  0.5287820000000  0.4497210000000 1.0
C      1  0.4777440000000  0.4983440000000  0.5534890000000 1.0
C      1  0.5062000000000  0.5668010000000  0.4786010000000 1.0
C      1  0.4335710000000  0.5468650000000  0.5196880000000 1.0
C      1  0.4937280000000  0.4847330000000  0.4269850000000 1.0
C      1  0.5192690000000  0.4577760000000  0.4678820000000 1.0
C      1  0.4544880000000  0.5596230000000  0.5035230000000 1.0
C      1  0.5559890000000  0.4938780000000  0.4374390000000 1.0
C      1  0.5045600000000  0.4869040000000  0.5071520000000 1.0
C      1  0.4591460000000  0.4887200000000  0.4938160000000 1.0
C      1  0.4723700000000  0.4406920000000  0.5385160000000 1.0
C      1  0.4692760000000  0.5268630000000  0.5542840000000 1.0
C      1  0.4307480000000  0.4853330000000  0.4955290000000 1.0
C      1  0.4640400000000  0.4614880000000  0.4353890000000 1.0
C      1  0.5513470000000  0.5434510000000  0.5421400000000 1.0
C      1  0.4405790000000  0.4611230000000  0.4518990000000 1.0
C      1  0.5641450000000  0.5119490000000  0.5074590000000 1.0
C      1  0.5554440000000  0.5166800000000  0.5347760000000 1.0
C      1  0.4453430000000  0.5342830000000  0.5416620000000 1.0
C      1  0.5245960000000  0.4460190000000  0.5484910000000 1.0
C      1  0.5729600000000  0.4869440000000  0.4985090000000 1.0
C      1  0.5673270000000  0.5304660000000  0.4626690000000 1.0
END
