TITL C-38189-4514-422 -0.000102986864308498 125000 -361.061414996989 0 0 60 (C1) n - 1
REM
REM in /home/bkarasulu/CARBON/AIRSS/Generating-Clusters/EDIP-Nigel-Params/Higher-Symm/Box-15A/Only-C60/SD-CG/FIRE-HFTN
REM
REM
REM
REM
REM
REM ./C.cell (414f73aa93bd7a1190c7fd0f31ff2f98)
REM
REM compiler GCC version 9.2.1 20190827 (Red Hat 9.2.1-1)
REM options -cpp -mtune=generic -march=x86-64 -g -O0 -fpre-include=/usr/include/finclude/math-vector-fortran.h
REM seed 1068963571 2146942536 -546658758 -176144781 -1733990151 -1655969231 1777687551 764039006 1280988753 2106932374 847240462 -284762985 -1241827653 -1913551071 -709420078 560560225 47829831 -2088510145 1181521099 -1359348015 -1996655553 1906764494 1098536646 -996678756 731810548 1361346928 -605119608 1421787280 -1944886633 1179116556 1814272361 -467260288 361511667
REM
CELL 1.54180   50.00000   50.00000   50.00000   90.00000   90.00000   90.00000
LATT -1
SFAC C  
C      1  0.5776070000000  0.5154480000000  0.5284470000000 1.0
C      1  0.4207530000000  0.5177120000000  0.5304830000000 1.0
C      1  0.5312200000000  0.4526780000000  0.4811810000000 1.0
C      1  0.4760690000000  0.4495610000000  0.4726210000000 1.0
C      1  0.4809630000000  0.4239000000000  0.5431830000000 1.0
C      1  0.5233300000000  0.4112870000000  0.5422260000000 1.0
C      1  0.5520400000000  0.4486540000000  0.5300740000000 1.0
C      1  0.4467470000000  0.4510210000000  0.5242610000000 1.0
C      1  0.4928360000000  0.4599470000000  0.4513190000000 1.0
C      1  0.5218550000000  0.4566590000000  0.4538870000000 1.0
C      1  0.4758420000000  0.5035290000000  0.4849050000000 1.0
C      1  0.5203440000000  0.5031770000000  0.4858130000000 1.0
C      1  0.4390270000000  0.4746380000000  0.5342090000000 1.0
C      1  0.5597850000000  0.4730660000000  0.5375130000000 1.0
C      1  0.5255030000000  0.5541030000000  0.4692390000000 1.0
C      1  0.4736210000000  0.5562830000000  0.4718430000000 1.0
C      1  0.4446460000000  0.5596280000000  0.4803410000000 1.0
C      1  0.5550840000000  0.5554600000000  0.4764190000000 1.0
C      1  0.5293350000000  0.5113010000000  0.5317740000000 1.0
C      1  0.4693370000000  0.5130020000000  0.5320990000000 1.0
C      1  0.4624000000000  0.4804660000000  0.4409150000000 1.0
C      1  0.5399930000000  0.4799680000000  0.4472770000000 1.0
C      1  0.4876230000000  0.5803620000000  0.4784480000000 1.0
C      1  0.5143110000000  0.5792760000000  0.4771670000000 1.0
C      1  0.4882140000000  0.3913200000000  0.5603640000000 1.0
C      1  0.5132420000000  0.3925690000000  0.5740300000000 1.0
C      1  0.4869300000000  0.4418620000000  0.4982110000000 1.0
C      1  0.5156900000000  0.4378780000000  0.5002200000000 1.0
C      1  0.5131130000000  0.4936570000000  0.5129120000000 1.0
C      1  0.4832920000000  0.4947450000000  0.5125920000000 1.0
C      1  0.5564430000000  0.5512850000000  0.5056740000000 1.0
C      1  0.4440140000000  0.5530360000000  0.5089080000000 1.0
C      1  0.4813520000000  0.5484970000000  0.4437250000000 1.0
C      1  0.5146060000000  0.5489860000000  0.4405220000000 1.0
C      1  0.5146620000000  0.5333980000000  0.4898650000000 1.0
C      1  0.4838170000000  0.5342270000000  0.4908660000000 1.0
C      1  0.5762920000000  0.5419130000000  0.4637750000000 1.0
C      1  0.4217500000000  0.5484810000000  0.4684020000000 1.0
C      1  0.4825090000000  0.5194060000000  0.4355200000000 1.0
C      1  0.5113180000000  0.5206620000000  0.4273870000000 1.0
C      1  0.4689150000000  0.4349670000000  0.5198870000000 1.0
C      1  0.5288740000000  0.4341060000000  0.5258570000000 1.0
C      1  0.4674320000000  0.4099170000000  0.5630550000000 1.0
C      1  0.5360700000000  0.4061120000000  0.5661570000000 1.0
C      1  0.5915970000000  0.5310870000000  0.4836920000000 1.0
C      1  0.4055850000000  0.5369670000000  0.4872220000000 1.0
C      1  0.5432650000000  0.4889190000000  0.4751490000000 1.0
C      1  0.4604540000000  0.4835600000000  0.4696260000000 1.0
C      1  0.4700040000000  0.5401430000000  0.5177330000000 1.0
C      1  0.5300290000000  0.5397450000000  0.5157360000000 1.0
C      1  0.4629170000000  0.5028770000000  0.4243340000000 1.0
C      1  0.5292320000000  0.4997670000000  0.4308720000000 1.0
C      1  0.5141560000000  0.5523690000000  0.5395850000000 1.0
C      1  0.4865600000000  0.5558410000000  0.5354200000000 1.0
C      1  0.4857900000000  0.5191370000000  0.5552970000000 1.0
C      1  0.5132170000000  0.5258200000000  0.5544810000000 1.0
C      1  0.4194730000000  0.5381170000000  0.5117450000000 1.0
C      1  0.5802500000000  0.5351970000000  0.5091640000000 1.0
C      1  0.5566650000000  0.5004380000000  0.5381830000000 1.0
C      1  0.4419980000000  0.5018670000000  0.5381860000000 1.0
END
