TITL C-38187-2739-469 2.8682902286927e-06 125000 -368.495558236964 0 0 60 (Cs) n - 1
REM
REM in /home/bkarasulu/CARBON/AIRSS/Generating-Clusters/EDIP-Nigel-Params/Higher-Symm/Box-15A/Only-C60/SD-CG/FIRE-HFTN
REM
REM
REM
REM
REM
REM ./C.cell (414f73aa93bd7a1190c7fd0f31ff2f98)
REM
REM compiler GCC version 9.2.1 20190827 (Red Hat 9.2.1-1)
REM options -cpp -mtune=generic -march=x86-64 -g -O0 -fpre-include=/usr/include/finclude/math-vector-fortran.h
REM seed 901352883 -1711598196 1759524069 -608534714 -1210478552 -18179548 895553256 -528214772 643080548 -1619676102 -152280039 714130587 486117442 -1745340659 837985252 -586031337 -1511352786 -503749605 2065931230 -1423423938 -1814769454 2078034488 1254682463 -1263727988 272834884 -1762876291 -1096637608 28379228 1610359618 -1680608513 -1842403051 109101312 1964418588
REM
CELL 1.54180   50.00000   50.00000   50.00000   90.00000   90.00000   90.00000
LATT -1
SFAC C  
C      1  0.4722800000000  0.4390620000000  0.5362830000000 1.0
C      1  0.4338610000000  0.5076310000000  0.5360560000000 1.0
C      1  0.4865580000000  0.5658500000000  0.5362140000000 1.0
C      1  0.5581100000000  0.5327500000000  0.5359050000000 1.0
C      1  0.5495380000000  0.4548480000000  0.5361060000000 1.0
C      1  0.4722800000000  0.4390620000000  0.4637170000000 1.0
C      1  0.4338610000000  0.5076310000000  0.4639440000000 1.0
C      1  0.4865590000000  0.5658500000000  0.4637860000000 1.0
C      1  0.5581110000000  0.5327500000000  0.4640950000000 1.0
C      1  0.5495380000000  0.4548480000000  0.4638940000000 1.0
C      1  0.4937860000000  0.5813150000000  0.5135400000000 1.0
C      1  0.5753440000000  0.5310360000000  0.5135200000000 1.0
C      1  0.5527220000000  0.4379400000000  0.5135390000000 1.0
C      1  0.4574510000000  0.4308470000000  0.5135430000000 1.0
C      1  0.4211870000000  0.5192220000000  0.5135230000000 1.0
C      1  0.4937860000000  0.5813150000000  0.4864600000000 1.0
C      1  0.5753440000000  0.5310360000000  0.4864800000000 1.0
C      1  0.5527220000000  0.4379400000000  0.4864610000000 1.0
C      1  0.4574510000000  0.4308470000000  0.4864570000000 1.0
C      1  0.4211870000000  0.5192220000000  0.4864770000000 1.0
C      1  0.4780070000000  0.5120110000000  0.5603910000000 1.0
C      1  0.5045590000000  0.5253030000000  0.5614080000000 1.0
C      1  0.5245340000000  0.5035200000000  0.5589180000000 1.0
C      1  0.5112180000000  0.4771750000000  0.5611370000000 1.0
C      1  0.4823830000000  0.4828920000000  0.5586060000000 1.0
C      1  0.4780070000000  0.5120110000000  0.4396090000000 1.0
C      1  0.5045600000000  0.5253030000000  0.4385920000000 1.0
C      1  0.5245340000000  0.5035200000000  0.4410820000000 1.0
C      1  0.5112190000000  0.4771750000000  0.4388630000000 1.0
C      1  0.4823830000000  0.4828920000000  0.4413940000000 1.0
C      1  0.4546760000000  0.5264520000000  0.5485120000000 1.0
C      1  0.5109450000000  0.5524010000000  0.5492780000000 1.0
C      1  0.5521180000000  0.5054020000000  0.5480400000000 1.0
C      1  0.5220130000000  0.4513410000000  0.5494550000000 1.0
C      1  0.4610040000000  0.4645580000000  0.5488690000000 1.0
C      1  0.4546760000000  0.5264520000000  0.4514880000000 1.0
C      1  0.5109450000000  0.5524020000000  0.4507220000000 1.0
C      1  0.5521180000000  0.5054020000000  0.4519600000000 1.0
C      1  0.5220130000000  0.4513410000000  0.4505450000000 1.0
C      1  0.4610040000000  0.4645580000000  0.4511310000000 1.0
C      1  0.5532330000000  0.4833770000000  0.4726120000000 1.0
C      1  0.5009100000000  0.4438350000000  0.4714620000000 1.0
C      1  0.4463750000000  0.4814320000000  0.4717890000000 1.0
C      1  0.4666590000000  0.5449770000000  0.4722470000000 1.0
C      1  0.5321610000000  0.5456710000000  0.4717910000000 1.0
C      1  0.5532330000000  0.4833770000000  0.5273880000000 1.0
C      1  0.5009100000000  0.4438340000000  0.5285380000000 1.0
C      1  0.4463750000000  0.4814320000000  0.5282100000000 1.0
C      1  0.4666590000000  0.5449770000000  0.5277530000000 1.0
C      1  0.5321610000000  0.5456710000000  0.5282090000000 1.0
C      1  0.5255800000000  0.4910260000000  0.5151190000000 1.0
C      1  0.4993350000000  0.4734230000000  0.5187180000000 1.0
C      1  0.4733890000000  0.4914620000000  0.5156870000000 1.0
C      1  0.4843220000000  0.5224850000000  0.5155610000000 1.0
C      1  0.5157420000000  0.5207570000000  0.5189430000000 1.0
C      1  0.5255800000000  0.4910260000000  0.4848810000000 1.0
C      1  0.4993350000000  0.4734230000000  0.4812820000000 1.0
C      1  0.4733890000000  0.4914620000000  0.4843130000000 1.0
C      1  0.4843220000000  0.5224850000000  0.4844390000000 1.0
C      1  0.5157420000000  0.5207570000000  0.4810570000000 1.0
END
