TITL C-38186-4112-109 6.97373952166278e-06 125000 -370.219496452102 0 0 60 (C2) n - 1
REM
REM in /home/bkarasulu/CARBON/AIRSS/Generating-Clusters/EDIP-Nigel-Params/Higher-Symm/Box-15A/Only-C60/SD-CG/FIRE-HFTN
REM
REM
REM
REM
REM
REM ./C.cell (414f73aa93bd7a1190c7fd0f31ff2f98)
REM
REM compiler GCC version 9.2.1 20190827 (Red Hat 9.2.1-1)
REM options -cpp -mtune=generic -march=x86-64 -g -O0 -fpre-include=/usr/include/finclude/math-vector-fortran.h
REM seed -98087939 -7286602 -1673996285 -1777050902 -251766320 -693897558 1400971545 -1320045721 995550831 -684025615 -1633105129 -1842956548 -1045262336 -2016668892 -1102019353 -1375978573 -478927087 -1943403744 477990689 724127691 -447611724 476687683 1854607403 -930454609 1152612096 16258448 1787745205 -1379897220 -571623163 1757842512 1310711228 -2037375019 453689058
REM
CELL 1.54180   50.00000   50.00000   50.00000   90.00000   90.00000   90.00000
LATT -1
SFAC C  
C      1  0.5046570000000  0.5587080000000  0.4545850000000 1.0
C      1  0.5054300000000  0.4538380000000  0.4406490000000 1.0
C      1  0.5046570000000  0.4412920000000  0.5454150000000 1.0
C      1  0.5054300000000  0.5461620000000  0.5593510000000 1.0
C      1  0.5089580000000  0.4745350000000  0.5000350000000 1.0
C      1  0.5086990000000  0.5040640000000  0.5262460000000 1.0
C      1  0.5089580000000  0.5254650000000  0.4999650000000 1.0
C      1  0.5086990000000  0.4959360000000  0.4737540000000 1.0
C      1  0.5442540000000  0.5275810000000  0.4396930000000 1.0
C      1  0.5459000000000  0.4413350000000  0.4726250000000 1.0
C      1  0.5442540000000  0.4724190000000  0.5603070000000 1.0
C      1  0.5459000000000  0.5586650000000  0.5273750000000 1.0
C      1  0.4618930000000  0.4620190000000  0.4640350000000 1.0
C      1  0.4616160000000  0.4644360000000  0.5377570000000 1.0
C      1  0.4618930000000  0.5379810000000  0.5359650000000 1.0
C      1  0.4616160000000  0.5355640000000  0.4622430000000 1.0
C      1  0.5246570000000  0.4882760000000  0.5715910000000 1.0
C      1  0.5259800000000  0.5706050000000  0.5123810000000 1.0
C      1  0.5246570000000  0.5117240000000  0.4284090000000 1.0
C      1  0.5259800000000  0.4293950000000  0.4876190000000 1.0
C      1  0.5406930000000  0.5095940000000  0.5245120000000 1.0
C      1  0.5399540000000  0.5224970000000  0.4879310000000 1.0
C      1  0.5406930000000  0.4904060000000  0.4754880000000 1.0
C      1  0.5399540000000  0.4775030000000  0.5120690000000 1.0
C      1  0.5465730000000  0.4592420000000  0.5358250000000 1.0
C      1  0.5477810000000  0.5346910000000  0.5415420000000 1.0
C      1  0.5465730000000  0.5407580000000  0.4641750000000 1.0
C      1  0.5477810000000  0.4653090000000  0.4584580000000 1.0
C      1  0.4882370000000  0.4635760000000  0.5498620000000 1.0
C      1  0.4885360000000  0.5507260000000  0.5374180000000 1.0
C      1  0.4882370000000  0.5364240000000  0.4501380000000 1.0
C      1  0.4885360000000  0.4492740000000  0.4625820000000 1.0
C      1  0.4497600000000  0.5354170000000  0.5090450000000 1.0
C      1  0.4496050000000  0.5087300000000  0.4646560000000 1.0
C      1  0.4497600000000  0.4645830000000  0.4909550000000 1.0
C      1  0.4496050000000  0.4912700000000  0.5353440000000 1.0
C      1  0.5304520000000  0.5651720000000  0.4637960000000 1.0
C      1  0.5310850000000  0.4636670000000  0.4343110000000 1.0
C      1  0.5304520000000  0.4348280000000  0.5362040000000 1.0
C      1  0.5310850000000  0.5363330000000  0.5656890000000 1.0
C      1  0.4589150000000  0.4479660000000  0.5133250000000 1.0
C      1  0.4585480000000  0.5135400000000  0.5523230000000 1.0
C      1  0.4589150000000  0.5520340000000  0.4866750000000 1.0
C      1  0.4585480000000  0.4864600000000  0.4476770000000 1.0
C      1  0.4238460000000  0.5056130000000  0.4786900000000 1.0
C      1  0.4239310000000  0.4786860000000  0.4943350000000 1.0
C      1  0.4238460000000  0.4943870000000  0.5213100000000 1.0
C      1  0.4239310000000  0.5213140000000  0.5056650000000 1.0
C      1  0.4807600000000  0.5073320000000  0.5682990000000 1.0
C      1  0.4820930000000  0.5666840000000  0.4927490000000 1.0
C      1  0.4807600000000  0.4926680000000  0.4317010000000 1.0
C      1  0.4820930000000  0.4333160000000  0.5072510000000 1.0
C      1  0.5330220000000  0.4200240000000  0.5126320000000 1.0
C      1  0.5326040000000  0.5130140000000  0.5810290000000 1.0
C      1  0.5330220000000  0.5799760000000  0.4873680000000 1.0
C      1  0.5326040000000  0.4869860000000  0.4189710000000 1.0
C      1  0.5012900000000  0.4457350000000  0.4894690000000 1.0
C      1  0.5002730000000  0.4907050000000  0.5548120000000 1.0
C      1  0.5012900000000  0.5542650000000  0.5105310000000 1.0
C      1  0.5002730000000  0.5092950000000  0.4451880000000 1.0
END
