TITL C-38191-7580-19 -3.97340740257606e-05 125000 -370.748197471059 0 0 60 (C5) n - 1
REM
REM in /home/bkarasulu/CARBON/AIRSS/Generating-Clusters/EDIP-Nigel-Params/Higher-Symm/Box-15A/Only-C60/SD-CG/FIRE-HFTN
REM
REM
REM
REM
REM
REM ./C.cell (414f73aa93bd7a1190c7fd0f31ff2f98)
REM
REM compiler GCC version 9.2.1 20190827 (Red Hat 9.2.1-1)
REM options -cpp -mtune=generic -march=x86-64 -g -O0 -fpre-include=/usr/include/finclude/math-vector-fortran.h
REM seed -289551448 -648968438 -2121719694 -1422916001 -556602385 -1200199740 176308995 1810574449 1549400979 -188290724 -2127315984 1284095126 -1587469035 -207291237 1857912920 -1395340093 -1424292112 -246858202 -387790666 -703765052 -788094904 -1694322327 -363168734 -85739961 652590938 441467611 -1676660875 -2135108223 757141388 -1388127481 348311116 -718187341 -1479826221
REM
CELL 1.54180   50.00000   50.00000   50.00000   90.00000   90.00000   90.00000
LATT -1
SFAC C  
C      1  0.4441820000000  0.4534660000000  0.4835470000000 1.0
C      1  0.4384950000000  0.5387060000000  0.4835470000000 1.0
C      1  0.5178060000000  0.5704560000000  0.4835470000000 1.0
C      1  0.5725100000000  0.5048380000000  0.4835470000000 1.0
C      1  0.5270080000000  0.4325340000000  0.4835470000000 1.0
C      1  0.4480640000000  0.5489430000000  0.5078350000000 1.0
C      1  0.5304980000000  0.5645180000000  0.5078350000000 1.0
C      1  0.5707850000000  0.4909320000000  0.5078350000000 1.0
C      1  0.5132490000000  0.4298770000000  0.5078350000000 1.0
C      1  0.4374040000000  0.4657300000000  0.5078350000000 1.0
C      1  0.5340240000000  0.5190860000000  0.4405040000000 1.0
C      1  0.5286660000000  0.4735400000000  0.4405040000000 1.0
C      1  0.4836930000000  0.4645610000000  0.4405040000000 1.0
C      1  0.4612560000000  0.5045580000000  0.4405040000000 1.0
C      1  0.4923620000000  0.5382560000000  0.4405040000000 1.0
C      1  0.4936850000000  0.5556160000000  0.4848380000000 1.0
C      1  0.5509420000000  0.5231920000000  0.4848380000000 1.0
C      1  0.5377990000000  0.4587180000000  0.4848380000000 1.0
C      1  0.4724190000000  0.4512940000000  0.4848380000000 1.0
C      1  0.4451550000000  0.5111800000000  0.4848380000000 1.0
C      1  0.4602570000000  0.4678980000000  0.5273160000000 1.0
C      1  0.4571870000000  0.5278780000000  0.5273160000000 1.0
C      1  0.5132840000000  0.5493320000000  0.5273160000000 1.0
C      1  0.5510220000000  0.5026110000000  0.5273160000000 1.0
C      1  0.5182500000000  0.4522820000000  0.5273160000000 1.0
C      1  0.5185890000000  0.4828560000000  0.4158410000000 1.0
C      1  0.4894390000000  0.4770230000000  0.4158410000000 1.0
C      1  0.4748840000000  0.5029430000000  0.4158410000000 1.0
C      1  0.4950380000000  0.5247970000000  0.4158410000000 1.0
C      1  0.5220500000000  0.5123820000000  0.4158410000000 1.0
C      1  0.4830430000000  0.4319380000000  0.5067610000000 1.0
C      1  0.4300290000000  0.4950950000000  0.5067610000000 1.0
C      1  0.4737130000000  0.5650300000000  0.5067610000000 1.0
C      1  0.5537240000000  0.5450960000000  0.5067610000000 1.0
C      1  0.5594910000000  0.4628400000000  0.5067610000000 1.0
C      1  0.5557980000000  0.5317540000000  0.5347530000000 1.0
C      1  0.5474420000000  0.4567460000000  0.5347530000000 1.0
C      1  0.4735230000000  0.4415140000000  0.5347530000000 1.0
C      1  0.4361940000000  0.5071080000000  0.5347530000000 1.0
C      1  0.4870430000000  0.5628790000000  0.5347530000000 1.0
C      1  0.5164740000000  0.5201680000000  0.5673040000000 1.0
C      1  0.5242720000000  0.4905650000000  0.5673040000000 1.0
C      1  0.4985270000000  0.4740010000000  0.5673040000000 1.0
C      1  0.4748180000000  0.4933670000000  0.5673040000000 1.0
C      1  0.4859100000000  0.5219000000000  0.5673040000000 1.0
C      1  0.4811740000000  0.4843520000000  0.5129850000000 1.0
C      1  0.4793010000000  0.5130690000000  0.5129850000000 1.0
C      1  0.5060330000000  0.5237250000000  0.5129850000000 1.0
C      1  0.5244280000000  0.5015940000000  0.5129850000000 1.0
C      1  0.5090640000000  0.4772600000000  0.5129850000000 1.0
C      1  0.4946600000000  0.5283610000000  0.4676470000000 1.0
C      1  0.5253230000000  0.5138420000000  0.4676470000000 1.0
C      1  0.5209900000000  0.4801940000000  0.4676470000000 1.0
C      1  0.4876500000000  0.4739170000000  0.4676470000000 1.0
C      1  0.4713770000000  0.5036860000000  0.4676470000000 1.0
C      1  0.4504420000000  0.4850540000000  0.5506690000000 1.0
C      1  0.4704710000000  0.5425140000000  0.5506690000000 1.0
C      1  0.5313080000000  0.5412210000000  0.5506690000000 1.0
C      1  0.5488780000000  0.4829620000000  0.5506690000000 1.0
C      1  0.4989010000000  0.4482490000000  0.5506690000000 1.0
END
