TITL C-38193-7935-228 -1.33138431941599e-05 125000 -359.56476496498 0 0 60 (C1) n - 1
REM
REM in /home/bkarasulu/CARBON/AIRSS/Generating-Clusters/EDIP-Nigel-Params/Higher-Symm/Box-15A/Only-C60/SD-CG/FIRE-HFTN
REM
REM
REM
REM
REM
REM ./C.cell (414f73aa93bd7a1190c7fd0f31ff2f98)
REM
REM compiler GCC version 9.2.1 20190827 (Red Hat 9.2.1-1)
REM options -cpp -mtune=generic -march=x86-64 -g -O0 -fpre-include=/usr/include/finclude/math-vector-fortran.h
REM seed 766560868 1804017229 1688818822 -415373407 -607372223 1136765488 1220437392 -1723824653 -171280138 1902860785 -1948918488 312705529 1024415792 1361664871 -2020370098 -1542225375 -126954866 366474666 -1854704658 -1448059434 -1262477870 -463445163 -35584144 1115191375 527559992 -45519476 312079410 858928942 1675993359 59462855 -627116236 1704606921 -1772057876
REM
CELL 1.54180   50.00000   50.00000   50.00000   90.00000   90.00000   90.00000
LATT -1
SFAC C  
C      1  0.4919630000000  0.4352260000000  0.5108590000000 1.0
C      1  0.4939720000000  0.4264580000000  0.4828060000000 1.0
C      1  0.4514890000000  0.5037400000000  0.4398700000000 1.0
C      1  0.4516840000000  0.5084680000000  0.5544890000000 1.0
C      1  0.4274440000000  0.5096800000000  0.5126740000000 1.0
C      1  0.4257100000000  0.5017010000000  0.4840790000000 1.0
C      1  0.4683210000000  0.5231310000000  0.4765290000000 1.0
C      1  0.4764310000000  0.5269430000000  0.5193100000000 1.0
C      1  0.4715810000000  0.4973780000000  0.5149020000000 1.0
C      1  0.4693650000000  0.4933700000000  0.4870400000000 1.0
C      1  0.4402770000000  0.4527290000000  0.5346300000000 1.0
C      1  0.4412490000000  0.4636500000000  0.4565760000000 1.0
C      1  0.5219470000000  0.5680380000000  0.5302150000000 1.0
C      1  0.5205070000000  0.5655670000000  0.4723910000000 1.0
C      1  0.4897350000000  0.4714630000000  0.4505120000000 1.0
C      1  0.4912280000000  0.4749020000000  0.5508820000000 1.0
C      1  0.5550700000000  0.5328720000000  0.4758200000000 1.0
C      1  0.5582160000000  0.5375060000000  0.5302670000000 1.0
C      1  0.4751960000000  0.5619430000000  0.5375920000000 1.0
C      1  0.4748900000000  0.5602290000000  0.4691480000000 1.0
C      1  0.4667800000000  0.4567710000000  0.5480550000000 1.0
C      1  0.4664240000000  0.4523120000000  0.4523440000000 1.0
C      1  0.4947590000000  0.4822490000000  0.4783070000000 1.0
C      1  0.4966280000000  0.4856560000000  0.5230390000000 1.0
C      1  0.4491790000000  0.5341480000000  0.5331070000000 1.0
C      1  0.4413050000000  0.5181910000000  0.4630120000000 1.0
C      1  0.5524790000000  0.4904860000000  0.5387900000000 1.0
C      1  0.5504320000000  0.4900660000000  0.4598050000000 1.0
C      1  0.5162140000000  0.5020630000000  0.4854470000000 1.0
C      1  0.5181610000000  0.5049910000000  0.5148000000000 1.0
C      1  0.5176200000000  0.5475980000000  0.4492440000000 1.0
C      1  0.5222570000000  0.5499430000000  0.5531390000000 1.0
C      1  0.4716190000000  0.4288290000000  0.4662870000000 1.0
C      1  0.4655730000000  0.4399930000000  0.5226450000000 1.0
C      1  0.4449920000000  0.4909430000000  0.5297170000000 1.0
C      1  0.4435050000000  0.4776900000000  0.4809120000000 1.0
C      1  0.4963140000000  0.5661630000000  0.5161800000000 1.0
C      1  0.4954400000000  0.5700950000000  0.4868650000000 1.0
C      1  0.4943760000000  0.5233240000000  0.5467170000000 1.0
C      1  0.4912630000000  0.5188030000000  0.4536800000000 1.0
C      1  0.5617930000000  0.4833280000000  0.5126970000000 1.0
C      1  0.5616080000000  0.4820620000000  0.4849950000000 1.0
C      1  0.5429090000000  0.5561200000000  0.4875500000000 1.0
C      1  0.5463220000000  0.5607920000000  0.5163740000000 1.0
C      1  0.5403560000000  0.4333330000000  0.5127110000000 1.0
C      1  0.5416660000000  0.4327440000000  0.4855870000000 1.0
C      1  0.4922030000000  0.5513610000000  0.5609190000000 1.0
C      1  0.4873450000000  0.5481410000000  0.4453050000000 1.0
C      1  0.4793820000000  0.4973940000000  0.4356420000000 1.0
C      1  0.4802170000000  0.5022690000000  0.5632410000000 1.0
C      1  0.5165090000000  0.4391920000000  0.5262790000000 1.0
C      1  0.5189150000000  0.4340440000000  0.4688640000000 1.0
C      1  0.5166110000000  0.4568290000000  0.5502020000000 1.0
C      1  0.5160140000000  0.4549340000000  0.4471100000000 1.0
C      1  0.5752990000000  0.5222000000000  0.4922470000000 1.0
C      1  0.5819350000000  0.5276720000000  0.5181230000000 1.0
C      1  0.5332090000000  0.5151920000000  0.4631580000000 1.0
C      1  0.5360410000000  0.5168500000000  0.5384110000000 1.0
C      1  0.5408770000000  0.4701150000000  0.5539030000000 1.0
C      1  0.5391950000000  0.4701190000000  0.4440000000000 1.0
END
