TITL C-38193-7935-665 6.77735349875329e-06 125000 -370.459982316924 0 0 60 (Ci) n - 1
REM
REM in /home/bkarasulu/CARBON/AIRSS/Generating-Clusters/EDIP-Nigel-Params/Higher-Symm/Box-15A/Only-C60/SD-CG/FIRE-HFTN
REM
REM
REM
REM
REM
REM ./C.cell (414f73aa93bd7a1190c7fd0f31ff2f98)
REM
REM compiler GCC version 9.2.1 20190827 (Red Hat 9.2.1-1)
REM options -cpp -mtune=generic -march=x86-64 -g -O0 -fpre-include=/usr/include/finclude/math-vector-fortran.h
REM seed 1530141437 -461575388 -650040030 -2060099951 1805636696 -1876713343 -672814524 284623802 1004676824 808088850 1026247914 1120462936 -2089346305 -862455843 -907853691 1358841221 1983236014 -936293418 940907425 -137664661 -220973757 1433568289 2100195838 -2004105799 -986574333 -1868312261 -1596300470 -1811296568 166778542 1743387233 -366619233 -830396290 784781723
REM
CELL 1.54180   50.00000   50.00000   50.00000   90.00000   90.00000   90.00000
LATT -1
SFAC C  
C      1  0.4344510000000  0.5258580000000  0.4661180000000 1.0
C      1  0.5655490000000  0.4741420000000  0.5338820000000 1.0
C      1  0.4728750000000  0.5028890000000  0.4349380000000 1.0
C      1  0.5271250000000  0.4971110000000  0.5650620000000 1.0
C      1  0.5063180000000  0.4492860000000  0.5704700000000 1.0
C      1  0.4936820000000  0.5507140000000  0.4295300000000 1.0
C      1  0.4580590000000  0.4447150000000  0.5708060000000 1.0
C      1  0.5419410000000  0.5552850000000  0.4291940000000 1.0
C      1  0.5319990000000  0.5524440000000  0.5079170000000 1.0
C      1  0.4680010000000  0.4475560000000  0.4920830000000 1.0
C      1  0.5285410000000  0.5595830000000  0.5346440000000 1.0
C      1  0.4714590000000  0.4404170000000  0.4653560000000 1.0
C      1  0.4809950000000  0.5629780000000  0.5191130000000 1.0
C      1  0.5190050000000  0.4370220000000  0.4808870000000 1.0
C      1  0.4386920000000  0.5378650000000  0.5133220000000 1.0
C      1  0.5613080000000  0.4621350000000  0.4866780000000 1.0
C      1  0.5285430000000  0.4512910000000  0.5538340000000 1.0
C      1  0.4714570000000  0.5487090000000  0.4461660000000 1.0
C      1  0.4768330000000  0.4855990000000  0.5639860000000 1.0
C      1  0.5231670000000  0.5144010000000  0.4360140000000 1.0
C      1  0.4843650000000  0.4356590000000  0.5112470000000 1.0
C      1  0.5156350000000  0.5643410000000  0.4887530000000 1.0
C      1  0.4776260000000  0.5127200000000  0.5150340000000 1.0
C      1  0.5223740000000  0.4872800000000  0.4849660000000 1.0
C      1  0.5009560000000  0.4997690000000  0.5268210000000 1.0
C      1  0.4990440000000  0.5002310000000  0.4731790000000 1.0
C      1  0.5701770000000  0.4897520000000  0.4880620000000 1.0
C      1  0.4298230000000  0.5102480000000  0.5119380000000 1.0
C      1  0.5084250000000  0.4669340000000  0.4442490000000 1.0
C      1  0.4915750000000  0.5330660000000  0.5557510000000 1.0
C      1  0.5166790000000  0.4802460000000  0.5129480000000 1.0
C      1  0.4833210000000  0.5197540000000  0.4870520000000 1.0
C      1  0.4406390000000  0.4574400000000  0.5539050000000 1.0
C      1  0.5593610000000  0.5425600000000  0.4460950000000 1.0
C      1  0.5484790000000  0.5293390000000  0.5028170000000 1.0
C      1  0.4515210000000  0.4706610000000  0.4971830000000 1.0
C      1  0.5752480000000  0.4969490000000  0.5169790000000 1.0
C      1  0.4247520000000  0.5030510000000  0.4830210000000 1.0
C      1  0.4342910000000  0.4773990000000  0.4762440000000 1.0
C      1  0.5657090000000  0.5226010000000  0.5237560000000 1.0
C      1  0.4999290000000  0.4963700000000  0.4445330000000 1.0
C      1  0.5000710000000  0.5036300000000  0.5554670000000 1.0
C      1  0.5186920000000  0.5403080000000  0.4238610000000 1.0
C      1  0.4813080000000  0.4596920000000  0.5761390000000 1.0
C      1  0.5279400000000  0.4613710000000  0.4678740000000 1.0
C      1  0.4720600000000  0.5386290000000  0.5321260000000 1.0
C      1  0.5449000000000  0.4756040000000  0.5583950000000 1.0
C      1  0.4551000000000  0.5243960000000  0.4416050000000 1.0
C      1  0.5471940000000  0.5180410000000  0.4528040000000 1.0
C      1  0.4528060000000  0.4819590000000  0.5471960000000 1.0
C      1  0.5468510000000  0.5075270000000  0.4814260000000 1.0
C      1  0.4531490000000  0.4924730000000  0.5185740000000 1.0
C      1  0.4724680000000  0.5465640000000  0.4770310000000 1.0
C      1  0.5275320000000  0.4534360000000  0.5229690000000 1.0
C      1  0.4871830000000  0.4489000000000  0.4451710000000 1.0
C      1  0.5128170000000  0.5511000000000  0.5548290000000 1.0
C      1  0.4881750000000  0.5671030000000  0.4922530000000 1.0
C      1  0.5118250000000  0.4328970000000  0.5077470000000 1.0
C      1  0.5568410000000  0.4527740000000  0.5141370000000 1.0
C      1  0.4431590000000  0.5472260000000  0.4858630000000 1.0
END
