TITL C-38194-9318-76 8.19270097304298e-07 125000 -369.831914016299 0 0 60 (C1) n - 1
REM
REM in /home/bkarasulu/CARBON/AIRSS/Generating-Clusters/EDIP-Nigel-Params/Higher-Symm/Box-15A/Only-C60/SD-CG/FIRE-HFTN
REM
REM
REM
REM
REM
REM ./C.cell (414f73aa93bd7a1190c7fd0f31ff2f98)
REM
REM compiler GCC version 9.2.1 20190827 (Red Hat 9.2.1-1)
REM options -cpp -mtune=generic -march=x86-64 -g -O0 -fpre-include=/usr/include/finclude/math-vector-fortran.h
REM seed -1693082530 2115935953 738770583 -1785939959 651187757 774111685 -1092402102 185199991 2034104743 -1420777724 1863326264 372614509 -1304239505 2034065128 411647355 548359395 -755731629 869803791 -764835196 2000425850 -1267367357 859393802 -495966090 -847423869 -1258725777 1484002395 438368278 -541245823 -983768422 -1091232988 1723770692 760947787 -1552353641
REM
CELL 1.54180   50.00000   50.00000   50.00000   90.00000   90.00000   90.00000
LATT -1
SFAC C  
C      1  0.5280700000000  0.4975630000000  0.5582870000000 1.0
C      1  0.4824460000000  0.4764130000000  0.5598820000000 1.0
C      1  0.4878380000000  0.5265850000000  0.5594510000000 1.0
C      1  0.5158500000000  0.5243640000000  0.4693240000000 1.0
C      1  0.5133000000000  0.4744940000000  0.4671280000000 1.0
C      1  0.4708810000000  0.5007710000000  0.4697470000000 1.0
C      1  0.4310730000000  0.5401420000000  0.4918060000000 1.0
C      1  0.5693650000000  0.5398570000000  0.4922430000000 1.0
C      1  0.4995580000000  0.4198240000000  0.4920500000000 1.0
C      1  0.5111750000000  0.4741090000000  0.4967350000000 1.0
C      1  0.4738150000000  0.5031670000000  0.4993810000000 1.0
C      1  0.5170230000000  0.5200900000000  0.4987320000000 1.0
C      1  0.5696250000000  0.5117490000000  0.5329330000000 1.0
C      1  0.4754510000000  0.4344190000000  0.5329930000000 1.0
C      1  0.4549400000000  0.5542290000000  0.5328470000000 1.0
C      1  0.4504900000000  0.5565050000000  0.5056030000000 1.0
C      1  0.5743920000000  0.5147700000000  0.5058000000000 1.0
C      1  0.4755050000000  0.4280670000000  0.5059600000000 1.0
C      1  0.4456900000000  0.5038480000000  0.5471280000000 1.0
C      1  0.5297200000000  0.5457560000000  0.5476680000000 1.0
C      1  0.5238470000000  0.4515900000000  0.5466540000000 1.0
C      1  0.4301900000000  0.4778610000000  0.5062880000000 1.0
C      1  0.5147720000000  0.5710890000000  0.5058630000000 1.0
C      1  0.5539770000000  0.4520640000000  0.5053270000000 1.0
C      1  0.5078830000000  0.5549900000000  0.5305120000000 1.0
C      1  0.5443640000000  0.4652230000000  0.5309090000000 1.0
C      1  0.4497040000000  0.4811150000000  0.5289830000000 1.0
C      1  0.5347280000000  0.5477300000000  0.4651940000000 1.0
C      1  0.5234190000000  0.4463660000000  0.4641690000000 1.0
C      1  0.4414540000000  0.5060170000000  0.4651410000000 1.0
C      1  0.4805300000000  0.5505010000000  0.5439690000000 1.0
C      1  0.5528820000000  0.4918600000000  0.5438540000000 1.0
C      1  0.4653650000000  0.4585790000000  0.5435470000000 1.0
C      1  0.4982540000000  0.4302510000000  0.4644840000000 1.0
C      1  0.4408660000000  0.5356610000000  0.4644830000000 1.0
C      1  0.5610040000000  0.5338420000000  0.4647450000000 1.0
C      1  0.4869410000000  0.4839050000000  0.4271900000000 1.0
C      1  0.4917930000000  0.5131270000000  0.4277010000000 1.0
C      1  0.5197870000000  0.5035170000000  0.4268260000000 1.0
C      1  0.4747420000000  0.4491970000000  0.4630030000000 1.0
C      1  0.4692020000000  0.5460190000000  0.4628860000000 1.0
C      1  0.5563320000000  0.5040370000000  0.4627610000000 1.0
C      1  0.4368420000000  0.4548270000000  0.4921310000000 1.0
C      1  0.4920230000000  0.5775220000000  0.4912330000000 1.0
C      1  0.5718800000000  0.4680320000000  0.4909990000000 1.0
C      1  0.4850350000000  0.4760630000000  0.4558770000000 1.0
C      1  0.4868760000000  0.5231850000000  0.4562290000000 1.0
C      1  0.5279710000000  0.5001280000000  0.4553490000000 1.0
C      1  0.5589560000000  0.4940190000000  0.4910900000000 1.0
C      1  0.4657220000000  0.4521050000000  0.4915230000000 1.0
C      1  0.4763820000000  0.5530860000000  0.4914500000000 1.0
C      1  0.4820780000000  0.4757830000000  0.5071430000000 1.0
C      1  0.4900650000000  0.5278710000000  0.5081620000000 1.0
C      1  0.5307190000000  0.4938050000000  0.5070880000000 1.0
C      1  0.4704070000000  0.5032600000000  0.5611720000000 1.0
C      1  0.5169440000000  0.5241270000000  0.5609300000000 1.0
C      1  0.5114670000000  0.4737300000000  0.5593290000000 1.0
C      1  0.5340170000000  0.4369050000000  0.4899400000000 1.0
C      1  0.4262450000000  0.5019330000000  0.4898450000000 1.0
C      1  0.5381280000000  0.5623620000000  0.4903210000000 1.0
END
