TITL C-38188-488-7 4.75703108431274e-06 125000 -362.881182741892 0 0 60 (C1) n - 1
REM
REM in /home/bkarasulu/CARBON/AIRSS/Generating-Clusters/EDIP-Nigel-Params/Higher-Symm/Box-15A/Only-C60/SD-CG/FIRE-HFTN
REM
REM
REM
REM
REM
REM ./C.cell (414f73aa93bd7a1190c7fd0f31ff2f98)
REM
REM compiler GCC version 9.2.1 20190827 (Red Hat 9.2.1-1)
REM options -cpp -mtune=generic -march=x86-64 -g -O0 -fpre-include=/usr/include/finclude/math-vector-fortran.h
REM seed -785703755 266529173 -1303523742 -2065144501 -1926093928 -1613436125 -923296347 -2043473433 294480986 1061784539 1320998139 -1729130359 2046064589 -940620011 1461004416 261116299 -279206372 410449005 -1876070863 1965221546 -774117408 -632165309 -606560043 1911639147 -1781960800 -735364722 681892131 -2052069138 -1926112228 -1584433376 1390602510 944709103 -312312133
REM
CELL 1.54180   50.00000   50.00000   50.00000   90.00000   90.00000   90.00000
LATT -1
SFAC C  
C      1  0.5153650000000  0.4585690000000  0.5364600000000 1.0
C      1  0.5155940000000  0.5335500000000  0.5405790000000 1.0
C      1  0.5149660000000  0.5405800000000  0.4643120000000 1.0
C      1  0.5205510000000  0.4713780000000  0.4639040000000 1.0
C      1  0.5364580000000  0.5770130000000  0.5369320000000 1.0
C      1  0.5296910000000  0.5434130000000  0.4169890000000 1.0
C      1  0.5352310000000  0.4254710000000  0.4581420000000 1.0
C      1  0.5332010000000  0.4616880000000  0.5819100000000 1.0
C      1  0.5037260000000  0.5479870000000  0.4084740000000 1.0
C      1  0.5098540000000  0.4194980000000  0.4487960000000 1.0
C      1  0.5089800000000  0.4519210000000  0.5910910000000 1.0
C      1  0.5134820000000  0.5879510000000  0.5478520000000 1.0
C      1  0.4914960000000  0.5125200000000  0.5196180000000 1.0
C      1  0.4923160000000  0.5196800000000  0.4875140000000 1.0
C      1  0.4922660000000  0.4875680000000  0.4832420000000 1.0
C      1  0.4917160000000  0.4800090000000  0.5150030000000 1.0
C      1  0.4509060000000  0.4821910000000  0.5646470000000 1.0
C      1  0.4528290000000  0.5647860000000  0.5180300000000 1.0
C      1  0.4531840000000  0.5173250000000  0.4361650000000 1.0
C      1  0.4527610000000  0.4355400000000  0.4820080000000 1.0
C      1  0.4409020000000  0.5091830000000  0.5198860000000 1.0
C      1  0.4414780000000  0.5199080000000  0.4907990000000 1.0
C      1  0.4418890000000  0.4906950000000  0.4800830000000 1.0
C      1  0.4411180000000  0.4800330000000  0.5092280000000 1.0
C      1  0.5418290000000  0.4515180000000  0.4691860000000 1.0
C      1  0.5382270000000  0.4648920000000  0.5535900000000 1.0
C      1  0.5391800000000  0.5484470000000  0.5329020000000 1.0
C      1  0.5364840000000  0.5372900000000  0.4445560000000 1.0
C      1  0.4596810000000  0.4622290000000  0.5481290000000 1.0
C      1  0.4610620000000  0.5473250000000  0.5373640000000 1.0
C      1  0.4617970000000  0.5373280000000  0.4527590000000 1.0
C      1  0.4624330000000  0.4527380000000  0.4629800000000 1.0
C      1  0.5201750000000  0.5538110000000  0.4890690000000 1.0
C      1  0.5226350000000  0.4911660000000  0.4430930000000 1.0
C      1  0.5193660000000  0.4458670000000  0.5113640000000 1.0
C      1  0.5189040000000  0.5088570000000  0.5539540000000 1.0
C      1  0.5625040000000  0.4691060000000  0.5100540000000 1.0
C      1  0.5566780000000  0.4947490000000  0.5198260000000 1.0
C      1  0.5504410000000  0.5140490000000  0.4990080000000 1.0
C      1  0.5575080000000  0.5066730000000  0.4730470000000 1.0
C      1  0.4694100000000  0.4391000000000  0.5044610000000 1.0
C      1  0.4683890000000  0.5039260000000  0.5609520000000 1.0
C      1  0.4699250000000  0.5609420000000  0.4960440000000 1.0
C      1  0.4707670000000  0.4957100000000  0.4401430000000 1.0
C      1  0.4957560000000  0.4953050000000  0.5665400000000 1.0
C      1  0.4976310000000  0.5653750000000  0.5044920000000 1.0
C      1  0.4978650000000  0.5042670000000  0.4332440000000 1.0
C      1  0.4970650000000  0.4353520000000  0.4958430000000 1.0
C      1  0.4649850000000  0.4649180000000  0.5197870000000 1.0
C      1  0.4650900000000  0.5188030000000  0.5348270000000 1.0
C      1  0.4659000000000  0.5348300000000  0.4812930000000 1.0
C      1  0.4668160000000  0.4811350000000  0.4662510000000 1.0
C      1  0.5461400000000  0.5093110000000  0.4474670000000 1.0
C      1  0.5457280000000  0.4493940000000  0.4986560000000 1.0
C      1  0.5433530000000  0.4932440000000  0.5466260000000 1.0
C      1  0.5432200000000  0.5421550000000  0.5043400000000 1.0
C      1  0.5020750000000  0.4158090000000  0.4752440000000 1.0
C      1  0.4990690000000  0.4778400000000  0.5893190000000 1.0
C      1  0.5023720000000  0.5875530000000  0.5223830000000 1.0
C      1  0.4995780000000  0.5205290000000  0.4095440000000 1.0
END
