TITL C-38197-8510-374 -1.78212577644976e-05 125000 -373.378935925962 0 0 60 (C1) n - 1
REM
REM in /home/bkarasulu/CARBON/AIRSS/Generating-Clusters/EDIP-Nigel-Params/Higher-Symm/Box-15A/Only-C60/SD-CG/FIRE-HFTN
REM
REM
REM
REM
REM
REM ./C.cell (414f73aa93bd7a1190c7fd0f31ff2f98)
REM
REM compiler GCC version 9.2.1 20190827 (Red Hat 9.2.1-1)
REM options -cpp -mtune=generic -march=x86-64 -g -O0 -fpre-include=/usr/include/finclude/math-vector-fortran.h
REM seed -1618979938 1220945510 1284432603 -370114546 132301183 -1043510128 -2013443141 -841349345 845517846 -90815667 1051143920 884755192 -475418477 1919120218 -1634668613 334065327 211985899 1660336391 291230839 651145768 1734532703 1485878852 490129884 1830836279 2069182857 756868283 800195291 -1745353244 919975771 1009549284 57810064 -1966842619 1454037109
REM
CELL 1.54180   50.00000   50.00000   50.00000   90.00000   90.00000   90.00000
LATT -1
SFAC C  
C      1  0.5305790000000  0.4266180000000  0.4825340000000 1.0
C      1  0.4211400000000  0.4854160000000  0.5340810000000 1.0
C      1  0.4867470000000  0.5277050000000  0.4262520000000 1.0
C      1  0.5285270000000  0.5621250000000  0.5108390000000 1.0
C      1  0.4840380000000  0.4331500000000  0.5124810000000 1.0
C      1  0.4784470000000  0.5569110000000  0.4856890000000 1.0
C      1  0.4253980000000  0.5146950000000  0.4899070000000 1.0
C      1  0.5629140000000  0.4820980000000  0.4744910000000 1.0
C      1  0.5709890000000  0.5074900000000  0.5250270000000 1.0
C      1  0.4812750000000  0.4823580000000  0.5665000000000 1.0
C      1  0.5050820000000  0.5314410000000  0.5714780000000 1.0
C      1  0.5205020000000  0.4844130000000  0.4227160000000 1.0
C      1  0.4853840000000  0.4391560000000  0.4840600000000 1.0
C      1  0.5585190000000  0.4816030000000  0.5221100000000 1.0
C      1  0.5151120000000  0.5314140000000  0.4217320000000 1.0
C      1  0.4781240000000  0.5689770000000  0.5118790000000 1.0
C      1  0.5306750000000  0.4226640000000  0.5113000000000 1.0
C      1  0.5267460000000  0.5534160000000  0.4829300000000 1.0
C      1  0.5758470000000  0.5079510000000  0.4741860000000 1.0
C      1  0.4294080000000  0.4860330000000  0.4903870000000 1.0
C      1  0.4183240000000  0.5142980000000  0.5337920000000 1.0
C      1  0.5101800000000  0.4837680000000  0.5699940000000 1.0
C      1  0.4768700000000  0.5264460000000  0.5669300000000 1.0
C      1  0.4919810000000  0.4809510000000  0.4261140000000 1.0
C      1  0.4712780000000  0.4482900000000  0.5315460000000 1.0
C      1  0.4385400000000  0.5318790000000  0.4728360000000 1.0
C      1  0.5398540000000  0.4680050000000  0.4336480000000 1.0
C      1  0.4593050000000  0.5486140000000  0.4659770000000 1.0
C      1  0.5514300000000  0.4376180000000  0.4677550000000 1.0
C      1  0.5352870000000  0.5457870000000  0.5336360000000 1.0
C      1  0.4371060000000  0.4723330000000  0.5526690000000 1.0
C      1  0.5574320000000  0.5294100000000  0.5346970000000 1.0
C      1  0.5561670000000  0.4619340000000  0.4551090000000 1.0
C      1  0.5197150000000  0.5494180000000  0.5562880000000 1.0
C      1  0.4636030000000  0.4640890000000  0.5527520000000 1.0
C      1  0.4708700000000  0.5449890000000  0.4410320000000 1.0
C      1  0.5480510000000  0.4364920000000  0.5280390000000 1.0
C      1  0.5648930000000  0.5303380000000  0.4623000000000 1.0
C      1  0.4803760000000  0.4617560000000  0.4423210000000 1.0
C      1  0.5443840000000  0.5487450000000  0.4606080000000 1.0
C      1  0.4700250000000  0.4570810000000  0.4675430000000 1.0
C      1  0.4638070000000  0.5603640000000  0.5338550000000 1.0
C      1  0.5491170000000  0.4614330000000  0.5403340000000 1.0
C      1  0.4320030000000  0.5305660000000  0.5517110000000 1.0
C      1  0.4492410000000  0.4729050000000  0.4763900000000 1.0
C      1  0.4569380000000  0.5425790000000  0.5537870000000 1.0
C      1  0.5289610000000  0.4672410000000  0.5583190000000 1.0
C      1  0.5304340000000  0.5492440000000  0.4365540000000 1.0
C      1  0.4154830000000  0.4719950000000  0.5101770000000 1.0
C      1  0.4765020000000  0.5029120000000  0.4185460000000 1.0
C      1  0.5053420000000  0.4247410000000  0.4707450000000 1.0
C      1  0.4090370000000  0.5255360000000  0.5098430000000 1.0
C      1  0.5704620000000  0.4713320000000  0.4990940000000 1.0
C      1  0.5844880000000  0.5116180000000  0.5006940000000 1.0
C      1  0.4674850000000  0.5031730000000  0.5796640000000 1.0
C      1  0.5186850000000  0.5084590000000  0.5801340000000 1.0
C      1  0.5281730000000  0.5088490000000  0.4117120000000 1.0
C      1  0.5048070000000  0.5766870000000  0.5159600000000 1.0
C      1  0.5051760000000  0.4173050000000  0.5214960000000 1.0
C      1  0.5027290000000  0.5651840000000  0.4748190000000 1.0
END
