TITL C-38191-7580-340 -2.13490352983251e-05 125000 -345.940684364449 0 0 60 (C3h) n - 1
REM
REM in /home/bkarasulu/CARBON/AIRSS/Generating-Clusters/EDIP-Nigel-Params/Higher-Symm/Box-15A/Only-C60/SD-CG/FIRE-HFTN
REM
REM
REM
REM
REM
REM ./C.cell (414f73aa93bd7a1190c7fd0f31ff2f98)
REM
REM compiler GCC version 9.2.1 20190827 (Red Hat 9.2.1-1)
REM options -cpp -mtune=generic -march=x86-64 -g -O0 -fpre-include=/usr/include/finclude/math-vector-fortran.h
REM seed -282726858 -1925470623 -1011714533 511881199 1673965196 -2027131876 1725910227 246952142 2070468755 -326449966 -1012399899 1231828003 1983267258 -940656995 2133388865 1867875331 -1076652671 -34400756 638815469 1256266506 2107167114 -1563417380 745167270 -1343299124 -1408678446 859534993 117135358 -1729297370 -355087289 -1527176082 -2002005475 191180962 -1029025794
REM
CELL 1.54180   50.00000   50.00000   50.00000   90.00000   90.00000   90.00000
LATT -1
SFAC C  
C      1  0.4572050000000  0.5228360000000  0.4241120000000 1.0
C      1  0.5016210000000  0.4515200000000  0.4241120000000 1.0
C      1  0.5411740000000  0.5256440000000  0.4241120000000 1.0
C      1  0.4573230000000  0.5230110000000  0.5759550000000 1.0
C      1  0.5014110000000  0.4515350000000  0.5759550000000 1.0
C      1  0.5412660000000  0.5254540000000  0.5759550000000 1.0
C      1  0.5646190000000  0.4926150000000  0.5145230000000 1.0
C      1  0.4740870000000  0.5596540000000  0.5145230000000 1.0
C      1  0.4612950000000  0.4477310000000  0.5145230000000 1.0
C      1  0.5645820000000  0.4925660000000  0.4855260000000 1.0
C      1  0.4741470000000  0.5596470000000  0.4855260000000 1.0
C      1  0.4612710000000  0.4477870000000  0.4855260000000 1.0
C      1  0.4707370000000  0.5023450000000  0.5616650000000 1.0
C      1  0.5126000000000  0.4734850000000  0.5616650000000 1.0
C      1  0.5166620000000  0.5241700000000  0.5616650000000 1.0
C      1  0.4707830000000  0.5022780000000  0.4384030000000 1.0
C      1  0.5126360000000  0.4735580000000  0.4384030000000 1.0
C      1  0.5165810000000  0.5241640000000  0.4384030000000 1.0
C      1  0.4513220000000  0.4909400000000  0.4833930000000 1.0
C      1  0.5321850000000  0.4623740000000  0.4833930000000 1.0
C      1  0.5164930000000  0.5466860000000  0.4833930000000 1.0
C      1  0.4514060000000  0.4908900000000  0.5166740000000 1.0
C      1  0.5321870000000  0.4624720000000  0.5166740000000 1.0
C      1  0.5164070000000  0.5466390000000  0.5166740000000 1.0
C      1  0.4595790000000  0.5380380000000  0.5257680000000 1.0
C      1  0.4872680000000  0.4459760000000  0.5257680000000 1.0
C      1  0.5531520000000  0.5159860000000  0.5257680000000 1.0
C      1  0.4596320000000  0.5380750000000  0.4742050000000 1.0
C      1  0.4872100000000  0.4460030000000  0.4742050000000 1.0
C      1  0.5531580000000  0.5159220000000  0.4742050000000 1.0
C      1  0.5284600000000  0.5484750000000  0.5705510000000 1.0
C      1  0.4437900000000  0.5004100000000  0.5705510000000 1.0
C      1  0.5277500000000  0.4511150000000  0.5705510000000 1.0
C      1  0.5281560000000  0.5485590000000  0.4294620000000 1.0
C      1  0.4438690000000  0.5001040000000  0.4294620000000 1.0
C      1  0.5279750000000  0.4513370000000  0.4294620000000 1.0
C      1  0.4438900000000  0.4650020000000  0.5274020000000 1.0
C      1  0.5583640000000  0.4689060000000  0.5274020000000 1.0
C      1  0.4977460000000  0.5660920000000  0.5274020000000 1.0
C      1  0.4438150000000  0.4650380000000  0.4727040000000 1.0
C      1  0.5583710000000  0.4688230000000  0.4727040000000 1.0
C      1  0.4978150000000  0.5661390000000  0.4727040000000 1.0
C      1  0.4325410000000  0.5361950000000  0.4840450000000 1.0
C      1  0.5023840000000  0.4234810000000  0.4840450000000 1.0
C      1  0.5650750000000  0.5403240000000  0.4840450000000 1.0
C      1  0.4325280000000  0.5360920000000  0.5158470000000 1.0
C      1  0.5024790000000  0.4235210000000  0.5158470000000 1.0
C      1  0.5649930000000  0.5403860000000  0.5158470000000 1.0
C      1  0.5068240000000  0.4775170000000  0.5325830000000 1.0
C      1  0.5160590000000  0.5171510000000  0.5325830000000 1.0
C      1  0.4771170000000  0.5053320000000  0.5325830000000 1.0
C      1  0.5068380000000  0.4775230000000  0.4674960000000 1.0
C      1  0.5160460000000  0.5171600000000  0.4674960000000 1.0
C      1  0.4771160000000  0.5053160000000  0.4674960000000 1.0
C      1  0.4249770000000  0.5069920000000  0.4838010000000 1.0
C      1  0.5314560000000  0.4315320000000  0.4838010000000 1.0
C      1  0.5435670000000  0.5614760000000  0.4838010000000 1.0
C      1  0.4250790000000  0.5068670000000  0.5158840000000 1.0
C      1  0.5315130000000  0.4316820000000  0.5158840000000 1.0
C      1  0.5434080000000  0.5614500000000  0.5158840000000 1.0
END
