TITL C-38190-6388-108 4.02717949132821e-07 125000 -369.917478544693 0 0 60 (C1) n - 1
REM
REM in /home/bkarasulu/CARBON/AIRSS/Generating-Clusters/EDIP-Nigel-Params/Higher-Symm/Box-15A/Only-C60/SD-CG/FIRE-HFTN
REM
REM
REM
REM
REM
REM ./C.cell (414f73aa93bd7a1190c7fd0f31ff2f98)
REM
REM compiler GCC version 9.2.1 20190827 (Red Hat 9.2.1-1)
REM options -cpp -mtune=generic -march=x86-64 -g -O0 -fpre-include=/usr/include/finclude/math-vector-fortran.h
REM seed 903162733 -1472165849 195326846 146553364 -1783495079 -1296526534 288585467 -288907763 -507013736 1061240000 -298626503 578417007 -1119303124 -717810777 1895364366 710083485 -1083639783 -317566646 -249743928 1027794143 -896182302 1203477837 317673078 2054211917 1687747283 -456025500 1200332023 1927319805 1873181333 -63846099 1885560348 -1465620064 -1083507125
REM
CELL 1.54180   50.00000   50.00000   50.00000   90.00000   90.00000   90.00000
LATT -1
SFAC C  
C      1  0.4483310000000  0.4848330000000  0.4807820000000 1.0
C      1  0.5356240000000  0.4896310000000  0.4668840000000 1.0
C      1  0.5091140000000  0.4833870000000  0.5561360000000 1.0
C      1  0.4505290000000  0.5133220000000  0.4808350000000 1.0
C      1  0.5411900000000  0.5176120000000  0.4660600000000 1.0
C      1  0.5098880000000  0.5118840000000  0.5522900000000 1.0
C      1  0.4327460000000  0.4723970000000  0.5017900000000 1.0
C      1  0.5298000000000  0.4763970000000  0.4419100000000 1.0
C      1  0.5346430000000  0.4701640000000  0.5595890000000 1.0
C      1  0.4333210000000  0.5277720000000  0.4989330000000 1.0
C      1  0.5317910000000  0.5318630000000  0.4427820000000 1.0
C      1  0.5347880000000  0.5258090000000  0.5574740000000 1.0
C      1  0.4347090000000  0.5552790000000  0.4956620000000 1.0
C      1  0.5380990000000  0.5590450000000  0.4417110000000 1.0
C      1  0.5329530000000  0.5532820000000  0.5548440000000 1.0
C      1  0.4339940000000  0.4446690000000  0.5018760000000 1.0
C      1  0.5289900000000  0.4488830000000  0.4443980000000 1.0
C      1  0.5323460000000  0.4424450000000  0.5592700000000 1.0
C      1  0.4746830000000  0.4828000000000  0.4394480000000 1.0
C      1  0.5623080000000  0.4874740000000  0.5117980000000 1.0
C      1  0.4599410000000  0.4823830000000  0.5497170000000 1.0
C      1  0.4774480000000  0.5127160000000  0.4383090000000 1.0
C      1  0.5643640000000  0.5177160000000  0.5107520000000 1.0
C      1  0.4587310000000  0.5123370000000  0.5486730000000 1.0
C      1  0.4292610000000  0.5160100000000  0.5250260000000 1.0
C      1  0.5122390000000  0.5191560000000  0.4252670000000 1.0
C      1  0.5586480000000  0.5127340000000  0.5469460000000 1.0
C      1  0.4309500000000  0.4869810000000  0.5271290000000 1.0
C      1  0.5090910000000  0.4897420000000  0.4257790000000 1.0
C      1  0.5582080000000  0.4837010000000  0.5496780000000 1.0
C      1  0.5167370000000  0.5666110000000  0.5368010000000 1.0
C      1  0.4598230000000  0.5668880000000  0.4920330000000 1.0
C      1  0.5277200000000  0.5699200000000  0.4654780000000 1.0
C      1  0.5164480000000  0.4299560000000  0.5399130000000 1.0
C      1  0.4576440000000  0.4311360000000  0.4962180000000 1.0
C      1  0.5225430000000  0.4340730000000  0.4669540000000 1.0
C      1  0.5409840000000  0.5615000000000  0.4906830000000 1.0
C      1  0.4896050000000  0.5558010000000  0.5346300000000 1.0
C      1  0.4755170000000  0.5559950000000  0.4695870000000 1.0
C      1  0.5339910000000  0.4446140000000  0.4918630000000 1.0
C      1  0.4885440000000  0.4393880000000  0.5391650000000 1.0
C      1  0.4710830000000  0.4400920000000  0.4714660000000 1.0
C      1  0.4863790000000  0.4699140000000  0.5414070000000 1.0
C      1  0.4711880000000  0.4709990000000  0.4672550000000 1.0
C      1  0.5400430000000  0.4750290000000  0.4929020000000 1.0
C      1  0.4857050000000  0.5254470000000  0.5401360000000 1.0
C      1  0.4742870000000  0.5253140000000  0.4662500000000 1.0
C      1  0.5435130000000  0.5308830000000  0.4927000000000 1.0
C      1  0.4998870000000  0.5691870000000  0.4671210000000 1.0
C      1  0.5292240000000  0.5737540000000  0.5129480000000 1.0
C      1  0.4744580000000  0.5690470000000  0.5155260000000 1.0
C      1  0.4956340000000  0.4270310000000  0.4681610000000 1.0
C      1  0.5277710000000  0.4298470000000  0.5145440000000 1.0
C      1  0.4743680000000  0.4274740000000  0.5182330000000 1.0
C      1  0.5230280000000  0.4916590000000  0.5154180000000 1.0
C      1  0.4932990000000  0.4821100000000  0.5129800000000 1.0
C      1  0.4947840000000  0.4813300000000  0.4820750000000 1.0
C      1  0.5174970000000  0.5203830000000  0.5037330000000 1.0
C      1  0.4801210000000  0.5104630000000  0.5130720000000 1.0
C      1  0.4994470000000  0.5117290000000  0.4790000000000 1.0
END
