TITL C-38197-8510-130 7.0102636488076e-08 125000 -386.264913838511 0 0 60 (C6v) n - 1
REM
REM in /home/bkarasulu/CARBON/AIRSS/Generating-Clusters/EDIP-Nigel-Params/Higher-Symm/Box-15A/Only-C60/SD-CG/FIRE-HFTN
REM
REM
REM
REM
REM
REM ./C.cell (414f73aa93bd7a1190c7fd0f31ff2f98)
REM
REM compiler GCC version 9.2.1 20190827 (Red Hat 9.2.1-1)
REM options -cpp -mtune=generic -march=x86-64 -g -O0 -fpre-include=/usr/include/finclude/math-vector-fortran.h
REM seed -1262471696 1828852278 -868294907 -1385720609 -1856630026 772233893 -2101126481 -1827013400 -2068749101 1242452759 -285279390 -2080627658 1472339272 -1992912967 -1023902070 261504 -1272637136 -215927818 -1641652975 1055968944 1432157397 1882108376 173054577 -1179062223 233254665 2107223352 -954985009 -471928676 -1456591897 600821725 -521865973 -699870766 1573414663
REM
CELL 1.54180   50.00000   50.00000   50.00000   90.00000   90.00000   90.00000
LATT -1
SFAC C  
C      1  0.5528760000000  0.5582280000000  0.5190230000000 1.0
C      1  0.5429130000000  0.5582280000000  0.4637200000000 1.0
C      1  0.4900370000000  0.5582280000000  0.4446960000000 1.0
C      1  0.4471240000000  0.5582280000000  0.4809770000000 1.0
C      1  0.4570870000000  0.5582280000000  0.5362800000000 1.0
C      1  0.5099630000000  0.5582280000000  0.5553040000000 1.0
C      1  0.5579820000000  0.5144590000000  0.5455430000000 1.0
C      1  0.5684330000000  0.5144590000000  0.4725580000000 1.0
C      1  0.5104510000000  0.5144590000000  0.4270140000000 1.0
C      1  0.4420180000000  0.5144590000000  0.4544570000000 1.0
C      1  0.4315670000000  0.5144590000000  0.5274420000000 1.0
C      1  0.4895490000000  0.5144590000000  0.5729860000000 1.0
C      1  0.4377280000000  0.4858240000000  0.4618650000000 1.0
C      1  0.4358380000000  0.4858240000000  0.5348620000000 1.0
C      1  0.4981100000000  0.4858240000000  0.5729970000000 1.0
C      1  0.5622720000000  0.4858240000000  0.5381350000000 1.0
C      1  0.5641620000000  0.4858240000000  0.4651380000000 1.0
C      1  0.5018900000000  0.4858240000000  0.4270030000000 1.0
C      1  0.5365900000000  0.4331940000000  0.4690650000000 1.0
C      1  0.4915050000000  0.4331940000000  0.4528450000000 1.0
C      1  0.4549150000000  0.4331940000000  0.4837800000000 1.0
C      1  0.4634100000000  0.4331940000000  0.5309350000000 1.0
C      1  0.5084950000000  0.4331940000000  0.5471550000000 1.0
C      1  0.5450850000000  0.4331940000000  0.5162200000000 1.0
C      1  0.4780080000000  0.5641230000000  0.5185930000000 1.0
C      1  0.5051060000000  0.5641230000000  0.5283420000000 1.0
C      1  0.5270980000000  0.5641230000000  0.5097490000000 1.0
C      1  0.5219920000000  0.5641230000000  0.4814070000000 1.0
C      1  0.4948940000000  0.5641230000000  0.4716580000000 1.0
C      1  0.4729020000000  0.5641230000000  0.4902510000000 1.0
C      1  0.5590120000000  0.4702560000000  0.4893690000000 1.0
C      1  0.5202990000000  0.4702560000000  0.4435780000000 1.0
C      1  0.4612870000000  0.4702560000000  0.4542100000000 1.0
C      1  0.4409880000000  0.4702560000000  0.5106310000000 1.0
C      1  0.4797010000000  0.4702560000000  0.5564220000000 1.0
C      1  0.5387130000000  0.4702560000000  0.5457900000000 1.0
C      1  0.4887960000000  0.5310920000000  0.4378100000000 1.0
C      1  0.4405400000000  0.5310920000000  0.4786080000000 1.0
C      1  0.4517440000000  0.5310920000000  0.5407980000000 1.0
C      1  0.5112040000000  0.5310920000000  0.5621900000000 1.0
C      1  0.5594600000000  0.5310920000000  0.5213920000000 1.0
C      1  0.5482560000000  0.5310920000000  0.4592020000000 1.0
C      1  0.5336670000000  0.4425400000000  0.5398220000000 1.0
C      1  0.5513200000000  0.4425400000000  0.4907540000000 1.0
C      1  0.5176530000000  0.4425400000000  0.4509330000000 1.0
C      1  0.4663330000000  0.4425400000000  0.4601780000000 1.0
C      1  0.4486800000000  0.4425400000000  0.5092460000000 1.0
C      1  0.4823470000000  0.4425400000000  0.5490670000000 1.0
C      1  0.5272460000000  0.4858240000000  0.5677480000000 1.0
C      1  0.5722940000000  0.4858240000000  0.5102780000000 1.0
C      1  0.5450480000000  0.4858240000000  0.4425300000000 1.0
C      1  0.4727540000000  0.4858240000000  0.4322520000000 1.0
C      1  0.4277060000000  0.4858240000000  0.4897220000000 1.0
C      1  0.4549520000000  0.4858240000000  0.5574700000000 1.0
C      1  0.5384430000000  0.5144590000000  0.4370850000000 1.0
C      1  0.4647360000000  0.5144590000000  0.4352500000000 1.0
C      1  0.4262930000000  0.5144590000000  0.4981650000000 1.0
C      1  0.4615570000000  0.5144590000000  0.5629150000000 1.0
C      1  0.5352640000000  0.5144590000000  0.5647500000000 1.0
C      1  0.5737070000000  0.5144590000000  0.5018350000000 1.0
END
