TITL C-38199-1586-180 2.42724798679308e-05 125000 -357.44084461304 0 0 60 (C1) n - 1
REM
REM in /home/bkarasulu/CARBON/AIRSS/Generating-Clusters/EDIP-Nigel-Params/Higher-Symm/Box-15A/Only-C60/SD-CG/FIRE-HFTN
REM
REM
REM
REM
REM
REM ./C.cell (414f73aa93bd7a1190c7fd0f31ff2f98)
REM
REM compiler GCC version 9.2.1 20190827 (Red Hat 9.2.1-1)
REM options -cpp -mtune=generic -march=x86-64 -g -O0 -fpre-include=/usr/include/finclude/math-vector-fortran.h
REM seed -1805694151 -1615769745 7820460 1308130805 -158714893 1590533339 1007697295 -1658033719 404747654 -366359985 -2078344214 1203664678 71019982 150772467 1879897395 242951661 789171496 -1581109758 1466762663 1568724120 1660098073 791197715 -1375611992 -595781958 -756787870 853672390 1972661473 -1064172362 62302856 -1975095074 -1869331733 1515041866 -2045110193
REM
CELL 1.54180   50.00000   50.00000   50.00000   90.00000   90.00000   90.00000
LATT -1
SFAC C  
C      1  0.5136820000000  0.4963270000000  0.5215790000000 1.0
C      1  0.4848660000000  0.5028060000000  0.5262540000000 1.0
C      1  0.5156240000000  0.4971360000000  0.4825150000000 1.0
C      1  0.4874160000000  0.5028800000000  0.4742520000000 1.0
C      1  0.5064500000000  0.4483150000000  0.5614910000000 1.0
C      1  0.4921740000000  0.5515020000000  0.5600190000000 1.0
C      1  0.5066450000000  0.4488730000000  0.4394420000000 1.0
C      1  0.4925480000000  0.5520710000000  0.4386350000000 1.0
C      1  0.5482500000000  0.4852210000000  0.4416620000000 1.0
C      1  0.4511140000000  0.5146610000000  0.4430380000000 1.0
C      1  0.5480690000000  0.4850680000000  0.5572540000000 1.0
C      1  0.4504540000000  0.5145430000000  0.5580950000000 1.0
C      1  0.4734510000000  0.5518300000000  0.5346680000000 1.0
C      1  0.5254500000000  0.4465390000000  0.5370540000000 1.0
C      1  0.4746320000000  0.5523160000000  0.4640010000000 1.0
C      1  0.5256680000000  0.4476710000000  0.4644100000000 1.0
C      1  0.4650190000000  0.4842830000000  0.4831880000000 1.0
C      1  0.5383160000000  0.5176800000000  0.4818790000000 1.0
C      1  0.4637010000000  0.4834660000000  0.5172590000000 1.0
C      1  0.5368690000000  0.5167550000000  0.5163900000000 1.0
C      1  0.5115450000000  0.5610530000000  0.5134010000000 1.0
C      1  0.4879460000000  0.4385820000000  0.5141780000000 1.0
C      1  0.5123530000000  0.5620260000000  0.4854130000000 1.0
C      1  0.4877740000000  0.4386500000000  0.4861240000000 1.0
C      1  0.4789390000000  0.4812590000000  0.4166840000000 1.0
C      1  0.5202780000000  0.5193480000000  0.4157870000000 1.0
C      1  0.4791130000000  0.4812950000000  0.5842780000000 1.0
C      1  0.5204140000000  0.5194870000000  0.5831510000000 1.0
C      1  0.4753440000000  0.5293920000000  0.4838080000000 1.0
C      1  0.5307460000000  0.4696210000000  0.4844490000000 1.0
C      1  0.4711060000000  0.5283860000000  0.5159160000000 1.0
C      1  0.5269030000000  0.4682130000000  0.5161240000000 1.0
C      1  0.5570880000000  0.4971420000000  0.5304740000000 1.0
C      1  0.4410190000000  0.5006710000000  0.5318270000000 1.0
C      1  0.5584420000000  0.4989160000000  0.4671690000000 1.0
C      1  0.4431990000000  0.5023120000000  0.4701860000000 1.0
C      1  0.4329980000000  0.5226270000000  0.5151020000000 1.0
C      1  0.5632460000000  0.4745480000000  0.5127800000000 1.0
C      1  0.4387780000000  0.5255720000000  0.4873780000000 1.0
C      1  0.5682980000000  0.4779500000000  0.4846180000000 1.0
C      1  0.4764740000000  0.5053470000000  0.4313810000000 1.0
C      1  0.5236930000000  0.4947360000000  0.4290340000000 1.0
C      1  0.4759820000000  0.5052650000000  0.5695720000000 1.0
C      1  0.5235500000000  0.4947120000000  0.5701500000000 1.0
C      1  0.5055040000000  0.4733090000000  0.4223200000000 1.0
C      1  0.4939190000000  0.5268840000000  0.4227050000000 1.0
C      1  0.5054990000000  0.4733930000000  0.5777710000000 1.0
C      1  0.4938760000000  0.5268910000000  0.5768250000000 1.0
C      1  0.4542220000000  0.5438540000000  0.5548470000000 1.0
C      1  0.5445740000000  0.4558100000000  0.5562770000000 1.0
C      1  0.4547460000000  0.5439570000000  0.4450090000000 1.0
C      1  0.5447110000000  0.4560500000000  0.4443690000000 1.0
C      1  0.5314000000000  0.5452570000000  0.5265410000000 1.0
C      1  0.4680670000000  0.4545710000000  0.5268510000000 1.0
C      1  0.5317030000000  0.5460590000000  0.4719460000000 1.0
C      1  0.4680920000000  0.4551970000000  0.4734970000000 1.0
C      1  0.4785990000000  0.4443020000000  0.5516610000000 1.0
C      1  0.5202450000000  0.5560070000000  0.5509980000000 1.0
C      1  0.4786500000000  0.4446600000000  0.4487280000000 1.0
C      1  0.5205660000000  0.5567440000000  0.4475860000000 1.0
END
