TITL C-38191-7580-105 8.99085470291843e-05 125000 -350.509347996439 0 0 60 (Ci) n - 1
REM
REM in /home/bkarasulu/CARBON/AIRSS/Generating-Clusters/EDIP-Nigel-Params/Higher-Symm/Box-15A/Only-C60/SD-CG/FIRE-HFTN
REM
REM
REM
REM
REM
REM ./C.cell (414f73aa93bd7a1190c7fd0f31ff2f98)
REM
REM compiler GCC version 9.2.1 20190827 (Red Hat 9.2.1-1)
REM options -cpp -mtune=generic -march=x86-64 -g -O0 -fpre-include=/usr/include/finclude/math-vector-fortran.h
REM seed 179205964 330979971 656587180 -38573151 972176468 -2131771087 -1815273879 1971477421 426449439 1507350884 1326115760 -1495478354 1244479456 -302810904 794811261 1677780297 -834336370 701242924 1509718664 448156186 1530623317 945656916 -873883668 -1733207478 1788474780 911453041 -1254440277 -1552258594 1654896753 1084113329 -968006871 1139793337 -836297714
REM
CELL 1.54180   50.00000   50.00000   50.00000   90.00000   90.00000   90.00000
LATT -1
SFAC C  
C      1  0.5315430000000  0.4765140000000  0.5537120000000 1.0
C      1  0.4698310000000  0.5326020000000  0.5451960000000 1.0
C      1  0.5305290000000  0.5539280000000  0.4957250000000 1.0
C      1  0.4684570000000  0.5234860000000  0.4462880000000 1.0
C      1  0.5301690000000  0.4673980000000  0.4548040000000 1.0
C      1  0.4694710000000  0.4460720000000  0.5042750000000 1.0
C      1  0.4228070000000  0.5328170000000  0.5314000000000 1.0
C      1  0.5792280000000  0.5456040000000  0.4874570000000 1.0
C      1  0.4231590000000  0.5097850000000  0.4573030000000 1.0
C      1  0.5771930000000  0.4671830000000  0.4686000000000 1.0
C      1  0.4207720000000  0.4543960000000  0.5125430000000 1.0
C      1  0.5768410000000  0.4902150000000  0.5426970000000 1.0
C      1  0.5815910000000  0.5165460000000  0.5389090000000 1.0
C      1  0.4236350000000  0.5449770000000  0.5067850000000 1.0
C      1  0.5793050000000  0.5275520000000  0.4666280000000 1.0
C      1  0.4184090000000  0.4834540000000  0.4610910000000 1.0
C      1  0.5763650000000  0.4550230000000  0.4932150000000 1.0
C      1  0.4206950000000  0.4724480000000  0.5333720000000 1.0
C      1  0.5107660000000  0.4630370000000  0.5173740000000 1.0
C      1  0.4916750000000  0.4959120000000  0.5382950000000 1.0
C      1  0.5091390000000  0.5324490000000  0.5267890000000 1.0
C      1  0.4892340000000  0.5369630000000  0.4826260000000 1.0
C      1  0.5083250000000  0.5040880000000  0.4617050000000 1.0
C      1  0.4908610000000  0.4675510000000  0.4732110000000 1.0
C      1  0.4968990000000  0.5116470000000  0.5630850000000 1.0
C      1  0.5042780000000  0.5623430000000  0.5234700000000 1.0
C      1  0.4984570000000  0.5456700000000  0.4565900000000 1.0
C      1  0.5031010000000  0.4883530000000  0.4369150000000 1.0
C      1  0.4957220000000  0.4376570000000  0.4765300000000 1.0
C      1  0.5015430000000  0.4543300000000  0.5434100000000 1.0
C      1  0.5265380000000  0.5057290000000  0.5628040000000 1.0
C      1  0.4746990000000  0.5589850000000  0.5284690000000 1.0
C      1  0.5264380000000  0.5525360000000  0.4635640000000 1.0
C      1  0.4734620000000  0.4942710000000  0.4371960000000 1.0
C      1  0.5253010000000  0.4410150000000  0.4715310000000 1.0
C      1  0.4735620000000  0.4474640000000  0.5364360000000 1.0
C      1  0.5565660000000  0.4820090000000  0.4571440000000 1.0
C      1  0.4416070000000  0.4530000000000  0.4940260000000 1.0
C      1  0.5568750000000  0.4712560000000  0.5381950000000 1.0
C      1  0.4434340000000  0.5179910000000  0.5428560000000 1.0
C      1  0.5583930000000  0.5470000000000  0.5059740000000 1.0
C      1  0.4431250000000  0.5287440000000  0.4618050000000 1.0
C      1  0.5138250000000  0.5276450000000  0.4978440000000 1.0
C      1  0.4772100000000  0.5088640000000  0.4811310000000 1.0
C      1  0.5237280000000  0.4905960000000  0.4854020000000 1.0
C      1  0.4861750000000  0.4723550000000  0.5021560000000 1.0
C      1  0.5227900000000  0.4911360000000  0.5188690000000 1.0
C      1  0.4762720000000  0.5094040000000  0.5145980000000 1.0
C      1  0.5585810000000  0.5279230000000  0.5279520000000 1.0
C      1  0.4455110000000  0.5384800000000  0.4896070000000 1.0
C      1  0.5563560000000  0.5106340000000  0.4636530000000 1.0
C      1  0.4414190000000  0.4720770000000  0.4720480000000 1.0
C      1  0.5544890000000  0.4615200000000  0.5103930000000 1.0
C      1  0.4436440000000  0.4893660000000  0.5363470000000 1.0
C      1  0.4552770000000  0.4661460000000  0.5494390000000 1.0
C      1  0.5336910000000  0.5266430000000  0.5427570000000 1.0
C      1  0.4588900000000  0.5605320000000  0.5036580000000 1.0
C      1  0.5447230000000  0.5338540000000  0.4505610000000 1.0
C      1  0.4663090000000  0.4733570000000  0.4572430000000 1.0
C      1  0.5411100000000  0.4394680000000  0.4963420000000 1.0
END
