TITL C-38189-4514-196 4.29205778409377e-05 125000 -357.43644421483 0 0 60 (C1) n - 1
REM
REM in /home/bkarasulu/CARBON/AIRSS/Generating-Clusters/EDIP-Nigel-Params/Higher-Symm/Box-15A/Only-C60/SD-CG/FIRE-HFTN
REM
REM
REM
REM
REM
REM ./C.cell (414f73aa93bd7a1190c7fd0f31ff2f98)
REM
REM compiler GCC version 9.2.1 20190827 (Red Hat 9.2.1-1)
REM options -cpp -mtune=generic -march=x86-64 -g -O0 -fpre-include=/usr/include/finclude/math-vector-fortran.h
REM seed -694886793 583125861 414038836 182340833 695011899 1236128568 645040872 336975194 -1479963319 -1438220479 -1984100888 914717111 -116989783 1646498059 -1822736536 178174886 1114396417 -142261748 -1825145264 1327063028 928259540 1045560004 -1194567984 1270949698 1254030718 1786085332 -459603456 400553779 -1886526066 557315615 -232743736 -876988241 -1337046252
REM
CELL 1.54180   50.00000   50.00000   50.00000   90.00000   90.00000   90.00000
LATT -1
SFAC C  
C      1  0.5410000000000  0.4928540000000  0.5146370000000 1.0
C      1  0.4401880000000  0.4933340000000  0.5162910000000 1.0
C      1  0.4430050000000  0.4630290000000  0.5221340000000 1.0
C      1  0.4383010000000  0.4663600000000  0.4690890000000 1.0
C      1  0.5398690000000  0.5380930000000  0.5364880000000 1.0
C      1  0.5231070000000  0.4773510000000  0.5702470000000 1.0
C      1  0.5314950000000  0.3974820000000  0.5009090000000 1.0
C      1  0.4718060000000  0.5650230000000  0.5346480000000 1.0
C      1  0.5275760000000  0.3961590000000  0.5283630000000 1.0
C      1  0.5494240000000  0.4637470000000  0.5155630000000 1.0
C      1  0.5464030000000  0.5108010000000  0.5387220000000 1.0
C      1  0.5042320000000  0.4984700000000  0.4324470000000 1.0
C      1  0.5113580000000  0.5239210000000  0.4761620000000 1.0
C      1  0.5033830000000  0.5773610000000  0.4984170000000 1.0
C      1  0.4514980000000  0.5374850000000  0.4986200000000 1.0
C      1  0.4574160000000  0.4483540000000  0.4782870000000 1.0
C      1  0.4179020000000  0.4968280000000  0.4977430000000 1.0
C      1  0.5322390000000  0.4535930000000  0.5595390000000 1.0
C      1  0.5452270000000  0.4175180000000  0.5302100000000 1.0
C      1  0.4663550000000  0.5116610000000  0.5054000000000 1.0
C      1  0.4675190000000  0.5595680000000  0.5613500000000 1.0
C      1  0.5593760000000  0.5006380000000  0.4899900000000 1.0
C      1  0.5202500000000  0.5227650000000  0.4224540000000 1.0
C      1  0.4956820000000  0.4807570000000  0.5684480000000 1.0
C      1  0.5611650000000  0.4770920000000  0.4736930000000 1.0
C      1  0.5132860000000  0.5549480000000  0.5709930000000 1.0
C      1  0.4502060000000  0.4731030000000  0.5483520000000 1.0
C      1  0.5420860000000  0.5657620000000  0.4804340000000 1.0
C      1  0.4976930000000  0.5163350000000  0.5014330000000 1.0
C      1  0.4943850000000  0.5434170000000  0.4619740000000 1.0
C      1  0.4904760000000  0.5682860000000  0.4748740000000 1.0
C      1  0.5374080000000  0.5384170000000  0.4820460000000 1.0
C      1  0.4918500000000  0.4226030000000  0.4544740000000 1.0
C      1  0.5550740000000  0.4545480000000  0.4896390000000 1.0
C      1  0.5385890000000  0.4989840000000  0.5625380000000 1.0
C      1  0.5144970000000  0.4952330000000  0.4607530000000 1.0
C      1  0.4406310000000  0.5392970000000  0.4726900000000 1.0
C      1  0.4520110000000  0.5589370000000  0.5163850000000 1.0
C      1  0.5460040000000  0.5144950000000  0.4369570000000 1.0
C      1  0.4635550000000  0.5135220000000  0.4370430000000 1.0
C      1  0.4755680000000  0.4882690000000  0.4267990000000 1.0
C      1  0.5043550000000  0.5752080000000  0.5878090000000 1.0
C      1  0.5104260000000  0.4922120000000  0.5103120000000 1.0
C      1  0.4988000000000  0.5635330000000  0.5242480000000 1.0
C      1  0.4639960000000  0.4509910000000  0.5060890000000 1.0
C      1  0.5579650000000  0.5229670000000  0.4717840000000 1.0
C      1  0.4837240000000  0.4801710000000  0.5204040000000 1.0
C      1  0.5428430000000  0.4869670000000  0.4509330000000 1.0
C      1  0.4303030000000  0.4925230000000  0.4728660000000 1.0
C      1  0.5208250000000  0.5576770000000  0.5433870000000 1.0
C      1  0.4779360000000  0.4471990000000  0.4585550000000 1.0
C      1  0.5381620000000  0.4448660000000  0.5340070000000 1.0
C      1  0.5299240000000  0.5855400000000  0.4940020000000 1.0
C      1  0.5122280000000  0.4081430000000  0.4831010000000 1.0
C      1  0.4461680000000  0.5141420000000  0.4613330000000 1.0
C      1  0.5188940000000  0.4174740000000  0.4579300000000 1.0
C      1  0.4791550000000  0.5639860000000  0.5857700000000 1.0
C      1  0.4765770000000  0.4837950000000  0.5486360000000 1.0
C      1  0.4698690000000  0.4628500000000  0.4369870000000 1.0
C      1  0.4887520000000  0.5333570000000  0.4346120000000 1.0
END
