TITL C-38192-7909-320 9.26862175511783e-07 125000 -342.134463228491 0 0 60 (Td) n - 1
REM
REM in /home/bkarasulu/CARBON/AIRSS/Generating-Clusters/EDIP-Nigel-Params/Higher-Symm/Box-15A/Only-C60/SD-CG/FIRE-HFTN
REM
REM
REM
REM
REM
REM ./C.cell (414f73aa93bd7a1190c7fd0f31ff2f98)
REM
REM compiler GCC version 9.2.1 20190827 (Red Hat 9.2.1-1)
REM options -cpp -mtune=generic -march=x86-64 -g -O0 -fpre-include=/usr/include/finclude/math-vector-fortran.h
REM seed 1672256299 41143529 -350281799 677464013 96496015 902708500 -1448850554 211461005 -1166833405 -375056751 1162025578 -256093224 -477917636 2124537060 -769321489 -648179923 633346818 695454463 -642289235 1349968902 595561186 779970070 117140341 -573251545 -997546056 894312981 -1170861596 1057547778 1574450204 -119863353 -155470573 -1775390812 -1052907890
REM
CELL 1.54180   50.00000   50.00000   50.00000   90.00000   90.00000   90.00000
LATT -1
SFAC C  
C      1  0.5653860000000  0.4777860000000  0.4564660000000 1.0
C      1  0.4777860000000  0.4564660000000  0.5653860000000 1.0
C      1  0.4564660000000  0.5653860000000  0.4777860000000 1.0
C      1  0.4346140000000  0.5222140000000  0.4564660000000 1.0
C      1  0.5653860000000  0.5222140000000  0.5435340000000 1.0
C      1  0.4346140000000  0.4777860000000  0.5435340000000 1.0
C      1  0.5222140000000  0.5435340000000  0.5653860000000 1.0
C      1  0.4777860000000  0.5435340000000  0.4346140000000 1.0
C      1  0.5222140000000  0.4564660000000  0.4346140000000 1.0
C      1  0.5435340000000  0.4346140000000  0.4777860000000 1.0
C      1  0.4564660000000  0.4346140000000  0.5222140000000 1.0
C      1  0.5435340000000  0.5653860000000  0.5222140000000 1.0
C      1  0.4777860000000  0.5653860000000  0.4564660000000 1.0
C      1  0.4564660000000  0.4777860000000  0.5653860000000 1.0
C      1  0.5653860000000  0.4564660000000  0.4777860000000 1.0
C      1  0.5222140000000  0.4346140000000  0.4564660000000 1.0
C      1  0.5222140000000  0.5653860000000  0.5435340000000 1.0
C      1  0.4777860000000  0.4346140000000  0.5435340000000 1.0
C      1  0.5435340000000  0.5222140000000  0.5653860000000 1.0
C      1  0.5435340000000  0.4777860000000  0.4346140000000 1.0
C      1  0.4564660000000  0.5222140000000  0.4346140000000 1.0
C      1  0.4346140000000  0.5435340000000  0.4777860000000 1.0
C      1  0.4346140000000  0.4564660000000  0.5222140000000 1.0
C      1  0.5653860000000  0.5435340000000  0.5222140000000 1.0
C      1  0.5077160000000  0.4636720000000  0.5586740000000 1.0
C      1  0.4636720000000  0.5586740000000  0.5077160000000 1.0
C      1  0.5586740000000  0.5077160000000  0.4636720000000 1.0
C      1  0.4922840000000  0.5363280000000  0.5586740000000 1.0
C      1  0.5077160000000  0.5363280000000  0.4413260000000 1.0
C      1  0.4922840000000  0.4636720000000  0.4413260000000 1.0
C      1  0.5363280000000  0.4413260000000  0.5077160000000 1.0
C      1  0.4636720000000  0.4413260000000  0.4922840000000 1.0
C      1  0.5363280000000  0.5586740000000  0.4922840000000 1.0
C      1  0.4413260000000  0.4922840000000  0.4636720000000 1.0
C      1  0.5586740000000  0.4922840000000  0.5363280000000 1.0
C      1  0.4413260000000  0.5077160000000  0.5363280000000 1.0
C      1  0.4636720000000  0.5077160000000  0.5586740000000 1.0
C      1  0.5586740000000  0.4636720000000  0.5077160000000 1.0
C      1  0.5077160000000  0.5586740000000  0.4636720000000 1.0
C      1  0.5363280000000  0.4922840000000  0.5586740000000 1.0
C      1  0.5363280000000  0.5077160000000  0.4413260000000 1.0
C      1  0.4636720000000  0.4922840000000  0.4413260000000 1.0
C      1  0.4413260000000  0.5363280000000  0.5077160000000 1.0
C      1  0.4413260000000  0.4636720000000  0.4922840000000 1.0
C      1  0.5586740000000  0.5363280000000  0.4922840000000 1.0
C      1  0.4922840000000  0.4413260000000  0.4636720000000 1.0
C      1  0.4922840000000  0.5586740000000  0.5363280000000 1.0
C      1  0.5077160000000  0.4413260000000  0.5363280000000 1.0
C      1  0.5110720000000  0.4889280000000  0.5403600000000 1.0
C      1  0.4889280000000  0.5403600000000  0.5110720000000 1.0
C      1  0.5403600000000  0.5110720000000  0.4889280000000 1.0
C      1  0.4889280000000  0.5110720000000  0.5403600000000 1.0
C      1  0.5110720000000  0.5110720000000  0.4596400000000 1.0
C      1  0.5110720000000  0.4596400000000  0.5110720000000 1.0
C      1  0.4889280000000  0.4596400000000  0.4889280000000 1.0
C      1  0.5110720000000  0.5403600000000  0.4889280000000 1.0
C      1  0.4596400000000  0.4889280000000  0.4889280000000 1.0
C      1  0.5403600000000  0.4889280000000  0.5110720000000 1.0
C      1  0.4596400000000  0.5110720000000  0.5110720000000 1.0
C      1  0.4889280000000  0.4889280000000  0.4596400000000 1.0
END
