TITL C-38191-7580-95 1.42595410819122e-06 125000 -374.467645159169 0 0 60 (C2) n - 1
REM
REM in /home/bkarasulu/CARBON/AIRSS/Generating-Clusters/EDIP-Nigel-Params/Higher-Symm/Box-15A/Only-C60/SD-CG/FIRE-HFTN
REM
REM
REM
REM
REM
REM ./C.cell (414f73aa93bd7a1190c7fd0f31ff2f98)
REM
REM compiler GCC version 9.2.1 20190827 (Red Hat 9.2.1-1)
REM options -cpp -mtune=generic -march=x86-64 -g -O0 -fpre-include=/usr/include/finclude/math-vector-fortran.h
REM seed -1396463655 -58193952 -1609634929 -1380548167 -121315204 -1994732433 1583549785 -1648405738 1085999029 1455075576 897557487 -1395823907 -1950390309 1785526936 986057812 59038022 1225646426 -1751561608 -836854410 1290711027 -884258386 554701846 1570392936 -98823751 1690626730 289080531 200318562 1868155854 -1400931031 1814482007 318456665 -1608104746 -135827680
REM
CELL 1.54180   50.00000   50.00000   50.00000   90.00000   90.00000   90.00000
LATT -1
SFAC C  
C      1  0.4692900000000  0.4819020000000  0.5450990000000 1.0
C      1  0.5167780000000  0.4702900000000  0.5435930000000 1.0
C      1  0.5307100000000  0.5180980000000  0.5450990000000 1.0
C      1  0.4832220000000  0.5297100000000  0.5435930000000 1.0
C      1  0.4652200000000  0.4893940000000  0.4587070000000 1.0
C      1  0.5100820000000  0.4668480000000  0.4605360000000 1.0
C      1  0.5347800000000  0.5106060000000  0.4587070000000 1.0
C      1  0.4899180000000  0.5331520000000  0.4605360000000 1.0
C      1  0.4863700000000  0.4337620000000  0.5263440000000 1.0
C      1  0.5631930000000  0.4831870000000  0.5278420000000 1.0
C      1  0.5136300000000  0.5662380000000  0.5263440000000 1.0
C      1  0.4368070000000  0.5168130000000  0.5278420000000 1.0
C      1  0.4701600000000  0.4403250000000  0.4711040000000 1.0
C      1  0.5574280000000  0.4714450000000  0.4767380000000 1.0
C      1  0.5298400000000  0.5596750000000  0.4711040000000 1.0
C      1  0.4425720000000  0.5285550000000  0.4767380000000 1.0
C      1  0.4449380000000  0.5490650000000  0.4981280000000 1.0
C      1  0.4503130000000  0.4398030000000  0.4929760000000 1.0
C      1  0.5550620000000  0.4509350000000  0.4981280000000 1.0
C      1  0.5496870000000  0.5601970000000  0.4929760000000 1.0
C      1  0.4314340000000  0.5438750000000  0.5222090000000 1.0
C      1  0.4610230000000  0.4277300000000  0.5160160000000 1.0
C      1  0.5685660000000  0.4561250000000  0.5222090000000 1.0
C      1  0.5389770000000  0.5722700000000  0.5160160000000 1.0
C      1  0.4233180000000  0.4982450000000  0.5100600000000 1.0
C      1  0.5077750000000  0.4226040000000  0.5095920000000 1.0
C      1  0.5766820000000  0.5017550000000  0.5100600000000 1.0
C      1  0.4922250000000  0.5773960000000  0.5095920000000 1.0
C      1  0.4367770000000  0.4818950000000  0.4682900000000 1.0
C      1  0.5170910000000  0.4381430000000  0.4685840000000 1.0
C      1  0.5632230000000  0.5181050000000  0.4682900000000 1.0
C      1  0.4829090000000  0.5618570000000  0.4685840000000 1.0
C      1  0.5303990000000  0.4849820000000  0.4750880000000 1.0
C      1  0.5179060000000  0.5320240000000  0.4724520000000 1.0
C      1  0.4696010000000  0.5150180000000  0.4750880000000 1.0
C      1  0.4820940000000  0.4679760000000  0.4724520000000 1.0
C      1  0.5338870000000  0.4908860000000  0.5300050000000 1.0
C      1  0.5103310000000  0.5361060000000  0.5300360000000 1.0
C      1  0.4661130000000  0.5091140000000  0.5300050000000 1.0
C      1  0.4896690000000  0.4638940000000  0.5300360000000 1.0
C      1  0.4789480000000  0.4937980000000  0.4315700000000 1.0
C      1  0.5063940000000  0.4789810000000  0.4323690000000 1.0
C      1  0.5210520000000  0.5062020000000  0.4315700000000 1.0
C      1  0.4936060000000  0.5210190000000  0.4323690000000 1.0
C      1  0.4809250000000  0.4888650000000  0.5715750000000 1.0
C      1  0.5110070000000  0.4808770000000  0.5708710000000 1.0
C      1  0.5190750000000  0.5111350000000  0.5715750000000 1.0
C      1  0.4889930000000  0.5191230000000  0.5708710000000 1.0
C      1  0.4234700000000  0.5056550000000  0.4814960000000 1.0
C      1  0.4928490000000  0.4224400000000  0.4742980000000 1.0
C      1  0.5765300000000  0.4943450000000  0.4814960000000 1.0
C      1  0.5071510000000  0.5775600000000  0.4742980000000 1.0
C      1  0.4431020000000  0.4688640000000  0.4956920000000 1.0
C      1  0.5277690000000  0.4392720000000  0.4957510000000 1.0
C      1  0.5568980000000  0.5311360000000  0.4956920000000 1.0
C      1  0.4722310000000  0.5607280000000  0.4957510000000 1.0
C      1  0.4787660000000  0.5056150000000  0.5026540000000 1.0
C      1  0.4809670000000  0.4766680000000  0.5018240000000 1.0
C      1  0.5212340000000  0.4943850000000  0.5026540000000 1.0
C      1  0.5190330000000  0.5233320000000  0.5018240000000 1.0
END
