TITL C-38192-7909-378 9.75183768464129e-05 125000 -353.023204896594 0 0 60 (S4) n - 1
REM
REM in /home/bkarasulu/CARBON/AIRSS/Generating-Clusters/EDIP-Nigel-Params/Higher-Symm/Box-15A/Only-C60/SD-CG/FIRE-HFTN
REM
REM
REM
REM
REM
REM ./C.cell (414f73aa93bd7a1190c7fd0f31ff2f98)
REM
REM compiler GCC version 9.2.1 20190827 (Red Hat 9.2.1-1)
REM options -cpp -mtune=generic -march=x86-64 -g -O0 -fpre-include=/usr/include/finclude/math-vector-fortran.h
REM seed -1483412913 455377806 1548987166 1415348747 -1494967413 -1613146063 -1065494588 -954434299 1495735023 154989197 1587575050 -331175194 -873911821 94242349 -2119719440 -526859734 369060984 -308031400 -696777790 -536988831 -1662371154 -1107131706 1119344120 659197324 -775688720 649786991 -1215219970 1848909819 2030642286 485873364 369513230 -807165358 1258701463
REM
CELL 1.54180   50.00000   50.00000   50.00000   90.00000   90.00000   90.00000
LATT -1
SFAC C  
C      1  0.4775970000000  0.4272310000000  0.4594920000000 1.0
C      1  0.4272310000000  0.5224030000000  0.5405080000000 1.0
C      1  0.5224030000000  0.5727690000000  0.4594920000000 1.0
C      1  0.5727690000000  0.4775970000000  0.5405080000000 1.0
C      1  0.4990230000000  0.4715180000000  0.4526200000000 1.0
C      1  0.4715180000000  0.5009770000000  0.5473800000000 1.0
C      1  0.5009770000000  0.5284820000000  0.4526200000000 1.0
C      1  0.5284820000000  0.4990230000000  0.5473800000000 1.0
C      1  0.5718190000000  0.4620100000000  0.4621140000000 1.0
C      1  0.4620100000000  0.4281810000000  0.5378860000000 1.0
C      1  0.4281810000000  0.5379900000000  0.4621140000000 1.0
C      1  0.5379900000000  0.5718190000000  0.5378860000000 1.0
C      1  0.5908500000000  0.4966260000000  0.5315860000000 1.0
C      1  0.4966260000000  0.4091500000000  0.4684140000000 1.0
C      1  0.4091500000000  0.5033740000000  0.5315860000000 1.0
C      1  0.5033740000000  0.5908500000000  0.4684140000000 1.0
C      1  0.4985200000000  0.4431560000000  0.4508770000000 1.0
C      1  0.4431560000000  0.5014800000000  0.5491230000000 1.0
C      1  0.5014800000000  0.5568440000000  0.4508770000000 1.0
C      1  0.5568440000000  0.4985200000000  0.5491230000000 1.0
C      1  0.5639430000000  0.5780950000000  0.5105830000000 1.0
C      1  0.5780950000000  0.4360570000000  0.4894170000000 1.0
C      1  0.4360570000000  0.4219050000000  0.5105830000000 1.0
C      1  0.4219050000000  0.5639430000000  0.4894170000000 1.0
C      1  0.5644940000000  0.5798120000000  0.5382640000000 1.0
C      1  0.5798120000000  0.4355060000000  0.4617360000000 1.0
C      1  0.4355060000000  0.4201880000000  0.5382640000000 1.0
C      1  0.4201880000000  0.5644940000000  0.4617360000000 1.0
C      1  0.5588200000000  0.4210940000000  0.5035600000000 1.0
C      1  0.4210940000000  0.4411800000000  0.4964400000000 1.0
C      1  0.4411800000000  0.5789060000000  0.5035600000000 1.0
C      1  0.5789060000000  0.5588200000000  0.4964400000000 1.0
C      1  0.4505060000000  0.4740330000000  0.4538750000000 1.0
C      1  0.4740330000000  0.5494940000000  0.5461250000000 1.0
C      1  0.5494940000000  0.5259670000000  0.4538750000000 1.0
C      1  0.5259670000000  0.4505060000000  0.5461250000000 1.0
C      1  0.5251130000000  0.5133560000000  0.4522420000000 1.0
C      1  0.5133560000000  0.4748870000000  0.5477580000000 1.0
C      1  0.4748870000000  0.4866440000000  0.4522420000000 1.0
C      1  0.4866440000000  0.5251130000000  0.5477580000000 1.0
C      1  0.4283500000000  0.4667690000000  0.4681240000000 1.0
C      1  0.4667690000000  0.5716500000000  0.5318760000000 1.0
C      1  0.5716500000000  0.5332310000000  0.4681240000000 1.0
C      1  0.5332310000000  0.4283500000000  0.5318760000000 1.0
C      1  0.5724330000000  0.5312990000000  0.4963240000000 1.0
C      1  0.5312990000000  0.4275670000000  0.5036760000000 1.0
C      1  0.4275670000000  0.4687010000000  0.4963240000000 1.0
C      1  0.4687010000000  0.5724330000000  0.5036760000000 1.0
C      1  0.4849370000000  0.4759030000000  0.5480020000000 1.0
C      1  0.4759030000000  0.5150630000000  0.4519980000000 1.0
C      1  0.5150630000000  0.5240970000000  0.5480020000000 1.0
C      1  0.5240970000000  0.4849370000000  0.4519980000000 1.0
C      1  0.4526070000000  0.5295270000000  0.4531760000000 1.0
C      1  0.5295270000000  0.5473930000000  0.5468240000000 1.0
C      1  0.5473930000000  0.4704730000000  0.4531760000000 1.0
C      1  0.4704730000000  0.4526070000000  0.5468240000000 1.0
C      1  0.5875490000000  0.5125630000000  0.5095930000000 1.0
C      1  0.5125630000000  0.4124510000000  0.4904070000000 1.0
C      1  0.4124510000000  0.4874370000000  0.5095930000000 1.0
C      1  0.4874370000000  0.5875490000000  0.4904070000000 1.0
END
