TITL C-38194-9318-316 3.47662839297638e-05 125000 -369.322425782104 0 0 60 (C1) n - 1
REM
REM in /home/bkarasulu/CARBON/AIRSS/Generating-Clusters/EDIP-Nigel-Params/Higher-Symm/Box-15A/Only-C60/SD-CG/FIRE-HFTN
REM
REM
REM
REM
REM
REM ./C.cell (414f73aa93bd7a1190c7fd0f31ff2f98)
REM
REM compiler GCC version 9.2.1 20190827 (Red Hat 9.2.1-1)
REM options -cpp -mtune=generic -march=x86-64 -g -O0 -fpre-include=/usr/include/finclude/math-vector-fortran.h
REM seed -406174302 1320983792 -1831088975 168711817 711694289 -981388128 -1434469935 1121725040 602350347 1871889834 218032086 -864926438 1679131442 1694539934 314016326 -1880518757 2081398628 1440914012 -1997101020 1889308616 -668569583 433856533 -1354095775 -655919083 -1722610514 115847399 -15995829 2085601655 -276841115 2102620906 -588598210 107563163 -83491126
REM
CELL 1.54180   50.00000   50.00000   50.00000   90.00000   90.00000   90.00000
LATT -1
SFAC C  
C      1  0.5025890000000  0.4701970000000  0.4557440000000 1.0
C      1  0.4968920000000  0.4725360000000  0.5430740000000 1.0
C      1  0.4868980000000  0.5272390000000  0.5170180000000 1.0
C      1  0.5123650000000  0.5327230000000  0.4929490000000 1.0
C      1  0.4268650000000  0.4794550000000  0.4895300000000 1.0
C      1  0.5724480000000  0.4794090000000  0.5096840000000 1.0
C      1  0.5213200000000  0.4507830000000  0.4479630000000 1.0
C      1  0.4770360000000  0.4543680000000  0.5512420000000 1.0
C      1  0.5665210000000  0.4933660000000  0.5336360000000 1.0
C      1  0.4324470000000  0.4921590000000  0.4645080000000 1.0
C      1  0.4472000000000  0.4716180000000  0.5086780000000 1.0
C      1  0.5529760000000  0.4708020000000  0.4901520000000 1.0
C      1  0.4559570000000  0.4808410000000  0.4496390000000 1.0
C      1  0.5429520000000  0.4827950000000  0.5478800000000 1.0
C      1  0.5436650000000  0.5754670000000  0.5237770000000 1.0
C      1  0.4568000000000  0.5708220000000  0.4778370000000 1.0
C      1  0.5419840000000  0.5412760000000  0.4929130000000 1.0
C      1  0.4581860000000  0.5375770000000  0.5119920000000 1.0
C      1  0.5256850000000  0.4356250000000  0.5280480000000 1.0
C      1  0.4735340000000  0.4344730000000  0.4724640000000 1.0
C      1  0.5479170000000  0.5109080000000  0.4579990000000 1.0
C      1  0.4503850000000  0.5109160000000  0.5464580000000 1.0
C      1  0.4588150000000  0.5270820000000  0.4559020000000 1.0
C      1  0.5418340000000  0.5292880000000  0.5430130000000 1.0
C      1  0.5158640000000  0.5438700000000  0.4434890000000 1.0
C      1  0.4856190000000  0.5439530000000  0.5566640000000 1.0
C      1  0.5103510000000  0.5716220000000  0.4872790000000 1.0
C      1  0.4917030000000  0.5663490000000  0.5116660000000 1.0
C      1  0.5248390000000  0.4350940000000  0.4711180000000 1.0
C      1  0.4742940000000  0.4367690000000  0.5294560000000 1.0
C      1  0.5270780000000  0.5070740000000  0.5545880000000 1.0
C      1  0.4720350000000  0.5051530000000  0.4422070000000 1.0
C      1  0.4502270000000  0.4414420000000  0.5125220000000 1.0
C      1  0.5490590000000  0.4406950000000  0.4875690000000 1.0
C      1  0.4916000000000  0.4964680000000  0.5065040000000 1.0
C      1  0.5124980000000  0.5027490000000  0.4833790000000 1.0
C      1  0.4770720000000  0.5171160000000  0.5583380000000 1.0
C      1  0.5235990000000  0.5171120000000  0.4433280000000 1.0
C      1  0.4623080000000  0.5653310000000  0.5047300000000 1.0
C      1  0.5398010000000  0.5698130000000  0.4964900000000 1.0
C      1  0.5585520000000  0.5325090000000  0.4719970000000 1.0
C      1  0.4396350000000  0.5329870000000  0.5327450000000 1.0
C      1  0.5310700000000  0.5571130000000  0.5414810000000 1.0
C      1  0.4705290000000  0.5538900000000  0.4600790000000 1.0
C      1  0.5684700000000  0.5217370000000  0.5369080000000 1.0
C      1  0.4320810000000  0.5206180000000  0.4621600000000 1.0
C      1  0.5016940000000  0.5609380000000  0.5406090000000 1.0
C      1  0.4995780000000  0.5589780000000  0.4605320000000 1.0
C      1  0.4712250000000  0.4797060000000  0.4939630000000 1.0
C      1  0.5271410000000  0.4796550000000  0.5025070000000 1.0
C      1  0.4996800000000  0.4270190000000  0.4855000000000 1.0
C      1  0.4994960000000  0.4279470000000  0.5154710000000 1.0
C      1  0.5554690000000  0.4848770000000  0.4651320000000 1.0
C      1  0.4460580000000  0.4860080000000  0.5339110000000 1.0
C      1  0.5475670000000  0.4275440000000  0.5123530000000 1.0
C      1  0.4515760000000  0.4270220000000  0.4884030000000 1.0
C      1  0.5235480000000  0.4659800000000  0.5311270000000 1.0
C      1  0.4755840000000  0.4648650000000  0.4676520000000 1.0
C      1  0.4988950000000  0.5003640000000  0.5497980000000 1.0
C      1  0.5009340000000  0.4979070000000  0.4462450000000 1.0
END
