TITL C-38192-7909-318 3.03068997659655e-05 125000 -357.506721697929 0 0 60 (C1) n - 1
REM
REM in /home/bkarasulu/CARBON/AIRSS/Generating-Clusters/EDIP-Nigel-Params/Higher-Symm/Box-15A/Only-C60/SD-CG/FIRE-HFTN
REM
REM
REM
REM
REM
REM ./C.cell (414f73aa93bd7a1190c7fd0f31ff2f98)
REM
REM compiler GCC version 9.2.1 20190827 (Red Hat 9.2.1-1)
REM options -cpp -mtune=generic -march=x86-64 -g -O0 -fpre-include=/usr/include/finclude/math-vector-fortran.h
REM seed -1592038737 673056213 391277290 -407582338 2101044464 -998023672 -885949719 -1117683623 -1528340011 -1830230819 1908670193 -835075398 1446342428 -27854048 -433867923 1329608654 -910592555 299443324 -1770132814 -1316924584 -1565979701 -1731737073 -713328570 -1286450390 -66953413 -311388269 1908050636 -1273732785 -1819480950 -592991433 -1708532237 1868667834 -514568134
REM
CELL 1.54180   50.00000   50.00000   50.00000   90.00000   90.00000   90.00000
LATT -1
SFAC C  
C      1  0.4868650000000  0.4907370000000  0.4409920000000 1.0
C      1  0.5215580000000  0.4879040000000  0.5010590000000 1.0
C      1  0.4739440000000  0.4933050000000  0.4981220000000 1.0
C      1  0.4813660000000  0.4713460000000  0.5419160000000 1.0
C      1  0.5020660000000  0.5567510000000  0.4497170000000 1.0
C      1  0.5496580000000  0.5196270000000  0.5316040000000 1.0
C      1  0.5474900000000  0.4712200000000  0.4976490000000 1.0
C      1  0.5066000000000  0.4972280000000  0.5670170000000 1.0
C      1  0.5164650000000  0.4393550000000  0.5223730000000 1.0
C      1  0.4769640000000  0.5673820000000  0.4849330000000 1.0
C      1  0.4449890000000  0.5161900000000  0.5354750000000 1.0
C      1  0.5361730000000  0.5036270000000  0.5713120000000 1.0
C      1  0.5083470000000  0.4671150000000  0.4404890000000 1.0
C      1  0.5498910000000  0.4660170000000  0.4669610000000 1.0
C      1  0.5069700000000  0.4438120000000  0.4590500000000 1.0
C      1  0.5348380000000  0.4394460000000  0.4708870000000 1.0
C      1  0.5348460000000  0.4346570000000  0.5004150000000 1.0
C      1  0.5710730000000  0.4879870000000  0.5069170000000 1.0
C      1  0.5269980000000  0.4602540000000  0.5416870000000 1.0
C      1  0.4732610000000  0.5493040000000  0.5271730000000 1.0
C      1  0.4866580000000  0.4484030000000  0.4791680000000 1.0
C      1  0.4875060000000  0.4336240000000  0.5200660000000 1.0
C      1  0.4608820000000  0.4825590000000  0.4308100000000 1.0
C      1  0.4899960000000  0.5640200000000  0.5097360000000 1.0
C      1  0.4487910000000  0.4903050000000  0.5179570000000 1.0
C      1  0.5663780000000  0.4948490000000  0.5356040000000 1.0
C      1  0.5449260000000  0.5549670000000  0.5023670000000 1.0
C      1  0.4630310000000  0.5196460000000  0.5597960000000 1.0
C      1  0.4963490000000  0.5387780000000  0.4300050000000 1.0
C      1  0.4500760000000  0.5373640000000  0.4555040000000 1.0
C      1  0.4304280000000  0.5269840000000  0.4719530000000 1.0
C      1  0.5482160000000  0.4797090000000  0.5539090000000 1.0
C      1  0.4419240000000  0.4520910000000  0.4944530000000 1.0
C      1  0.4588770000000  0.4490200000000  0.4705050000000 1.0
C      1  0.4258620000000  0.5001670000000  0.4772810000000 1.0
C      1  0.5209040000000  0.5383380000000  0.4940390000000 1.0
C      1  0.5011590000000  0.5107530000000  0.5388890000000 1.0
C      1  0.5029960000000  0.5119480000000  0.4246530000000 1.0
C      1  0.4473750000000  0.5403320000000  0.5208240000000 1.0
C      1  0.4275210000000  0.4817020000000  0.4983450000000 1.0
C      1  0.4532560000000  0.4652510000000  0.5354070000000 1.0
C      1  0.4875310000000  0.5357900000000  0.5486440000000 1.0
C      1  0.5158410000000  0.4990310000000  0.4750360000000 1.0
C      1  0.4584840000000  0.4413190000000  0.5189800000000 1.0
C      1  0.5406090000000  0.5306490000000  0.4472690000000 1.0
C      1  0.4531360000000  0.5582810000000  0.4734620000000 1.0
C      1  0.5653020000000  0.5356180000000  0.5117280000000 1.0
C      1  0.5174420000000  0.5502800000000  0.5502480000000 1.0
C      1  0.5240880000000  0.5462730000000  0.4639130000000 1.0
C      1  0.5746110000000  0.5140260000000  0.4946290000000 1.0
C      1  0.5192070000000  0.5648040000000  0.5223270000000 1.0
C      1  0.4946360000000  0.4736320000000  0.5060760000000 1.0
C      1  0.5300900000000  0.4845890000000  0.4525450000000 1.0
C      1  0.5229250000000  0.5132110000000  0.5174860000000 1.0
C      1  0.5322170000000  0.5079400000000  0.4328320000000 1.0
C      1  0.5061060000000  0.4669850000000  0.5599860000000 1.0
C      1  0.4519430000000  0.4635590000000  0.4476810000000 1.0
C      1  0.5413900000000  0.5319640000000  0.5579420000000 1.0
C      1  0.4746980000000  0.4957170000000  0.5707800000000 1.0
C      1  0.4862720000000  0.5022570000000  0.4714160000000 1.0
END
