TITL C-38197-8510-483 1.31812523906067e-05 125000 -360.986017507175 0 0 60 (C1) n - 1
REM
REM in /home/bkarasulu/CARBON/AIRSS/Generating-Clusters/EDIP-Nigel-Params/Higher-Symm/Box-15A/Only-C60/SD-CG/FIRE-HFTN
REM
REM
REM
REM
REM
REM ./C.cell (414f73aa93bd7a1190c7fd0f31ff2f98)
REM
REM compiler GCC version 9.2.1 20190827 (Red Hat 9.2.1-1)
REM options -cpp -mtune=generic -march=x86-64 -g -O0 -fpre-include=/usr/include/finclude/math-vector-fortran.h
REM seed -1042462713 97236028 656610273 -159444571 305015112 582620293 32066492 -1990810293 -1034660912 -362417106 519155687 -1950507237 -687811287 -360111992 -852759991 1149766176 1426343956 -1585292685 -672104945 -2047052228 -1297490120 -2022957877 -1703864353 -744979643 218166674 -408835812 -418822311 -670891130 -900016295 -132298850 1783292107 -231228880 -116758678
REM
CELL 1.54180   50.00000   50.00000   50.00000   90.00000   90.00000   90.00000
LATT -1
SFAC C  
C      1  0.5422520000000  0.4587970000000  0.5007510000000 1.0
C      1  0.4974410000000  0.5678270000000  0.5275780000000 1.0
C      1  0.5110260000000  0.5246740000000  0.5665360000000 1.0
C      1  0.5154620000000  0.5498200000000  0.5378940000000 1.0
C      1  0.4968420000000  0.4775370000000  0.4959310000000 1.0
C      1  0.5515730000000  0.4678070000000  0.5554230000000 1.0
C      1  0.5558530000000  0.5492030000000  0.4277570000000 1.0
C      1  0.5703180000000  0.4650830000000  0.4909940000000 1.0
C      1  0.4843490000000  0.4896720000000  0.4470220000000 1.0
C      1  0.5380620000000  0.5500130000000  0.4500600000000 1.0
C      1  0.5240010000000  0.4771710000000  0.4856960000000 1.0
C      1  0.4801810000000  0.5280570000000  0.5259670000000 1.0
C      1  0.4855500000000  0.5255870000000  0.4935100000000 1.0
C      1  0.5425610000000  0.4501420000000  0.4475600000000 1.0
C      1  0.4192720000000  0.4835720000000  0.5053780000000 1.0
C      1  0.5248040000000  0.5029150000000  0.5795210000000 1.0
C      1  0.5106520000000  0.4750000000000  0.5381240000000 1.0
C      1  0.5208660000000  0.5526150000000  0.4735060000000 1.0
C      1  0.5361810000000  0.4770200000000  0.4429090000000 1.0
C      1  0.5367640000000  0.4649670000000  0.5305990000000 1.0
C      1  0.5849080000000  0.5007650000000  0.4937830000000 1.0
C      1  0.5368600000000  0.5040600000000  0.4844610000000 1.0
C      1  0.4510690000000  0.5349350000000  0.5266750000000 1.0
C      1  0.4934220000000  0.4915790000000  0.5214400000000 1.0
C      1  0.4419010000000  0.5393560000000  0.4611440000000 1.0
C      1  0.4554890000000  0.4578400000000  0.4769750000000 1.0
C      1  0.5589490000000  0.5059390000000  0.5046880000000 1.0
C      1  0.5772790000000  0.4856550000000  0.4696880000000 1.0
C      1  0.4384730000000  0.5144290000000  0.4746520000000 1.0
C      1  0.4382440000000  0.4617170000000  0.5013410000000 1.0
C      1  0.5181830000000  0.5292500000000  0.4913970000000 1.0
C      1  0.4430510000000  0.4930290000000  0.5511500000000 1.0
C      1  0.5306460000000  0.5373900000000  0.5176060000000 1.0
C      1  0.4682710000000  0.4304120000000  0.5239760000000 1.0
C      1  0.4330290000000  0.5111470000000  0.5290750000000 1.0
C      1  0.4632090000000  0.5049360000000  0.4869940000000 1.0
C      1  0.4763300000000  0.5152690000000  0.4392280000000 1.0
C      1  0.5093340000000  0.4819280000000  0.4383660000000 1.0
C      1  0.5048250000000  0.5758510000000  0.4800040000000 1.0
C      1  0.4470480000000  0.4486230000000  0.5257530000000 1.0
C      1  0.5509340000000  0.4913800000000  0.5717650000000 1.0
C      1  0.5095020000000  0.4216090000000  0.5005940000000 1.0
C      1  0.4766730000000  0.5491310000000  0.4763000000000 1.0
C      1  0.4449690000000  0.5582120000000  0.5125730000000 1.0
C      1  0.4178540000000  0.5089810000000  0.4934120000000 1.0
C      1  0.4605880000000  0.5774860000000  0.5009850000000 1.0
C      1  0.5545050000000  0.5251310000000  0.4430600000000 1.0
C      1  0.5395640000000  0.4294360000000  0.4646320000000 1.0
C      1  0.4816930000000  0.4225090000000  0.5008200000000 1.0
C      1  0.5342530000000  0.4311090000000  0.4919420000000 1.0
C      1  0.4851050000000  0.5193600000000  0.5549400000000 1.0
C      1  0.5517470000000  0.4984410000000  0.4579350000000 1.0
C      1  0.4420450000000  0.4652150000000  0.5476240000000 1.0
C      1  0.4650660000000  0.5027610000000  0.5654660000000 1.0
C      1  0.5548910000000  0.5253210000000  0.5242080000000 1.0
C      1  0.4675820000000  0.5405330000000  0.4475950000000 1.0
C      1  0.4888080000000  0.5808730000000  0.5043010000000 1.0
C      1  0.4692700000000  0.4332900000000  0.4783070000000 1.0
C      1  0.5153220000000  0.4764700000000  0.5675600000000 1.0
C      1  0.4750980000000  0.4811630000000  0.4748680000000 1.0
END
