TITL C-38199-1586-197 -4.74557286582798e-08 125000 -363.775300684671 0 0 60 (C1) n - 1
REM
REM in /home/bkarasulu/CARBON/AIRSS/Generating-Clusters/EDIP-Nigel-Params/Higher-Symm/Box-15A/Only-C60/SD-CG/FIRE-HFTN
REM
REM
REM
REM
REM
REM ./C.cell (414f73aa93bd7a1190c7fd0f31ff2f98)
REM
REM compiler GCC version 9.2.1 20190827 (Red Hat 9.2.1-1)
REM options -cpp -mtune=generic -march=x86-64 -g -O0 -fpre-include=/usr/include/finclude/math-vector-fortran.h
REM seed 1630717944 -42318360 849941143 -792635060 2074474777 -151804073 -403999104 -1078702188 -1979143223 -434755012 413015273 -191313754 -248424289 -1042437631 -1882326690 -1064918375 -1319181775 224550667 330493653 1744726927 -1623263147 -1167967335 -554230339 -726168073 -573069552 -1129147884 542173011 599359298 1492408883 231314527 1580095728 -51586866 14940845
REM
CELL 1.54180   50.00000   50.00000   50.00000   90.00000   90.00000   90.00000
LATT -1
SFAC C  
C      1  0.4593530000000  0.5198610000000  0.5599610000000 1.0
C      1  0.5586180000000  0.4605600000000  0.5184000000000 1.0
C      1  0.5150780000000  0.5609280000000  0.4666200000000 1.0
C      1  0.4669460000000  0.4856960000000  0.4403920000000 1.0
C      1  0.5389190000000  0.4833800000000  0.5586280000000 1.0
C      1  0.5337070000000  0.5201770000000  0.4391390000000 1.0
C      1  0.5599800000000  0.5417570000000  0.4787840000000 1.0
C      1  0.4411040000000  0.5321080000000  0.5146360000000 1.0
C      1  0.4391630000000  0.4660630000000  0.4798300000000 1.0
C      1  0.5178800000000  0.4417330000000  0.5400370000000 1.0
C      1  0.4792550000000  0.4403170000000  0.4580300000000 1.0
C      1  0.4816320000000  0.5581690000000  0.5337910000000 1.0
C      1  0.4440790000000  0.5139650000000  0.4745090000000 1.0
C      1  0.4746860000000  0.4346990000000  0.5170820000000 1.0
C      1  0.5158050000000  0.4733190000000  0.4431430000000 1.0
C      1  0.4427090000000  0.4832420000000  0.5266920000000 1.0
C      1  0.5648860000000  0.4824980000000  0.4744650000000 1.0
C      1  0.5656140000000  0.5180120000000  0.5181680000000 1.0
C      1  0.4757190000000  0.5547900000000  0.4856620000000 1.0
C      1  0.5276370000000  0.5563850000000  0.5162600000000 1.0
C      1  0.5190530000000  0.4349250000000  0.4820520000000 1.0
C      1  0.5138240000000  0.5266220000000  0.5646970000000 1.0
C      1  0.4862270000000  0.5250410000000  0.4455830000000 1.0
C      1  0.4812590000000  0.4815330000000  0.5641610000000 1.0
C      1  0.4246330000000  0.5243280000000  0.4921880000000 1.0
C      1  0.4940230000000  0.4285530000000  0.5352880000000 1.0
C      1  0.5246510000000  0.4955610000000  0.4279000000000 1.0
C      1  0.4273340000000  0.4747610000000  0.5043590000000 1.0
C      1  0.5716200000000  0.4651410000000  0.4943940000000 1.0
C      1  0.5769760000000  0.5357950000000  0.5004210000000 1.0
C      1  0.4919240000000  0.5756830000000  0.4756760000000 1.0
C      1  0.5058400000000  0.5713690000000  0.5266340000000 1.0
C      1  0.5013240000000  0.4239000000000  0.4640550000000 1.0
C      1  0.5328160000000  0.5077110000000  0.5705520000000 1.0
C      1  0.4752100000000  0.5088020000000  0.4251930000000 1.0
C      1  0.4648580000000  0.4990090000000  0.5779710000000 1.0
C      1  0.4707750000000  0.4845370000000  0.5151640000000 1.0
C      1  0.5091340000000  0.4608600000000  0.4918260000000 1.0
C      1  0.4926010000000  0.5070710000000  0.4699440000000 1.0
C      1  0.4686720000000  0.5059220000000  0.4917460000000 1.0
C      1  0.5395180000000  0.5079510000000  0.5088370000000 1.0
C      1  0.5411070000000  0.4973570000000  0.4803230000000 1.0
C      1  0.5167570000000  0.5283260000000  0.5140790000000 1.0
C      1  0.4947070000000  0.5308340000000  0.4918260000000 1.0
C      1  0.4803640000000  0.4584860000000  0.5021960000000 1.0
C      1  0.4913400000000  0.4906740000000  0.5377570000000 1.0
C      1  0.5147440000000  0.4840130000000  0.4714260000000 1.0
C      1  0.5018180000000  0.5191870000000  0.5388930000000 1.0
C      1  0.5372100000000  0.5595030000000  0.4866710000000 1.0
C      1  0.4789460000000  0.5429100000000  0.5593810000000 1.0
C      1  0.5564190000000  0.4846950000000  0.5350340000000 1.0
C      1  0.5345300000000  0.4440410000000  0.5160770000000 1.0
C      1  0.4616460000000  0.4461440000000  0.4821650000000 1.0
C      1  0.4622980000000  0.5535810000000  0.5122070000000 1.0
C      1  0.4866020000000  0.4634910000000  0.4406850000000 1.0
C      1  0.5153360000000  0.4660950000000  0.5561760000000 1.0
C      1  0.5120740000000  0.5401390000000  0.4439470000000 1.0
C      1  0.5535230000000  0.5174670000000  0.4615330000000 1.0
C      1  0.4418930000000  0.5125920000000  0.5367990000000 1.0
C      1  0.4436410000000  0.4877340000000  0.4599590000000 1.0
END
