TITL C-38185-7677-120 -2.04845851006316e-05 125000 -364.608312591087 0 0 60 (C5) n - 1
REM
REM in /home/bkarasulu/CARBON/AIRSS/Generating-Clusters/EDIP-Nigel-Params/Higher-Symm/Box-15A/Only-C60/SD-CG/FIRE-HFTN
REM
REM
REM
REM
REM
REM ./C.cell (414f73aa93bd7a1190c7fd0f31ff2f98)
REM
REM compiler GCC version 9.2.1 20190827 (Red Hat 9.2.1-1)
REM options -cpp -mtune=generic -march=x86-64 -g -O0 -fpre-include=/usr/include/finclude/math-vector-fortran.h
REM seed 1834900190 1192236400 -231202786 -437543502 -251145085 1977477972 1005488006 -817524187 1577144981 -196264704 20607690 -1165949170 -1731260327 -457304008 -933684740 1989095458 -552549556 -828738889 -1161915013 -2033032624 -1365148917 1741809912 72397838 -2016109858 757414968 2144212019 -473338993 -1516420850 1966346120 -311603989 378332980 819600900 648967621
REM
CELL 1.54180   50.00000   50.00000   50.00000   90.00000   90.00000   90.00000
LATT -1
SFAC C  
C      1  0.5807640000000  0.5135650000000  0.5203050000000 1.0
C      1  0.5807640000000  0.4848800000000  0.5191750000000 1.0
C      1  0.5807640000000  0.4770910000000  0.4915460000000 1.0
C      1  0.5807640000000  0.5009610000000  0.4756000000000 1.0
C      1  0.5807640000000  0.5235030000000  0.4933740000000 1.0
C      1  0.4637090000000  0.4726460000000  0.4565050000000 1.0
C      1  0.4637090000000  0.5329130000000  0.4605440000000 1.0
C      1  0.4637090000000  0.5476960000000  0.5191090000000 1.0
C      1  0.4637090000000  0.4965650000000  0.5512660000000 1.0
C      1  0.4637090000000  0.4501810000000  0.5125750000000 1.0
C      1  0.5243430000000  0.4938090000000  0.4370550000000 1.0
C      1  0.5243430000000  0.5579520000000  0.4746610000000 1.0
C      1  0.5243430000000  0.5420070000000  0.5472850000000 1.0
C      1  0.5243430000000  0.4680100000000  0.5545630000000 1.0
C      1  0.5243430000000  0.4382220000000  0.4864370000000 1.0
C      1  0.5185470000000  0.5575890000000  0.5246040000000 1.0
C      1  0.5185470000000  0.4943970000000  0.5623730000000 1.0
C      1  0.5185470000000  0.4389480000000  0.5139450000000 1.0
C      1  0.5185470000000  0.4678710000000  0.4462450000000 1.0
C      1  0.5185470000000  0.5411950000000  0.4528330000000 1.0
C      1  0.4343490000000  0.4684510000000  0.4615390000000 1.0
C      1  0.4343490000000  0.5268290000000  0.4581100000000 1.0
C      1  0.4343490000000  0.5481300000000  0.5125720000000 1.0
C      1  0.4343490000000  0.5029170000000  0.5496590000000 1.0
C      1  0.4343490000000  0.4536730000000  0.5181200000000 1.0
C      1  0.4728420000000  0.4768190000000  0.5054270000000 1.0
C      1  0.4728420000000  0.4876750000000  0.4796300000000 1.0
C      1  0.4728420000000  0.5155640000000  0.4819830000000 1.0
C      1  0.4728420000000  0.5219440000000  0.5092350000000 1.0
C      1  0.4728420000000  0.4979980000000  0.5237240000000 1.0
C      1  0.5513220000000  0.4624650000000  0.5520260000000 1.0
C      1  0.5513220000000  0.4389210000000  0.4803790000000 1.0
C      1  0.5513220000000  0.4997860000000  0.4358470000000 1.0
C      1  0.5513220000000  0.5609470000000  0.4799720000000 1.0
C      1  0.5513220000000  0.5378810000000  0.5517750000000 1.0
C      1  0.4783950000000  0.4479820000000  0.5393230000000 1.0
C      1  0.4783950000000  0.4465270000000  0.4626800000000 1.0
C      1  0.4783950000000  0.5189700000000  0.4376120000000 1.0
C      1  0.4783950000000  0.5651970000000  0.4987620000000 1.0
C      1  0.4783950000000  0.5213240000000  0.5616230000000 1.0
C      1  0.5745610000000  0.5019090000000  0.4487560000000 1.0
C      1  0.5745610000000  0.5493260000000  0.4859810000000 1.0
C      1  0.5745610000000  0.5285760000000  0.5425790000000 1.0
C      1  0.5745610000000  0.4683350000000  0.5403350000000 1.0
C      1  0.5745610000000  0.4518540000000  0.4823490000000 1.0
C      1  0.4327280000000  0.4656320000000  0.5449730000000 1.0
C      1  0.4327280000000  0.4466080000000  0.4812120000000 1.0
C      1  0.4327280000000  0.5013700000000  0.4434150000000 1.0
C      1  0.4327280000000  0.5542380000000  0.4838170000000 1.0
C      1  0.4327280000000  0.5321510000000  0.5465830000000 1.0
C      1  0.4611620000000  0.4346550000000  0.4847390000000 1.0
C      1  0.4611620000000  0.4943220000000  0.4331370000000 1.0
C      1  0.4611620000000  0.5618360000000  0.4739380000000 1.0
C      1  0.4611620000000  0.5438950000000  0.5507560000000 1.0
C      1  0.4611620000000  0.4652930000000  0.5574310000000 1.0
C      1  0.5072800000000  0.5579760000000  0.4987310000000 1.0
C      1  0.5072800000000  0.5191220000000  0.5547470000000 1.0
C      1  0.5072800000000  0.4538420000000  0.5351040000000 1.0
C      1  0.5072800000000  0.4523500000000  0.4669490000000 1.0
C      1  0.5072800000000  0.5167090000000  0.4444690000000 1.0
END
