TITL C-38191-7580-333 5.67420737109878e-06 125000 -354.969789502308 0 0 60 (C1) n - 1
REM
REM in /home/bkarasulu/CARBON/AIRSS/Generating-Clusters/EDIP-Nigel-Params/Higher-Symm/Box-15A/Only-C60/SD-CG/FIRE-HFTN
REM
REM
REM
REM
REM
REM ./C.cell (414f73aa93bd7a1190c7fd0f31ff2f98)
REM
REM compiler GCC version 9.2.1 20190827 (Red Hat 9.2.1-1)
REM options -cpp -mtune=generic -march=x86-64 -g -O0 -fpre-include=/usr/include/finclude/math-vector-fortran.h
REM seed 1721984087 -1504792056 -294015118 1134841524 -1183804527 -497407267 628328927 1369364901 838217599 -976820460 -124577740 -238488538 110623547 102286171 620703872 -976673467 168636680 1409572189 1024802231 8727365 297291233 -1880281818 500354757 -604587489 640544273 -894121782 -1692193227 -1542493889 1449698855 -938182890 1201317485 2117651756 -1724352647
REM
CELL 1.54180   50.00000   50.00000   50.00000   90.00000   90.00000   90.00000
LATT -1
SFAC C  
C      1  0.4611030000000  0.5459450000000  0.4368840000000 1.0
C      1  0.4604190000000  0.4292330000000  0.4928740000000 1.0
C      1  0.4609150000000  0.5248880000000  0.5584880000000 1.0
C      1  0.5402820000000  0.5370750000000  0.4444090000000 1.0
C      1  0.5417760000000  0.4375310000000  0.4941000000000 1.0
C      1  0.5410460000000  0.5318360000000  0.5697420000000 1.0
C      1  0.5507080000000  0.4853680000000  0.5635070000000 1.0
C      1  0.5481870000000  0.5553720000000  0.4883630000000 1.0
C      1  0.5492880000000  0.4576960000000  0.4513960000000 1.0
C      1  0.4497680000000  0.4783140000000  0.5608350000000 1.0
C      1  0.4531800000000  0.5584550000000  0.4820470000000 1.0
C      1  0.4536540000000  0.4618630000000  0.4580080000000 1.0
C      1  0.5440820000000  0.4580860000000  0.5658790000000 1.0
C      1  0.5439250000000  0.5745270000000  0.5084830000000 1.0
C      1  0.5387760000000  0.4645350000000  0.4259510000000 1.0
C      1  0.4569740000000  0.4512730000000  0.5648810000000 1.0
C      1  0.4573130000000  0.5741990000000  0.5048430000000 1.0
C      1  0.4547760000000  0.4722520000000  0.4318340000000 1.0
C      1  0.5195540000000  0.4443390000000  0.5612480000000 1.0
C      1  0.5193490000000  0.5808710000000  0.5213450000000 1.0
C      1  0.5155270000000  0.4762180000000  0.4140170000000 1.0
C      1  0.4820690000000  0.4380480000000  0.5618020000000 1.0
C      1  0.4813870000000  0.5794870000000  0.5188670000000 1.0
C      1  0.4775210000000  0.4782970000000  0.4156910000000 1.0
C      1  0.5321080000000  0.5393180000000  0.5195970000000 1.0
C      1  0.5271500000000  0.4891130000000  0.4539200000000 1.0
C      1  0.5343070000000  0.4721560000000  0.5311740000000 1.0
C      1  0.4701180000000  0.5379160000000  0.5100570000000 1.0
C      1  0.4615450000000  0.4997620000000  0.4575860000000 1.0
C      1  0.4667580000000  0.4632550000000  0.5293890000000 1.0
C      1  0.5167340000000  0.5155460000000  0.5087090000000 1.0
C      1  0.5045560000000  0.4829390000000  0.4699880000000 1.0
C      1  0.5127870000000  0.4927740000000  0.5273210000000 1.0
C      1  0.4906420000000  0.5215170000000  0.4944820000000 1.0
C      1  0.4824120000000  0.4975110000000  0.4790000000000 1.0
C      1  0.4867770000000  0.4828690000000  0.5264080000000 1.0
C      1  0.4713570000000  0.5199730000000  0.4374830000000 1.0
C      1  0.4752330000000  0.4395420000000  0.5141860000000 1.0
C      1  0.4756650000000  0.5391680000000  0.5396120000000 1.0
C      1  0.5234610000000  0.5151930000000  0.4405690000000 1.0
C      1  0.5274590000000  0.4470230000000  0.5159910000000 1.0
C      1  0.5259760000000  0.5422820000000  0.5485840000000 1.0
C      1  0.5159500000000  0.5747450000000  0.4588210000000 1.0
C      1  0.5144240000000  0.4262110000000  0.4574390000000 1.0
C      1  0.5128740000000  0.4992890000000  0.5889900000000 1.0
C      1  0.4894660000000  0.5772650000000  0.4573190000000 1.0
C      1  0.4879320000000  0.4282360000000  0.4550240000000 1.0
C      1  0.4864850000000  0.4966120000000  0.5860940000000 1.0
C      1  0.5378260000000  0.5583000000000  0.4620670000000 1.0
C      1  0.5384780000000  0.4362670000000  0.4666370000000 1.0
C      1  0.5377640000000  0.5056910000000  0.5787240000000 1.0
C      1  0.4649490000000  0.5646310000000  0.4569490000000 1.0
C      1  0.4642480000000  0.4366850000000  0.4663570000000 1.0
C      1  0.4629780000000  0.5008980000000  0.5722080000000 1.0
C      1  0.4844130000000  0.5666760000000  0.5447390000000 1.0
C      1  0.4832490000000  0.5068570000000  0.4137510000000 1.0
C      1  0.4880530000000  0.4247910000000  0.5361500000000 1.0
C      1  0.5138730000000  0.5688370000000  0.5475830000000 1.0
C      1  0.5129440000000  0.5054130000000  0.4149680000000 1.0
C      1  0.5174710000000  0.4290330000000  0.5366280000000 1.0
END
