TITL C-38197-8510-634 4.36614481019581e-05 125000 -360.398237549313 0 0 60 (C1) n - 1
REM
REM in /home/bkarasulu/CARBON/AIRSS/Generating-Clusters/EDIP-Nigel-Params/Higher-Symm/Box-15A/Only-C60/SD-CG/FIRE-HFTN
REM
REM
REM
REM
REM
REM ./C.cell (414f73aa93bd7a1190c7fd0f31ff2f98)
REM
REM compiler GCC version 9.2.1 20190827 (Red Hat 9.2.1-1)
REM options -cpp -mtune=generic -march=x86-64 -g -O0 -fpre-include=/usr/include/finclude/math-vector-fortran.h
REM seed 720969657 -1507685694 822183442 -1988423164 281892962 1456851577 509543518 1442348434 197337419 -1115682864 -1114813445 843171639 -2132038341 277307071 -894970226 130477557 -505949712 -1725922106 695138569 -1496774481 2015035044 -1458315115 157019200 287832024 2035715678 173047329 -898245455 -1024139425 -311670013 1204685592 1846219440 -1258450148 -1919197155
REM
CELL 1.54180   50.00000   50.00000   50.00000   90.00000   90.00000   90.00000
LATT -1
SFAC C  
C      1  0.5070720000000  0.5137810000000  0.4892880000000 1.0
C      1  0.4460050000000  0.5233770000000  0.5209000000000 1.0
C      1  0.5301870000000  0.5209150000000  0.5662660000000 1.0
C      1  0.4971710000000  0.4221890000000  0.4670140000000 1.0
C      1  0.5167870000000  0.4962220000000  0.5702900000000 1.0
C      1  0.4939880000000  0.5777100000000  0.5154050000000 1.0
C      1  0.4539350000000  0.5506270000000  0.5133640000000 1.0
C      1  0.5093900000000  0.4620550000000  0.4243200000000 1.0
C      1  0.5025750000000  0.4757730000000  0.5005360000000 1.0
C      1  0.5719550000000  0.5250890000000  0.5210170000000 1.0
C      1  0.5150950000000  0.4480610000000  0.5476800000000 1.0
C      1  0.5446550000000  0.4793410000000  0.4500500000000 1.0
C      1  0.4732560000000  0.4921380000000  0.4301640000000 1.0
C      1  0.5273170000000  0.5482880000000  0.4718000000000 1.0
C      1  0.5579000000000  0.5015510000000  0.5152350000000 1.0
C      1  0.4663020000000  0.4341290000000  0.5013530000000 1.0
C      1  0.5216750000000  0.4353880000000  0.4663850000000 1.0
C      1  0.5077110000000  0.4894600000000  0.5258770000000 1.0
C      1  0.4475130000000  0.4685120000000  0.5308600000000 1.0
C      1  0.5016460000000  0.5547440000000  0.4605080000000 1.0
C      1  0.4965700000000  0.5358000000000  0.4385140000000 1.0
C      1  0.4973310000000  0.5338970000000  0.5350200000000 1.0
C      1  0.4665770000000  0.4472020000000  0.5259490000000 1.0
C      1  0.5206860000000  0.5228710000000  0.4301080000000 1.0
C      1  0.4873300000000  0.5008980000000  0.5675870000000 1.0
C      1  0.5217970000000  0.5677920000000  0.5202960000000 1.0
C      1  0.4653070000000  0.4535550000000  0.4583670000000 1.0
C      1  0.4457580000000  0.5149760000000  0.5489560000000 1.0
C      1  0.5376140000000  0.5563370000000  0.4981380000000 1.0
C      1  0.5545790000000  0.4538280000000  0.4966940000000 1.0
C      1  0.4337340000000  0.5050800000000  0.5019720000000 1.0
C      1  0.4808480000000  0.5677950000000  0.4740500000000 1.0
C      1  0.5242040000000  0.4593030000000  0.4479650000000 1.0
C      1  0.4800570000000  0.5510740000000  0.5533750000000 1.0
C      1  0.4349860000000  0.5106060000000  0.4746740000000 1.0
C      1  0.4596130000000  0.5566110000000  0.4868390000000 1.0
C      1  0.5370770000000  0.4313400000000  0.4913700000000 1.0
C      1  0.4699180000000  0.5684310000000  0.5308870000000 1.0
C      1  0.5615690000000  0.5449760000000  0.5062210000000 1.0
C      1  0.4721540000000  0.4319470000000  0.4742260000000 1.0
C      1  0.5382460000000  0.5283690000000  0.4521840000000 1.0
C      1  0.4620820000000  0.5161350000000  0.4695500000000 1.0
C      1  0.5309130000000  0.4725630000000  0.4883790000000 1.0
C      1  0.5502480000000  0.5040280000000  0.4640270000000 1.0
C      1  0.5530850000000  0.4800940000000  0.5367840000000 1.0
C      1  0.4959820000000  0.5416430000000  0.5025440000000 1.0
C      1  0.5245900000000  0.5387360000000  0.5454860000000 1.0
C      1  0.4826030000000  0.4944230000000  0.4784710000000 1.0
C      1  0.5384180000000  0.5013870000000  0.4911540000000 1.0
C      1  0.4627400000000  0.5309830000000  0.5660350000000 1.0
C      1  0.4317680000000  0.4783850000000  0.5100720000000 1.0
C      1  0.4876800000000  0.5057430000000  0.5381400000000 1.0
C      1  0.5333230000000  0.4344360000000  0.5300420000000 1.0
C      1  0.4833960000000  0.4752050000000  0.4534110000000 1.0
C      1  0.5236720000000  0.4773310000000  0.5468940000000 1.0
C      1  0.4961520000000  0.4846270000000  0.4153570000000 1.0
C      1  0.4704530000000  0.5200960000000  0.4406750000000 1.0
C      1  0.4878870000000  0.4431000000000  0.5434750000000 1.0
C      1  0.5566350000000  0.4521450000000  0.5255740000000 1.0
C      1  0.4502830000000  0.4869010000000  0.5522260000000 1.0
END
