TITL C-38187-2739-247 8.47459386332937e-06 125000 -350.639017372372 0 0 60 (D5) n - 1
REM
REM in /home/bkarasulu/CARBON/AIRSS/Generating-Clusters/EDIP-Nigel-Params/Higher-Symm/Box-15A/Only-C60/SD-CG/FIRE-HFTN
REM
REM
REM
REM
REM
REM ./C.cell (414f73aa93bd7a1190c7fd0f31ff2f98)
REM
REM compiler GCC version 9.2.1 20190827 (Red Hat 9.2.1-1)
REM options -cpp -mtune=generic -march=x86-64 -g -O0 -fpre-include=/usr/include/finclude/math-vector-fortran.h
REM seed 1298951143 2111689629 -466376015 -2068567424 -342461501 972586649 -1367623145 448179907 1058746815 2047859424 -86254230 -126723910 1597085094 1827558489 647615855 1776230536 -1952036638 -2146849037 14011181 -1751761107 -89980608 559944043 2042762036 642659151 -1475127189 163570823 1344468192 -606312998 592355291 1013161050 -1835974990 1869510754 632493002
REM
CELL 1.54180   50.00000   50.00000   50.00000   90.00000   90.00000   90.00000
LATT -1
SFAC C  
C      1  0.4340740000000  0.5215320000000  0.4884010000000 1.0
C      1  0.4340740000000  0.5176850000000  0.5168930000000 1.0
C      1  0.4340740000000  0.4893980000000  0.5220400000000 1.0
C      1  0.4340740000000  0.4757630000000  0.4967280000000 1.0
C      1  0.4340740000000  0.4956220000000  0.4759380000000 1.0
C      1  0.5659260000000  0.4784680000000  0.4884010000000 1.0
C      1  0.5659260000000  0.4823150000000  0.5168930000000 1.0
C      1  0.5659260000000  0.5106020000000  0.5220400000000 1.0
C      1  0.5659260000000  0.5242370000000  0.4967280000000 1.0
C      1  0.5659260000000  0.5043780000000  0.4759380000000 1.0
C      1  0.5375400000000  0.5021990000000  0.4344230000000 1.0
C      1  0.5375400000000  0.5630470000000  0.4818270000000 1.0
C      1  0.5375400000000  0.5367660000000  0.5543460000000 1.0
C      1  0.5375400000000  0.4596760000000  0.5517610000000 1.0
C      1  0.5375400000000  0.4383120000000  0.4776440000000 1.0
C      1  0.4624600000000  0.4978010000000  0.4344230000000 1.0
C      1  0.4624600000000  0.4369530000000  0.4818270000000 1.0
C      1  0.4624600000000  0.4632340000000  0.5543460000000 1.0
C      1  0.4624600000000  0.5403240000000  0.5517610000000 1.0
C      1  0.4624600000000  0.5616880000000  0.4776440000000 1.0
C      1  0.4834870000000  0.4799400000000  0.4782360000000 1.0
C      1  0.4834870000000  0.5145000000000  0.4741960000000 1.0
C      1  0.4834870000000  0.5290220000000  0.5058170000000 1.0
C      1  0.4834870000000  0.5034360000000  0.5293990000000 1.0
C      1  0.4834870000000  0.4731020000000  0.5123530000000 1.0
C      1  0.5165130000000  0.5200600000000  0.4782360000000 1.0
C      1  0.5165130000000  0.4855000000000  0.4741960000000 1.0
C      1  0.5165130000000  0.4709780000000  0.5058170000000 1.0
C      1  0.5165130000000  0.4965640000000  0.5293990000000 1.0
C      1  0.5165130000000  0.5268980000000  0.5123530000000 1.0
C      1  0.4402450000000  0.4911820000000  0.4493280000000 1.0
C      1  0.4402450000000  0.5454670000000  0.4759550000000 1.0
C      1  0.4402450000000  0.5369180000000  0.5358110000000 1.0
C      1  0.4402450000000  0.4773500000000  0.5461770000000 1.0
C      1  0.4402450000000  0.4490840000000  0.4927280000000 1.0
C      1  0.5597550000000  0.5088180000000  0.4493280000000 1.0
C      1  0.5597550000000  0.4545330000000  0.4759550000000 1.0
C      1  0.5597550000000  0.4630820000000  0.5358110000000 1.0
C      1  0.5597550000000  0.5226500000000  0.5461770000000 1.0
C      1  0.5597550000000  0.5509160000000  0.4927280000000 1.0
C      1  0.5217510000000  0.4798390000000  0.4444510000000 1.0
C      1  0.5217510000000  0.5466000000000  0.4636600000000 1.0
C      1  0.5217510000000  0.5489610000000  0.5330900000000 1.0
C      1  0.5217510000000  0.4836600000000  0.5567900000000 1.0
C      1  0.5217510000000  0.4409400000000  0.5020080000000 1.0
C      1  0.4782490000000  0.5201610000000  0.4444510000000 1.0
C      1  0.4782490000000  0.4534000000000  0.4636600000000 1.0
C      1  0.4782490000000  0.4510390000000  0.5330900000000 1.0
C      1  0.4782490000000  0.5163400000000  0.5567900000000 1.0
C      1  0.4782490000000  0.5590600000000  0.5020080000000 1.0
C      1  0.5021520000000  0.4451320000000  0.5499120000000 1.0
C      1  0.5021520000000  0.4355760000000  0.4632410000000 1.0
C      1  0.5021520000000  0.5150520000000  0.4273700000000 1.0
C      1  0.5021520000000  0.5737270000000  0.4918710000000 1.0
C      1  0.5021520000000  0.5305130000000  0.5676060000000 1.0
C      1  0.4978480000000  0.5548680000000  0.5499120000000 1.0
C      1  0.4978480000000  0.5644240000000  0.4632410000000 1.0
C      1  0.4978480000000  0.4849480000000  0.4273700000000 1.0
C      1  0.4978480000000  0.4262730000000  0.4918710000000 1.0
C      1  0.4978480000000  0.4694870000000  0.5676060000000 1.0
END
