TITL C-38189-4514-608 1.25571338326332e-08 125000 -358.763036523505 0 0 60 (C4v) n - 1
REM
REM in /home/bkarasulu/CARBON/AIRSS/Generating-Clusters/EDIP-Nigel-Params/Higher-Symm/Box-15A/Only-C60/SD-CG/FIRE-HFTN
REM
REM
REM
REM
REM
REM ./C.cell (414f73aa93bd7a1190c7fd0f31ff2f98)
REM
REM compiler GCC version 9.2.1 20190827 (Red Hat 9.2.1-1)
REM options -cpp -mtune=generic -march=x86-64 -g -O0 -fpre-include=/usr/include/finclude/math-vector-fortran.h
REM seed -2130874088 1681681743 -1256264474 -1027453514 669950223 -1561296501 -1320677090 -1275464727 -436726072 -560581124 -1609061692 -1160225203 1429858995 670404513 2144269855 127049587 -899579586 -376840644 -1083317484 723511553 -995912654 1779167461 2060077860 2090950519 -271546407 1437350902 473358337 -1790632769 -809452200 179396401 414469462 -293407079 -1711866013
REM
CELL 1.54180   50.00000   50.00000   50.00000   90.00000   90.00000   90.00000
LATT -1
SFAC C  
C      1  0.4628020000000  0.5260360000000  0.4401450000000 1.0
C      1  0.4516150000000  0.5049730000000  0.4264480000000 1.0
C      1  0.4562410000000  0.4787630000000  0.4264480000000 1.0
C      1  0.4739640000000  0.4628020000000  0.4401450000000 1.0
C      1  0.4950270000000  0.4516150000000  0.4264480000000 1.0
C      1  0.5212370000000  0.4562410000000  0.4264480000000 1.0
C      1  0.5371980000000  0.4739640000000  0.4401450000000 1.0
C      1  0.5483850000000  0.4950270000000  0.4264480000000 1.0
C      1  0.5437590000000  0.5212370000000  0.4264480000000 1.0
C      1  0.5260360000000  0.5371980000000  0.4401450000000 1.0
C      1  0.5049730000000  0.5483850000000  0.4264480000000 1.0
C      1  0.4787630000000  0.5437590000000  0.4264480000000 1.0
C      1  0.5525920000000  0.4939880000000  0.4843800000000 1.0
C      1  0.5473560000000  0.5236540000000  0.4843800000000 1.0
C      1  0.5244230000000  0.5348930000000  0.4690920000000 1.0
C      1  0.5060120000000  0.5525920000000  0.4843800000000 1.0
C      1  0.4763460000000  0.5473560000000  0.4843800000000 1.0
C      1  0.4651070000000  0.5244230000000  0.4690920000000 1.0
C      1  0.4474080000000  0.5060120000000  0.4843800000000 1.0
C      1  0.4526440000000  0.4763460000000  0.4843800000000 1.0
C      1  0.4755770000000  0.4651070000000  0.4690920000000 1.0
C      1  0.4939880000000  0.4474080000000  0.4843800000000 1.0
C      1  0.5236540000000  0.4526440000000  0.4843800000000 1.0
C      1  0.5348930000000  0.4755770000000  0.4690920000000 1.0
C      1  0.4442280000000  0.4203190000000  0.5299290000000 1.0
C      1  0.5012640000000  0.4154250000000  0.5198110000000 1.0
C      1  0.5277680000000  0.4201030000000  0.5198110000000 1.0
C      1  0.5796810000000  0.4442280000000  0.5299290000000 1.0
C      1  0.5845750000000  0.5012640000000  0.5198110000000 1.0
C      1  0.5798970000000  0.5277680000000  0.5198110000000 1.0
C      1  0.5557720000000  0.5796810000000  0.5299290000000 1.0
C      1  0.4987360000000  0.5845750000000  0.5198110000000 1.0
C      1  0.4722320000000  0.5798970000000  0.5198110000000 1.0
C      1  0.4203190000000  0.5557720000000  0.5299290000000 1.0
C      1  0.4154250000000  0.4987360000000  0.5198110000000 1.0
C      1  0.4201030000000  0.4722320000000  0.5198110000000 1.0
C      1  0.4557020000000  0.5310060000000  0.5482000000000 1.0
C      1  0.4518170000000  0.5050480000000  0.5567790000000 1.0
C      1  0.4564570000000  0.4787610000000  0.5567790000000 1.0
C      1  0.4689940000000  0.4557020000000  0.5482000000000 1.0
C      1  0.4949520000000  0.4518170000000  0.5567790000000 1.0
C      1  0.5212390000000  0.4564570000000  0.5567790000000 1.0
C      1  0.5442980000000  0.4689940000000  0.5482000000000 1.0
C      1  0.5481830000000  0.4949520000000  0.5567790000000 1.0
C      1  0.5435430000000  0.5212390000000  0.5567790000000 1.0
C      1  0.5310060000000  0.5442980000000  0.5482000000000 1.0
C      1  0.5050480000000  0.5481830000000  0.5567790000000 1.0
C      1  0.4787610000000  0.5435430000000  0.5567790000000 1.0
C      1  0.4612100000000  0.5574930000000  0.5073750000000 1.0
C      1  0.4419260000000  0.5406480000000  0.5230490000000 1.0
C      1  0.4327020000000  0.5167630000000  0.5073750000000 1.0
C      1  0.4425070000000  0.4612100000000  0.5073750000000 1.0
C      1  0.4593520000000  0.4419260000000  0.5230490000000 1.0
C      1  0.4832370000000  0.4327020000000  0.5073750000000 1.0
C      1  0.5387900000000  0.4425070000000  0.5073750000000 1.0
C      1  0.5580740000000  0.4593520000000  0.5230490000000 1.0
C      1  0.5672980000000  0.4832370000000  0.5073750000000 1.0
C      1  0.5574930000000  0.5387900000000  0.5073750000000 1.0
C      1  0.5406480000000  0.5580740000000  0.5230490000000 1.0
C      1  0.5167630000000  0.5672980000000  0.5073750000000 1.0
END
