TITL C-38196-2854-525 2.98482877588752e-07 125000 -370.489467317641 0 0 60 (Td) n - 1
REM
REM in /home/bkarasulu/CARBON/AIRSS/Generating-Clusters/EDIP-Nigel-Params/Higher-Symm/Box-15A/Only-C60/SD-CG/FIRE-HFTN
REM
REM
REM
REM
REM
REM ./C.cell (414f73aa93bd7a1190c7fd0f31ff2f98)
REM
REM compiler GCC version 9.2.1 20190827 (Red Hat 9.2.1-1)
REM options -cpp -mtune=generic -march=x86-64 -g -O0 -fpre-include=/usr/include/finclude/math-vector-fortran.h
REM seed 1805404602 1981873073 -1132045229 -1459313495 -814410863 441338878 -1028023589 1415359854 -1828975406 -1705376777 1432156396 -931454149 -26391944 587465365 1455575439 -1131416756 -523923746 1367622769 -907693399 -1275666700 -1976643141 -554734609 427547044 -1729529994 278414889 -1376753720 1393336865 -1264333677 -1368388838 -685434851 -1922011710 2078051458 -1033885341
REM
CELL 1.54180   50.00000   50.00000   50.00000   90.00000   90.00000   90.00000
LATT -1
SFAC C  
C      1  0.5692140000000  0.4702400000000  0.5297460000000 1.0
C      1  0.4702470000000  0.5297490000000  0.5692150000000 1.0
C      1  0.5297510000000  0.5692130000000  0.4702430000000 1.0
C      1  0.5691990000000  0.5297710000000  0.4702310000000 1.0
C      1  0.4307910000000  0.4702370000000  0.4702450000000 1.0
C      1  0.4307960000000  0.5297520000000  0.5297770000000 1.0
C      1  0.4702300000000  0.4702460000000  0.4307940000000 1.0
C      1  0.5297480000000  0.5297740000000  0.4307930000000 1.0
C      1  0.5297750000000  0.4702310000000  0.5691970000000 1.0
C      1  0.5297720000000  0.4307920000000  0.5297470000000 1.0
C      1  0.4702380000000  0.5692000000000  0.5297760000000 1.0
C      1  0.4702390000000  0.4307960000000  0.4702330000000 1.0
C      1  0.4245380000000  0.4830080000000  0.5358190000000 1.0
C      1  0.5169900000000  0.5358000000000  0.5754710000000 1.0
C      1  0.4641820000000  0.5754680000000  0.4830360000000 1.0
C      1  0.4245240000000  0.5169800000000  0.4642060000000 1.0
C      1  0.5754640000000  0.4830300000000  0.4641760000000 1.0
C      1  0.5754730000000  0.5169820000000  0.5357990000000 1.0
C      1  0.5169710000000  0.4642030000000  0.4245230000000 1.0
C      1  0.4830040000000  0.5358180000000  0.4245390000000 1.0
C      1  0.4830340000000  0.4641790000000  0.5754670000000 1.0
C      1  0.4642000000000  0.4245260000000  0.5169760000000 1.0
C      1  0.5358060000000  0.5754690000000  0.5169860000000 1.0
C      1  0.5358120000000  0.4245360000000  0.4830030000000 1.0
C      1  0.5440460000000  0.4932740000000  0.5641810000000 1.0
C      1  0.4932820000000  0.5641830000000  0.5440450000000 1.0
C      1  0.5641850000000  0.5440410000000  0.4932750000000 1.0
C      1  0.5440240000000  0.5067330000000  0.4358040000000 1.0
C      1  0.4559550000000  0.4932850000000  0.4358170000000 1.0
C      1  0.4559750000000  0.5067080000000  0.5641970000000 1.0
C      1  0.4932770000000  0.4358160000000  0.4559570000000 1.0
C      1  0.5067080000000  0.5641960000000  0.4559730000000 1.0
C      1  0.5067330000000  0.4358050000000  0.5440250000000 1.0
C      1  0.5641940000000  0.4559690000000  0.5067040000000 1.0
C      1  0.4358080000000  0.5440290000000  0.5067370000000 1.0
C      1  0.4358130000000  0.4559610000000  0.4932840000000 1.0
C      1  0.4642050000000  0.4830060000000  0.5754720000000 1.0
C      1  0.5169810000000  0.5754650000000  0.5358170000000 1.0
C      1  0.4245260000000  0.5358050000000  0.4830370000000 1.0
C      1  0.4641770000000  0.5169890000000  0.4245390000000 1.0
C      1  0.5357980000000  0.4830330000000  0.4245230000000 1.0
C      1  0.5358200000000  0.5169730000000  0.5754650000000 1.0
C      1  0.5169810000000  0.4245380000000  0.4641780000000 1.0
C      1  0.4830070000000  0.5754730000000  0.4642040000000 1.0
C      1  0.4830310000000  0.4245250000000  0.5358010000000 1.0
C      1  0.4245370000000  0.4641830000000  0.5169880000000 1.0
C      1  0.5754690000000  0.5358130000000  0.5169740000000 1.0
C      1  0.5754690000000  0.4641990000000  0.4830020000000 1.0
C      1  0.5067340000000  0.4559560000000  0.5641820000000 1.0
C      1  0.4559610000000  0.5641850000000  0.5067370000000 1.0
C      1  0.5067070000000  0.5440450000000  0.4358160000000 1.0
C      1  0.5440410000000  0.4358130000000  0.5067040000000 1.0
C      1  0.5641820000000  0.5067320000000  0.4559550000000 1.0
C      1  0.4932720000000  0.4559730000000  0.4358060000000 1.0
C      1  0.4932860000000  0.5440260000000  0.5641970000000 1.0
C      1  0.4559690000000  0.4358080000000  0.4932780000000 1.0
C      1  0.5440290000000  0.5641940000000  0.4932810000000 1.0
C      1  0.5641970000000  0.4932780000000  0.5440240000000 1.0
C      1  0.4358170000000  0.5067090000000  0.5440470000000 1.0
C      1  0.4358040000000  0.4932810000000  0.4559740000000 1.0
END
