TITL C-38184-643-526 5.36670113142548e-05 125000 -362.453663656345 0 0 60 (D3) n - 1
REM
REM in /home/bkarasulu/CARBON/AIRSS/Generating-Clusters/EDIP-Nigel-Params/Higher-Symm/Box-15A/Only-C60/SD-CG/FIRE-HFTN
REM
REM
REM
REM
REM
REM ./C.cell (414f73aa93bd7a1190c7fd0f31ff2f98)
REM
REM compiler GCC version 9.2.1 20190827 (Red Hat 9.2.1-1)
REM options -cpp -mtune=generic -march=x86-64 -g -O0 -fpre-include=/usr/include/finclude/math-vector-fortran.h
REM seed -1907574853 939233499 2138723778 532528367 876698934 -141993624 -709456591 629124934 823146276 915998254 -1475063555 937145257 1370078072 -520574254 -1492505842 -2015517165 293830371 -236007877 -1287604966 -1786105345 167835432 853608008 -846858335 39874121 1808175753 2010108622 1608923124 1637306255 457725700 180067759 1451664603 1545533882 -1316591690
REM
CELL 1.54180   50.00000   50.00000   50.00000   90.00000   90.00000   90.00000
LATT -1
SFAC C  
C      1  0.5427150000000  0.5428210000000  0.4637200000000 1.0
C      1  0.5527220000000  0.5420730000000  0.5188530000000 1.0
C      1  0.5100610000000  0.5428210000000  0.5551320000000 1.0
C      1  0.4573110000000  0.5420730000000  0.5362320000000 1.0
C      1  0.4472230000000  0.5428210000000  0.4811470000000 1.0
C      1  0.4899660000000  0.5420730000000  0.4449150000000 1.0
C      1  0.5335550000000  0.4579270000000  0.4551760000000 1.0
C      1  0.5556440000000  0.4571790000000  0.5066720000000 1.0
C      1  0.5220410000000  0.4579270000000  0.5514710000000 1.0
C      1  0.4664000000000  0.4571790000000  0.5448530000000 1.0
C      1  0.4444040000000  0.4579270000000  0.4933530000000 1.0
C      1  0.4779560000000  0.4571790000000  0.4484750000000 1.0
C      1  0.5746520000000  0.4816930000000  0.4516030000000 1.0
C      1  0.5773100000000  0.4794790000000  0.5424480000000 1.0
C      1  0.5045870000000  0.4816930000000  0.5888490000000 1.0
C      1  0.4245840000000  0.4794790000000  0.5457280000000 1.0
C      1  0.4207610000000  0.4816930000000  0.4595480000000 1.0
C      1  0.4981070000000  0.4794790000000  0.4118240000000 1.0
C      1  0.5740630000000  0.5089490000000  0.4524130000000 1.0
C      1  0.5749340000000  0.5068330000000  0.5423730000000 1.0
C      1  0.5041800000000  0.5089480000000  0.5879340000000 1.0
C      1  0.4258370000000  0.5068330000000  0.5437080000000 1.0
C      1  0.4217570000000  0.5089480000000  0.4596530000000 1.0
C      1  0.4992300000000  0.5068330000000  0.4139190000000 1.0
C      1  0.4731890000000  0.5443510000000  0.4903590000000 1.0
C      1  0.4949400000000  0.5444730000000  0.4719540000000 1.0
C      1  0.5217540000000  0.5443510000000  0.4816020000000 1.0
C      1  0.5268180000000  0.5444730000000  0.5096410000000 1.0
C      1  0.5050560000000  0.5443510000000  0.5280390000000 1.0
C      1  0.4782410000000  0.5444730000000  0.5184050000000 1.0
C      1  0.4716970000000  0.4555270000000  0.4966640000000 1.0
C      1  0.4887380000000  0.4556490000000  0.4738290000000 1.0
C      1  0.5170400000000  0.4555270000000  0.4771570000000 1.0
C      1  0.5282960000000  0.4556490000000  0.5033320000000 1.0
C      1  0.5112630000000  0.4555270000000  0.5261790000000 1.0
C      1  0.4829660000000  0.4556490000000  0.5228390000000 1.0
C      1  0.5880250000000  0.4910520000000  0.4987970000000 1.0
C      1  0.5468750000000  0.4931670000000  0.5722030000000 1.0
C      1  0.4570300000000  0.4910510000000  0.5768330000000 1.0
C      1  0.4140330000000  0.4931670000000  0.5044930000000 1.0
C      1  0.4549450000000  0.4910520000000  0.4243700000000 1.0
C      1  0.5390920000000  0.4931670000000  0.4233030000000 1.0
C      1  0.5889630000000  0.5183080000000  0.4991470000000 1.0
C      1  0.5470950000000  0.5205210000000  0.5745700000000 1.0
C      1  0.4562570000000  0.5183070000000  0.5774710000000 1.0
C      1  0.4118730000000  0.5205210000000  0.5035010000000 1.0
C      1  0.4547800000000  0.5183070000000  0.4233820000000 1.0
C      1  0.5410320000000  0.5205210000000  0.4219290000000 1.0
C      1  0.5561400000000  0.5286780000000  0.4440740000000 1.0
C      1  0.5753760000000  0.5265240000000  0.5222610000000 1.0
C      1  0.5203630000000  0.5286780000000  0.5765820000000 1.0
C      1  0.4430340000000  0.5265240000000  0.5541470000000 1.0
C      1  0.4234960000000  0.5286780000000  0.4793440000000 1.0
C      1  0.4815900000000  0.5265240000000  0.4235920000000 1.0
C      1  0.5505630000000  0.4734760000000  0.4398300000000 1.0
C      1  0.5776840000000  0.4713220000000  0.5156440000000 1.0
C      1  0.5268270000000  0.4734760000000  0.5738740000000 1.0
C      1  0.4476100000000  0.4713220000000  0.5594540000000 1.0
C      1  0.4226100000000  0.4734760000000  0.4862960000000 1.0
C      1  0.4747060000000  0.4713220000000  0.4249020000000 1.0
END
