TITL C-38196-2854-601 3.43598872464173e-05 125000 -354.225506884857 0 0 60 (C2) n - 1
REM
REM in /home/bkarasulu/CARBON/AIRSS/Generating-Clusters/EDIP-Nigel-Params/Higher-Symm/Box-15A/Only-C60/SD-CG/FIRE-HFTN
REM
REM
REM
REM
REM
REM ./C.cell (414f73aa93bd7a1190c7fd0f31ff2f98)
REM
REM compiler GCC version 9.2.1 20190827 (Red Hat 9.2.1-1)
REM options -cpp -mtune=generic -march=x86-64 -g -O0 -fpre-include=/usr/include/finclude/math-vector-fortran.h
REM seed 687375602 -779837270 -278468798 -355083042 1064827427 1600544147 -2010468026 -1295152866 -897716295 270947624 -599972534 -1581021157 1658055229 -964913998 1719044220 -343309529 1689773731 -1641775574 1209842246 -2031997388 -2003875849 -39518801 975091203 -2049769268 651850030 -1695704123 -91556924 963694260 37198932 666298402 890562947 1018884341 -1062302572
REM
CELL 1.54180   50.00000   50.00000   50.00000   90.00000   90.00000   90.00000
LATT -1
SFAC C  
C      1  0.4487410000000  0.4960540000000  0.4557930000000 1.0
C      1  0.4937670000000  0.5510000000000  0.4567200000000 1.0
C      1  0.5512590000000  0.5039460000000  0.4557930000000 1.0
C      1  0.5062330000000  0.4490000000000  0.4567200000000 1.0
C      1  0.4665400000000  0.4544780000000  0.5062820000000 1.0
C      1  0.4524130000000  0.5386960000000  0.5064640000000 1.0
C      1  0.5334600000000  0.5455220000000  0.5062820000000 1.0
C      1  0.5475870000000  0.4613040000000  0.5064640000000 1.0
C      1  0.4593820000000  0.5854740000000  0.4473870000000 1.0
C      1  0.5852900000000  0.5398300000000  0.4511610000000 1.0
C      1  0.5406180000000  0.4145260000000  0.4473870000000 1.0
C      1  0.4147100000000  0.4601700000000  0.4511610000000 1.0
C      1  0.4990610000000  0.5220840000000  0.4564050000000 1.0
C      1  0.5220700000000  0.5006280000000  0.4563200000000 1.0
C      1  0.5009390000000  0.4779160000000  0.4564050000000 1.0
C      1  0.4779300000000  0.4993720000000  0.4563200000000 1.0
C      1  0.5567780000000  0.4231950000000  0.4680730000000 1.0
C      1  0.4278630000000  0.4449600000000  0.4701970000000 1.0
C      1  0.4432220000000  0.5768050000000  0.4680730000000 1.0
C      1  0.5721370000000  0.5550400000000  0.4701970000000 1.0
C      1  0.5320860000000  0.4478900000000  0.5281790000000 1.0
C      1  0.4507360000000  0.4682180000000  0.5274340000000 1.0
C      1  0.4679140000000  0.5521100000000  0.5281790000000 1.0
C      1  0.5492640000000  0.5317820000000  0.5274340000000 1.0
C      1  0.5528320000000  0.5064940000000  0.5665180000000 1.0
C      1  0.5056020000000  0.4491900000000  0.5668810000000 1.0
C      1  0.4471680000000  0.4935060000000  0.5665180000000 1.0
C      1  0.4943980000000  0.5508100000000  0.5668810000000 1.0
C      1  0.5100540000000  0.4320330000000  0.5204430000000 1.0
C      1  0.4367530000000  0.4916790000000  0.5194310000000 1.0
C      1  0.4899460000000  0.5679670000000  0.5204430000000 1.0
C      1  0.5632470000000  0.5083210000000  0.5194310000000 1.0
C      1  0.5493870000000  0.5466870000000  0.4834910000000 1.0
C      1  0.5506530000000  0.4441840000000  0.4848140000000 1.0
C      1  0.4506130000000  0.4533130000000  0.4834910000000 1.0
C      1  0.4493470000000  0.5558160000000  0.4848140000000 1.0
C      1  0.4882720000000  0.4349780000000  0.5030570000000 1.0
C      1  0.4367800000000  0.5140740000000  0.5023110000000 1.0
C      1  0.5117280000000  0.5650220000000  0.5030570000000 1.0
C      1  0.5632200000000  0.4859260000000  0.5023110000000 1.0
C      1  0.5411840000000  0.5309030000000  0.5561480000000 1.0
C      1  0.5309630000000  0.4576170000000  0.5563950000000 1.0
C      1  0.4588160000000  0.4690970000000  0.5561480000000 1.0
C      1  0.4690370000000  0.5423830000000  0.5563950000000 1.0
C      1  0.5339220000000  0.4872090000000  0.5562920000000 1.0
C      1  0.4882660000000  0.4693040000000  0.5559190000000 1.0
C      1  0.4660780000000  0.5127910000000  0.5562920000000 1.0
C      1  0.5117340000000  0.5306960000000  0.5559190000000 1.0
C      1  0.4940410000000  0.4323080000000  0.4757920000000 1.0
C      1  0.4327750000000  0.5087850000000  0.4751380000000 1.0
C      1  0.5059590000000  0.5676920000000  0.4757920000000 1.0
C      1  0.5672250000000  0.4912150000000  0.4751380000000 1.0
C      1  0.5310130000000  0.4404790000000  0.4453270000000 1.0
C      1  0.4392410000000  0.4714510000000  0.4447010000000 1.0
C      1  0.4689870000000  0.5595210000000  0.4453270000000 1.0
C      1  0.5607590000000  0.5285490000000  0.4447010000000 1.0
C      1  0.4930880000000  0.4817410000000  0.5283300000000 1.0
C      1  0.4764560000000  0.5086530000000  0.5285980000000 1.0
C      1  0.5069120000000  0.5182590000000  0.5283300000000 1.0
C      1  0.5235440000000  0.4913470000000  0.5285980000000 1.0
END
