TITL C-38193-7935-557 4.82531979460985e-07 125000 -362.741433234501 0 0 60 (C2) n - 1
REM
REM in /home/bkarasulu/CARBON/AIRSS/Generating-Clusters/EDIP-Nigel-Params/Higher-Symm/Box-15A/Only-C60/SD-CG/FIRE-HFTN
REM
REM
REM
REM
REM
REM ./C.cell (414f73aa93bd7a1190c7fd0f31ff2f98)
REM
REM compiler GCC version 9.2.1 20190827 (Red Hat 9.2.1-1)
REM options -cpp -mtune=generic -march=x86-64 -g -O0 -fpre-include=/usr/include/finclude/math-vector-fortran.h
REM seed 1123811369 1977809387 777844235 292825664 1276898800 -771255256 -1393367377 -1109991367 1995645678 -196608079 -2098341669 -1866601271 421073886 -2093306635 875495524 -823345333 184415330 -112088196 -1371143873 -2145471438 344251884 1002357396 141001500 -1343094156 -1454335663 -1886532695 -1146428545 1963862340 -1727580138 1925882452 27029355 857365804 1381372445
REM
CELL 1.54180   50.00000   50.00000   50.00000   90.00000   90.00000   90.00000
LATT -1
SFAC C  
C      1  0.5549380000000  0.5236220000000  0.5309190000000 1.0
C      1  0.5549380000000  0.4763780000000  0.4690810000000 1.0
C      1  0.4990460000000  0.4858630000000  0.5389760000000 1.0
C      1  0.4990460000000  0.5141370000000  0.4610240000000 1.0
C      1  0.4440510000000  0.4864800000000  0.5078040000000 1.0
C      1  0.4440510000000  0.5135200000000  0.4921960000000 1.0
C      1  0.5142650000000  0.5561190000000  0.4388700000000 1.0
C      1  0.5142650000000  0.4438810000000  0.5611300000000 1.0
C      1  0.5128600000000  0.4578480000000  0.5358930000000 1.0
C      1  0.5128600000000  0.5421520000000  0.4641070000000 1.0
C      1  0.5154230000000  0.5221450000000  0.5647250000000 1.0
C      1  0.5154230000000  0.4778550000000  0.4352750000000 1.0
C      1  0.5180750000000  0.4503130000000  0.4477700000000 1.0
C      1  0.5180750000000  0.5496870000000  0.5522300000000 1.0
C      1  0.5201300000000  0.5081010000000  0.5387120000000 1.0
C      1  0.5201300000000  0.4918990000000  0.4612880000000 1.0
C      1  0.4884250000000  0.5775830000000  0.5196400000000 1.0
C      1  0.4884250000000  0.4224170000000  0.4803600000000 1.0
C      1  0.5550740000000  0.5004200000000  0.4851720000000 1.0
C      1  0.5550740000000  0.4995800000000  0.5148280000000 1.0
C      1  0.4915490000000  0.4391690000000  0.4558570000000 1.0
C      1  0.4915490000000  0.5608310000000  0.5441430000000 1.0
C      1  0.4692460000000  0.4552850000000  0.4488410000000 1.0
C      1  0.4692460000000  0.5447150000000  0.5511590000000 1.0
C      1  0.5058970000000  0.5708730000000  0.4972060000000 1.0
C      1  0.5058970000000  0.4291270000000  0.5027940000000 1.0
C      1  0.5287520000000  0.4457940000000  0.4966520000000 1.0
C      1  0.5287520000000  0.5542060000000  0.5033480000000 1.0
C      1  0.4493460000000  0.4385900000000  0.5035530000000 1.0
C      1  0.4493460000000  0.5614100000000  0.4964470000000 1.0
C      1  0.5363600000000  0.4557120000000  0.5728860000000 1.0
C      1  0.5363600000000  0.5442880000000  0.4271140000000 1.0
C      1  0.4445870000000  0.4645710000000  0.4888860000000 1.0
C      1  0.4445870000000  0.5354290000000  0.5111140000000 1.0
C      1  0.5533190000000  0.4748020000000  0.5305120000000 1.0
C      1  0.5533190000000  0.5251980000000  0.4694880000000 1.0
C      1  0.4672030000000  0.4723660000000  0.4720700000000 1.0
C      1  0.4672030000000  0.5276340000000  0.5279300000000 1.0
C      1  0.4634910000000  0.4461860000000  0.5285070000000 1.0
C      1  0.4634910000000  0.5538140000000  0.4714930000000 1.0
C      1  0.4564560000000  0.5253640000000  0.4670690000000 1.0
C      1  0.4564560000000  0.4746360000000  0.5329310000000 1.0
C      1  0.5380540000000  0.4524960000000  0.4701550000000 1.0
C      1  0.5380540000000  0.5475040000000  0.5298450000000 1.0
C      1  0.5514660000000  0.4730050000000  0.5584240000000 1.0
C      1  0.5514660000000  0.5269950000000  0.4415760000000 1.0
C      1  0.4890130000000  0.5064710000000  0.5155880000000 1.0
C      1  0.4890130000000  0.4935290000000  0.4844120000000 1.0
C      1  0.4927150000000  0.4348110000000  0.5301000000000 1.0
C      1  0.4927150000000  0.5651890000000  0.4699000000000 1.0
C      1  0.4568390000000  0.5147300000000  0.4408890000000 1.0
C      1  0.4568390000000  0.4852700000000  0.5591110000000 1.0
C      1  0.4617470000000  0.5818070000000  0.5117230000000 1.0
C      1  0.4617470000000  0.4181930000000  0.4882770000000 1.0
C      1  0.4913340000000  0.5141840000000  0.5775060000000 1.0
C      1  0.4913340000000  0.4858160000000  0.4224940000000 1.0
C      1  0.5465690000000  0.5494280000000  0.4821260000000 1.0
C      1  0.5465690000000  0.4505720000000  0.5178740000000 1.0
C      1  0.4837710000000  0.4904860000000  0.5640800000000 1.0
C      1  0.4837710000000  0.5095140000000  0.4359200000000 1.0
END
