TITL C-38189-4514-391 3.41078361732154e-06 125000 -367.099370617739 0 0 60 (D2d) n - 1
REM
REM in /home/bkarasulu/CARBON/AIRSS/Generating-Clusters/EDIP-Nigel-Params/Higher-Symm/Box-15A/Only-C60/SD-CG/FIRE-HFTN
REM
REM
REM
REM
REM
REM ./C.cell (414f73aa93bd7a1190c7fd0f31ff2f98)
REM
REM compiler GCC version 9.2.1 20190827 (Red Hat 9.2.1-1)
REM options -cpp -mtune=generic -march=x86-64 -g -O0 -fpre-include=/usr/include/finclude/math-vector-fortran.h
REM seed 569643143 1770302537 -1327997118 -520315539 763038157 1809139816 -1497743425 710049006 -710427502 263042863 792073857 1681203312 1461643088 172528332 -1869997125 -586636588 794996426 267059249 -437640411 2075615797 -1170222227 -1682341383 -44924340 -69044448 917328990 32586824 -1002476744 -783313481 550846758 1988809210 248610888 -1641890014 -1349722192
REM
CELL 1.54180   50.00000   50.00000   50.00000   90.00000   90.00000   90.00000
LATT -1
SFAC C  
C      1  0.5663990000000  0.4519930000000  0.5270820000000 1.0
C      1  0.5663990000000  0.5480070000000  0.4729180000000 1.0
C      1  0.4336010000000  0.4519930000000  0.4729180000000 1.0
C      1  0.4336010000000  0.5480070000000  0.5270820000000 1.0
C      1  0.5663990000000  0.5270820000000  0.4519930000000 1.0
C      1  0.5663990000000  0.4729180000000  0.5480070000000 1.0
C      1  0.4336010000000  0.4729180000000  0.4519930000000 1.0
C      1  0.4336010000000  0.5270820000000  0.5480070000000 1.0
C      1  0.5371840000000  0.4914690000000  0.4710960000000 1.0
C      1  0.5371840000000  0.5085310000000  0.5289040000000 1.0
C      1  0.4628160000000  0.4914690000000  0.5289040000000 1.0
C      1  0.4628160000000  0.5085310000000  0.4710960000000 1.0
C      1  0.5371840000000  0.4710960000000  0.4914690000000 1.0
C      1  0.5371840000000  0.5289040000000  0.5085310000000 1.0
C      1  0.4628160000000  0.5289040000000  0.4914690000000 1.0
C      1  0.4628160000000  0.4710960000000  0.5085310000000 1.0
C      1  0.5056960000000  0.4739020000000  0.5642340000000 1.0
C      1  0.5056960000000  0.5260980000000  0.4357660000000 1.0
C      1  0.4943040000000  0.4739020000000  0.4357660000000 1.0
C      1  0.4943040000000  0.5260980000000  0.5642340000000 1.0
C      1  0.5056960000000  0.5642340000000  0.4739020000000 1.0
C      1  0.5056960000000  0.4357660000000  0.5260980000000 1.0
C      1  0.4943040000000  0.4357660000000  0.4739020000000 1.0
C      1  0.4943040000000  0.5642340000000  0.5260980000000 1.0
C      1  0.5541610000000  0.4275440000000  0.5345710000000 1.0
C      1  0.5541610000000  0.5724560000000  0.4654290000000 1.0
C      1  0.4458390000000  0.4275440000000  0.4654290000000 1.0
C      1  0.4458390000000  0.5724560000000  0.5345710000000 1.0
C      1  0.5541610000000  0.5345710000000  0.4275440000000 1.0
C      1  0.5541610000000  0.4654290000000  0.5724560000000 1.0
C      1  0.4458390000000  0.4654290000000  0.4275440000000 1.0
C      1  0.4458390000000  0.5345710000000  0.5724560000000 1.0
C      1  0.5612750000000  0.4609350000000  0.5010780000000 1.0
C      1  0.5612750000000  0.5390650000000  0.4989220000000 1.0
C      1  0.4387250000000  0.4609350000000  0.4989220000000 1.0
C      1  0.4387250000000  0.5390650000000  0.5010780000000 1.0
C      1  0.5612750000000  0.5010780000000  0.4609350000000 1.0
C      1  0.5612750000000  0.4989220000000  0.5390650000000 1.0
C      1  0.4387250000000  0.4989220000000  0.4609350000000 1.0
C      1  0.4387250000000  0.5010780000000  0.5390650000000 1.0
C      1  0.4873780000000  0.5308250000000  0.5087090000000 1.0
C      1  0.4873780000000  0.4691750000000  0.4912910000000 1.0
C      1  0.5126220000000  0.5308250000000  0.4912910000000 1.0
C      1  0.5126220000000  0.4691750000000  0.5087090000000 1.0
C      1  0.4873780000000  0.5087090000000  0.5308250000000 1.0
C      1  0.4873780000000  0.4912910000000  0.4691750000000 1.0
C      1  0.5126220000000  0.4912910000000  0.5308250000000 1.0
C      1  0.5126220000000  0.5087090000000  0.4691750000000 1.0
C      1  0.5286080000000  0.5643050000000  0.4563820000000 1.0
C      1  0.5286080000000  0.4356950000000  0.5436180000000 1.0
C      1  0.4713920000000  0.5643050000000  0.5436180000000 1.0
C      1  0.4713920000000  0.4356950000000  0.4563820000000 1.0
C      1  0.5286080000000  0.4563820000000  0.5643050000000 1.0
C      1  0.5286080000000  0.5436180000000  0.4356950000000 1.0
C      1  0.4713920000000  0.5436180000000  0.5643050000000 1.0
C      1  0.4713920000000  0.4563820000000  0.4356950000000 1.0
C      1  0.5000000000000  0.4283710000000  0.5000000000000 1.0
C      1  0.5000000000000  0.5716290000000  0.5000000000000 1.0
C      1  0.5000000000000  0.5000000000000  0.5716290000000 1.0
C      1  0.5000000000000  0.5000000000000  0.4283710000000 1.0
END
