TITL C-38193-7935-265 -1.69753113671567e-05 125000 -365.907001589637 0 0 60 (C1) n - 1
REM
REM in /home/bkarasulu/CARBON/AIRSS/Generating-Clusters/EDIP-Nigel-Params/Higher-Symm/Box-15A/Only-C60/SD-CG/FIRE-HFTN
REM
REM
REM
REM
REM
REM ./C.cell (414f73aa93bd7a1190c7fd0f31ff2f98)
REM
REM compiler GCC version 9.2.1 20190827 (Red Hat 9.2.1-1)
REM options -cpp -mtune=generic -march=x86-64 -g -O0 -fpre-include=/usr/include/finclude/math-vector-fortran.h
REM seed -88676502 1664585806 -1321528907 -813094162 -1725197475 1511734731 -1565356043 828903752 427532736 431561104 766703029 518883994 -899750411 -2120816331 2105473142 -210670818 -204933245 2001516951 -1090817209 -1965777824 847156181 -1807469930 -1659693386 269786829 2128795709 577224078 -680589371 991701247 -244205166 -1933910692 192455211 1629693246 3212654
REM
CELL 1.54180   50.00000   50.00000   50.00000   90.00000   90.00000   90.00000
LATT -1
SFAC C  
C      1  0.4937630000000  0.4761600000000  0.4381550000000 1.0
C      1  0.4761760000000  0.5310270000000  0.4421380000000 1.0
C      1  0.4762010000000  0.5718960000000  0.4964990000000 1.0
C      1  0.4925760000000  0.5503570000000  0.5457540000000 1.0
C      1  0.4837650000000  0.5008860000000  0.5679170000000 1.0
C      1  0.4748320000000  0.4447650000000  0.5348580000000 1.0
C      1  0.4861880000000  0.4317590000000  0.4764950000000 1.0
C      1  0.4971370000000  0.4753610000000  0.5649240000000 1.0
C      1  0.4974870000000  0.4310900000000  0.5243520000000 1.0
C      1  0.5077910000000  0.4319700000000  0.4575110000000 1.0
C      1  0.5070790000000  0.4985060000000  0.4248880000000 1.0
C      1  0.4912290000000  0.5530210000000  0.4538630000000 1.0
C      1  0.5012820000000  0.5767800000000  0.5113500000000 1.0
C      1  0.5139080000000  0.5304120000000  0.5542520000000 1.0
C      1  0.5056420000000  0.4511000000000  0.4377410000000 1.0
C      1  0.4890190000000  0.5196030000000  0.4200000000000 1.0
C      1  0.4776690000000  0.5727190000000  0.4686010000000 1.0
C      1  0.4986410000000  0.5775980000000  0.5395070000000 1.0
C      1  0.5030040000000  0.5190630000000  0.5773470000000 1.0
C      1  0.4792350000000  0.4548130000000  0.5601780000000 1.0
C      1  0.4913980000000  0.4179170000000  0.5002320000000 1.0
C      1  0.4673020000000  0.4646950000000  0.5137440000000 1.0
C      1  0.4826240000000  0.4605460000000  0.4840430000000 1.0
C      1  0.4777700000000  0.4819880000000  0.4613530000000 1.0
C      1  0.4654500000000  0.5111160000000  0.4640210000000 1.0
C      1  0.4623350000000  0.5482800000000  0.5052330000000 1.0
C      1  0.4689730000000  0.5378400000000  0.5332710000000 1.0
C      1  0.4669640000000  0.5082670000000  0.5424740000000 1.0
C      1  0.5304390000000  0.5512460000000  0.5121090000000 1.0
C      1  0.5227730000000  0.5074270000000  0.5334610000000 1.0
C      1  0.5464600000000  0.4752600000000  0.5571730000000 1.0
C      1  0.5435900000000  0.4394580000000  0.5237150000000 1.0
C      1  0.5352840000000  0.4500630000000  0.4768880000000 1.0
C      1  0.5387410000000  0.5070450000000  0.4457750000000 1.0
C      1  0.5374770000000  0.5516690000000  0.4656880000000 1.0
C      1  0.5584040000000  0.5374440000000  0.4782880000000 1.0
C      1  0.5552120000000  0.5367390000000  0.5082070000000 1.0
C      1  0.5520460000000  0.5071210000000  0.5192460000000 1.0
C      1  0.5630380000000  0.4821560000000  0.5349040000000 1.0
C      1  0.5630630000000  0.4584630000000  0.5166290000000 1.0
C      1  0.5579110000000  0.4658740000000  0.4886350000000 1.0
C      1  0.5580360000000  0.5100680000000  0.4677340000000 1.0
C      1  0.4207330000000  0.4988090000000  0.4755500000000 1.0
C      1  0.4344380000000  0.5216070000000  0.4656840000000 1.0
C      1  0.4385710000000  0.5428200000000  0.4870030000000 1.0
C      1  0.4337990000000  0.5153780000000  0.5134840000000 1.0
C      1  0.4372760000000  0.4963920000000  0.5364900000000 1.0
C      1  0.4374220000000  0.4716770000000  0.5176930000000 1.0
C      1  0.4241500000000  0.4782780000000  0.4933500000000 1.0
C      1  0.5134660000000  0.5081110000000  0.4618370000000 1.0
C      1  0.5117770000000  0.5385590000000  0.4697150000000 1.0
C      1  0.5053090000000  0.5396980000000  0.4998400000000 1.0
C      1  0.5053640000000  0.5093380000000  0.5098100000000 1.0
C      1  0.5199140000000  0.4778240000000  0.5450160000000 1.0
C      1  0.5179560000000  0.4533480000000  0.5217300000000 1.0
C      1  0.5130030000000  0.4639000000000  0.4921990000000 1.0
C      1  0.5189960000000  0.4933750000000  0.4883690000000 1.0
C      1  0.4789400000000  0.4951900000000  0.5175190000000 1.0
C      1  0.4585480000000  0.5052800000000  0.4981370000000 1.0
C      1  0.5485320000000  0.4941850000000  0.4910760000000 1.0
END
