TITL C-38196-2854-695 1.65162109548046e-07 125000 -364.128509260201 0 0 60 (C1) n - 1
REM
REM in /home/bkarasulu/CARBON/AIRSS/Generating-Clusters/EDIP-Nigel-Params/Higher-Symm/Box-15A/Only-C60/SD-CG/FIRE-HFTN
REM
REM
REM
REM
REM
REM ./C.cell (414f73aa93bd7a1190c7fd0f31ff2f98)
REM
REM compiler GCC version 9.2.1 20190827 (Red Hat 9.2.1-1)
REM options -cpp -mtune=generic -march=x86-64 -g -O0 -fpre-include=/usr/include/finclude/math-vector-fortran.h
REM seed 1438083658 -1756289165 -698570622 -2115175275 -705503033 1348423336 -497515638 -1930882101 -1620994504 -1318866225 -1277977697 -26942573 -59325417 1549456574 357339899 1070535861 1615565702 -2109618152 -1166691467 135619401 565713720 -193974004 -1632442935 1145527929 1954451691 -117606773 618726182 476425409 1770060368 85476900 2097758018 -658578049 -1672679943
REM
CELL 1.54180   50.00000   50.00000   50.00000   90.00000   90.00000   90.00000
LATT -1
SFAC C  
C      1  0.5590390000000  0.4656160000000  0.5062890000000 1.0
C      1  0.4995420000000  0.5668530000000  0.5049270000000 1.0
C      1  0.4418860000000  0.4661600000000  0.5054700000000 1.0
C      1  0.5285100000000  0.4586100000000  0.4539970000000 1.0
C      1  0.5146330000000  0.5440140000000  0.4516870000000 1.0
C      1  0.4544180000000  0.4927120000000  0.4517330000000 1.0
C      1  0.5482240000000  0.5095750000000  0.4820250000000 1.0
C      1  0.4647040000000  0.5378940000000  0.4832510000000 1.0
C      1  0.4839840000000  0.4517100000000  0.4829050000000 1.0
C      1  0.4535890000000  0.4957410000000  0.4811300000000 1.0
C      1  0.5274580000000  0.4580270000000  0.4833390000000 1.0
C      1  0.5194020000000  0.5421930000000  0.4807090000000 1.0
C      1  0.4172620000000  0.5090450000000  0.5114140000000 1.0
C      1  0.5350900000000  0.4221220000000  0.5141120000000 1.0
C      1  0.5493280000000  0.5670490000000  0.5100860000000 1.0
C      1  0.4945200000000  0.5185170000000  0.5230400000000 1.0
C      1  0.4866600000000  0.4862350000000  0.5231100000000 1.0
C      1  0.5187790000000  0.4948160000000  0.5231570000000 1.0
C      1  0.5167880000000  0.4345190000000  0.5313230000000 1.0
C      1  0.5483850000000  0.5464130000000  0.5288590000000 1.0
C      1  0.4353800000000  0.5185050000000  0.5304440000000 1.0
C      1  0.5354820000000  0.4868350000000  0.4970520000000 1.0
C      1  0.4917520000000  0.5366640000000  0.4964760000000 1.0
C      1  0.4716920000000  0.4748250000000  0.4968910000000 1.0
C      1  0.4869780000000  0.4708250000000  0.5576370000000 1.0
C      1  0.5322820000000  0.5035020000000  0.5572170000000 1.0
C      1  0.4814260000000  0.5258870000000  0.5575540000000 1.0
C      1  0.5451540000000  0.5062650000000  0.4527100000000 1.0
C      1  0.4642620000000  0.5359580000000  0.4538250000000 1.0
C      1  0.4846460000000  0.4531190000000  0.4534720000000 1.0
C      1  0.4729500000000  0.5502970000000  0.5441030000000 1.0
C      1  0.4704680000000  0.4512320000000  0.5438700000000 1.0
C      1  0.5574470000000  0.4987730000000  0.5434200000000 1.0
C      1  0.5083780000000  0.4420900000000  0.4425450000000 1.0
C      1  0.5359890000000  0.5299620000000  0.4357850000000 1.0
C      1  0.4464210000000  0.5178030000000  0.4412870000000 1.0
C      1  0.4474740000000  0.4691520000000  0.5349540000000 1.0
C      1  0.5533820000000  0.4698370000000  0.5354970000000 1.0
C      1  0.4998090000000  0.5610910000000  0.5344850000000 1.0
C      1  0.4922230000000  0.5252290000000  0.4145130000000 1.0
C      1  0.5087410000000  0.4906230000000  0.4219810000000 1.0
C      1  0.5201980000000  0.5180800000000  0.4118990000000 1.0
C      1  0.4498120000000  0.4976940000000  0.5446000000000 1.0
C      1  0.5275030000000  0.4576700000000  0.5453510000000 1.0
C      1  0.5234140000000  0.5447520000000  0.5437020000000 1.0
C      1  0.4472760000000  0.5542880000000  0.4986110000000 1.0
C      1  0.4802230000000  0.4279720000000  0.4979820000000 1.0
C      1  0.5717080000000  0.5171180000000  0.4961260000000 1.0
C      1  0.4634450000000  0.5068030000000  0.5676010000000 1.0
C      1  0.5124980000000  0.4655230000000  0.5679380000000 1.0
C      1  0.5245220000000  0.5286780000000  0.5668700000000 1.0
C      1  0.4257670000000  0.4900070000000  0.4931220000000 1.0
C      1  0.5474500000000  0.4385060000000  0.4954910000000 1.0
C      1  0.5281540000000  0.5692100000000  0.4923790000000 1.0
C      1  0.4880350000000  0.4361570000000  0.5241430000000 1.0
C      1  0.5615810000000  0.5206730000000  0.5226790000000 1.0
C      1  0.4504750000000  0.5433020000000  0.5247380000000 1.0
C      1  0.5256630000000  0.4857920000000  0.4454670000000 1.0
C      1  0.4901370000000  0.5328380000000  0.4416680000000 1.0
C      1  0.4776040000000  0.4786410000000  0.4413510000000 1.0
END
