TITL C-38191-7580-163 1.37947107039081e-05 125000 -358.435607922344 0 0 60 (C1) n - 1
REM
REM in /home/bkarasulu/CARBON/AIRSS/Generating-Clusters/EDIP-Nigel-Params/Higher-Symm/Box-15A/Only-C60/SD-CG/FIRE-HFTN
REM
REM
REM
REM
REM
REM ./C.cell (414f73aa93bd7a1190c7fd0f31ff2f98)
REM
REM compiler GCC version 9.2.1 20190827 (Red Hat 9.2.1-1)
REM options -cpp -mtune=generic -march=x86-64 -g -O0 -fpre-include=/usr/include/finclude/math-vector-fortran.h
REM seed 322709134 1677842791 1018792027 1954676352 -1821563472 819149930 1474405666 486966781 1479585025 -2082468403 -1159620693 1980956360 -980457499 695054373 -903400185 -2139949059 -1755930360 -1270714018 984567630 398556766 -1501151187 788099679 -686159138 -1298866709 428433534 213678080 -2089503601 -95854152 -2100350731 -688061538 313692316 -152246517 -839726288
REM
CELL 1.54180   50.00000   50.00000   50.00000   90.00000   90.00000   90.00000
LATT -1
SFAC C  
C      1  0.5435170000000  0.5181210000000  0.4330520000000 1.0
C      1  0.4953020000000  0.4777660000000  0.5080690000000 1.0
C      1  0.4493080000000  0.5383390000000  0.5054490000000 1.0
C      1  0.5386000000000  0.4417630000000  0.5011840000000 1.0
C      1  0.4535380000000  0.5228750000000  0.5520430000000 1.0
C      1  0.4544080000000  0.4771200000000  0.4331950000000 1.0
C      1  0.5065470000000  0.4828820000000  0.4312200000000 1.0
C      1  0.4472460000000  0.4710810000000  0.4619260000000 1.0
C      1  0.4893960000000  0.4590710000000  0.4562180000000 1.0
C      1  0.5673450000000  0.4797760000000  0.5019680000000 1.0
C      1  0.4863630000000  0.5620260000000  0.5294610000000 1.0
C      1  0.4620960000000  0.5062870000000  0.4332970000000 1.0
C      1  0.4744780000000  0.4777490000000  0.4745000000000 1.0
C      1  0.4625490000000  0.4918970000000  0.5504810000000 1.0
C      1  0.4697690000000  0.5478120000000  0.4543200000000 1.0
C      1  0.4745970000000  0.4962640000000  0.5204070000000 1.0
C      1  0.5682610000000  0.5289410000000  0.5430880000000 1.0
C      1  0.5611260000000  0.5076420000000  0.4756320000000 1.0
C      1  0.5129340000000  0.5002940000000  0.4912400000000 1.0
C      1  0.4564080000000  0.4429780000000  0.4949570000000 1.0
C      1  0.4926360000000  0.5184000000000  0.5263020000000 1.0
C      1  0.4876620000000  0.5054660000000  0.4713820000000 1.0
C      1  0.5272260000000  0.4734490000000  0.5557610000000 1.0
C      1  0.4872770000000  0.5541700000000  0.4786540000000 1.0
C      1  0.5294180000000  0.4753430000000  0.4517170000000 1.0
C      1  0.5032090000000  0.4399810000000  0.4745250000000 1.0
C      1  0.5147620000000  0.5535440000000  0.4508550000000 1.0
C      1  0.5528790000000  0.5366690000000  0.4764480000000 1.0
C      1  0.5214400000000  0.4376220000000  0.5257900000000 1.0
C      1  0.5069950000000  0.5302820000000  0.5025020000000 1.0
C      1  0.5394980000000  0.5397560000000  0.4508840000000 1.0
C      1  0.5499830000000  0.4965870000000  0.4500160000000 1.0
C      1  0.5168800000000  0.5597940000000  0.5294290000000 1.0
C      1  0.4999690000000  0.5366490000000  0.5694270000000 1.0
C      1  0.4933480000000  0.5405350000000  0.4371100000000 1.0
C      1  0.4874060000000  0.4459930000000  0.5003530000000 1.0
C      1  0.4914590000000  0.5096780000000  0.4410100000000 1.0
C      1  0.4717740000000  0.5575070000000  0.5037110000000 1.0
C      1  0.4869550000000  0.4485690000000  0.5397870000000 1.0
C      1  0.5418960000000  0.5476770000000  0.5023900000000 1.0
C      1  0.4528960000000  0.5149460000000  0.4870010000000 1.0
C      1  0.5247010000000  0.5469550000000  0.5558180000000 1.0
C      1  0.4853580000000  0.4877050000000  0.5702530000000 1.0
C      1  0.4806440000000  0.5364720000000  0.5463940000000 1.0
C      1  0.5430520000000  0.5240200000000  0.5547740000000 1.0
C      1  0.4412870000000  0.4906660000000  0.5010030000000 1.0
C      1  0.4438750000000  0.4438720000000  0.4691170000000 1.0
C      1  0.5630090000000  0.5444240000000  0.5212570000000 1.0
C      1  0.5412160000000  0.4513120000000  0.5438930000000 1.0
C      1  0.4452650000000  0.4634060000000  0.5133140000000 1.0
C      1  0.5005090000000  0.4646910000000  0.5610120000000 1.0
C      1  0.4506930000000  0.5240510000000  0.4561740000000 1.0
C      1  0.5622980000000  0.4543900000000  0.5130320000000 1.0
C      1  0.5287370000000  0.4537720000000  0.4749240000000 1.0
C      1  0.4583590000000  0.4612240000000  0.5403220000000 1.0
C      1  0.5438900000000  0.4959980000000  0.4971130000000 1.0
C      1  0.4807490000000  0.4626790000000  0.4265490000000 1.0
C      1  0.5057710000000  0.5085540000000  0.5788000000000 1.0
C      1  0.5328650000000  0.4998760000000  0.5686670000000 1.0
C      1  0.4383690000000  0.5326370000000  0.5308220000000 1.0
END
