TITL C-38197-8510-594 1.06390756941514e-07 125000 -375.976620749239 0 0 60 (D3) n - 1
REM
REM in /home/bkarasulu/CARBON/AIRSS/Generating-Clusters/EDIP-Nigel-Params/Higher-Symm/Box-15A/Only-C60/SD-CG/FIRE-HFTN
REM
REM
REM
REM
REM
REM ./C.cell (414f73aa93bd7a1190c7fd0f31ff2f98)
REM
REM compiler GCC version 9.2.1 20190827 (Red Hat 9.2.1-1)
REM options -cpp -mtune=generic -march=x86-64 -g -O0 -fpre-include=/usr/include/finclude/math-vector-fortran.h
REM seed 1451616407 -1678636620 -2096724413 -1120260938 -313832748 -440420265 795371755 -1698953923 269709381 275833705 456540423 218595624 -134378270 -630500591 -1952787604 -1438964564 -1474760004 -417426047 58750659 -262115558 -1889545406 1874589028 -541234255 2057118946 1226655063 774494117 -1857111074 -673042729 -669690199 1934506427 607039291 1042898114 1422741721
REM
CELL 1.54180   50.00000   50.00000   50.00000   90.00000   90.00000   90.00000
LATT -1
SFAC C  
C      1  0.5198310000000  0.4269360000000  0.5330700000000 1.0
C      1  0.5533610000000  0.5537040000000  0.5330720000000 1.0
C      1  0.4268120000000  0.5193580000000  0.5330760000000 1.0
C      1  0.5326720000000  0.4339980000000  0.4522720000000 1.0
C      1  0.5408210000000  0.5612990000000  0.4522740000000 1.0
C      1  0.4265010000000  0.5047060000000  0.4522780000000 1.0
C      1  0.5326760000000  0.5660020000000  0.5477250000000 1.0
C      1  0.5408250000000  0.4387010000000  0.5477220000000 1.0
C      1  0.4265050000000  0.4952940000000  0.5477290000000 1.0
C      1  0.5198280000000  0.5730640000000  0.4669280000000 1.0
C      1  0.5533580000000  0.4462960000000  0.4669240000000 1.0
C      1  0.4268090000000  0.4806420000000  0.4669300000000 1.0
C      1  0.4761700000000  0.5174940000000  0.5420520000000 1.0
C      1  0.4967670000000  0.4706120000000  0.5420500000000 1.0
C      1  0.5270690000000  0.5118910000000  0.5420500000000 1.0
C      1  0.4735880000000  0.5118310000000  0.4545550000000 1.0
C      1  0.5029580000000  0.4712140000000  0.4545530000000 1.0
C      1  0.5234490000000  0.5169580000000  0.4545530000000 1.0
C      1  0.4735920000000  0.4881680000000  0.5454470000000 1.0
C      1  0.5029620000000  0.5287860000000  0.5454470000000 1.0
C      1  0.5234530000000  0.4830420000000  0.5454450000000 1.0
C      1  0.4761660000000  0.4825060000000  0.4579500000000 1.0
C      1  0.4967630000000  0.5293880000000  0.4579500000000 1.0
C      1  0.5270650000000  0.4881090000000  0.4579480000000 1.0
C      1  0.4464830000000  0.4765040000000  0.5408100000000 1.0
C      1  0.5471080000000  0.4653980000000  0.5408050000000 1.0
C      1  0.5064140000000  0.5580950000000  0.5408090000000 1.0
C      1  0.4517080000000  0.4649370000000  0.4607540000000 1.0
C      1  0.5545090000000  0.4757120000000  0.4607500000000 1.0
C      1  0.4937780000000  0.5593530000000  0.4607540000000 1.0
C      1  0.4517110000000  0.5350620000000  0.5392500000000 1.0
C      1  0.5545130000000  0.5242880000000  0.5392460000000 1.0
C      1  0.4937810000000  0.4406470000000  0.5392460000000 1.0
C      1  0.4464790000000  0.5234950000000  0.4591950000000 1.0
C      1  0.5471050000000  0.5346020000000  0.4591910000000 1.0
C      1  0.5064110000000  0.4419050000000  0.4591900000000 1.0
C      1  0.5017320000000  0.5654140000000  0.5125860000000 1.0
C      1  0.4424840000000  0.4687920000000  0.5125860000000 1.0
C      1  0.5557850000000  0.4657930000000  0.5125810000000 1.0
C      1  0.5251870000000  0.5727380000000  0.4965840000000 1.0
C      1  0.4244140000000  0.4854440000000  0.4965870000000 1.0
C      1  0.5503990000000  0.4418190000000  0.4965800000000 1.0
C      1  0.5251870000000  0.4272620000000  0.5034140000000 1.0
C      1  0.4244140000000  0.5145560000000  0.5034200000000 1.0
C      1  0.5503990000000  0.5581810000000  0.5034150000000 1.0
C      1  0.5017310000000  0.4345860000000  0.4874140000000 1.0
C      1  0.4424830000000  0.5312080000000  0.4874190000000 1.0
C      1  0.5557840000000  0.5342070000000  0.4874140000000 1.0
C      1  0.4506110000000  0.5609090000000  0.5246160000000 1.0
C      1  0.4719460000000  0.4267720000000  0.5246120000000 1.0
C      1  0.5774460000000  0.5123170000000  0.5246090000000 1.0
C      1  0.4436860000000  0.5591050000000  0.4954850000000 1.0
C      1  0.4769710000000  0.4216780000000  0.4954810000000 1.0
C      1  0.5793430000000  0.5192170000000  0.4954790000000 1.0
C      1  0.4436860000000  0.4408950000000  0.5045200000000 1.0
C      1  0.4769710000000  0.5783220000000  0.5045210000000 1.0
C      1  0.5793430000000  0.4807830000000  0.5045140000000 1.0
C      1  0.4506090000000  0.4390900000000  0.4753880000000 1.0
C      1  0.4719440000000  0.5732280000000  0.4753900000000 1.0
C      1  0.5774430000000  0.4876830000000  0.4753840000000 1.0
END
