TITL C-38197-8510-340 7.605555931033e-07 125000 -366.264021384751 0 0 60 (D2d) n - 1
REM
REM in /home/bkarasulu/CARBON/AIRSS/Generating-Clusters/EDIP-Nigel-Params/Higher-Symm/Box-15A/Only-C60/SD-CG/FIRE-HFTN
REM
REM
REM
REM
REM
REM ./C.cell (414f73aa93bd7a1190c7fd0f31ff2f98)
REM
REM compiler GCC version 9.2.1 20190827 (Red Hat 9.2.1-1)
REM options -cpp -mtune=generic -march=x86-64 -g -O0 -fpre-include=/usr/include/finclude/math-vector-fortran.h
REM seed 1394056434 -841395620 2011711372 -1407969924 -1545829416 581358733 1032304870 2094549072 -1476656984 6548352 -829056944 178444271 1307167867 -1421553116 1786661976 299126409 -266050953 -1086310146 -1450496261 218949059 305910708 -698775552 1289279835 630378588 1222314789 1504470014 -1913047907 -86749276 1988192357 1419706754 -2024861558 684076012 -19391398
REM
CELL 1.54180   50.00000   50.00000   50.00000   90.00000   90.00000   90.00000
LATT -1
SFAC C  
C      1  0.5421760000000  0.4128440000000  0.5609720000000 1.0
C      1  0.4578240000000  0.4128440000000  0.4390280000000 1.0
C      1  0.5421760000000  0.5871560000000  0.4390280000000 1.0
C      1  0.4578240000000  0.5871560000000  0.5609720000000 1.0
C      1  0.5609720000000  0.4128440000000  0.5421760000000 1.0
C      1  0.4390280000000  0.4128440000000  0.4578240000000 1.0
C      1  0.4390280000000  0.5871560000000  0.5421760000000 1.0
C      1  0.5609720000000  0.5871560000000  0.4578240000000 1.0
C      1  0.5444240000000  0.5092660000000  0.5110190000000 1.0
C      1  0.4555760000000  0.5092660000000  0.4889810000000 1.0
C      1  0.5444240000000  0.4907340000000  0.4889810000000 1.0
C      1  0.4555760000000  0.4907340000000  0.5110190000000 1.0
C      1  0.5110190000000  0.5092660000000  0.5444240000000 1.0
C      1  0.4889810000000  0.5092660000000  0.4555760000000 1.0
C      1  0.4889810000000  0.4907340000000  0.5444240000000 1.0
C      1  0.5110190000000  0.4907340000000  0.4555760000000 1.0
C      1  0.4838070000000  0.4393290000000  0.5363940000000 1.0
C      1  0.5161930000000  0.4393290000000  0.4636060000000 1.0
C      1  0.4838070000000  0.5606710000000  0.4636060000000 1.0
C      1  0.5161930000000  0.5606710000000  0.5363940000000 1.0
C      1  0.5363940000000  0.4393290000000  0.4838070000000 1.0
C      1  0.4636060000000  0.4393290000000  0.5161930000000 1.0
C      1  0.4636060000000  0.5606710000000  0.4838070000000 1.0
C      1  0.5363940000000  0.5606710000000  0.5161930000000 1.0
C      1  0.5192860000000  0.6085140000000  0.5382900000000 1.0
C      1  0.4807140000000  0.6085140000000  0.4617100000000 1.0
C      1  0.5192860000000  0.3914860000000  0.4617100000000 1.0
C      1  0.4807140000000  0.3914860000000  0.5382900000000 1.0
C      1  0.5382900000000  0.6085140000000  0.5192860000000 1.0
C      1  0.4617100000000  0.6085140000000  0.4807140000000 1.0
C      1  0.4617100000000  0.3914860000000  0.5192860000000 1.0
C      1  0.5382900000000  0.3914860000000  0.4807140000000 1.0
C      1  0.4371720000000  0.4134960000000  0.4843710000000 1.0
C      1  0.5628280000000  0.4134960000000  0.5156290000000 1.0
C      1  0.4371720000000  0.5865040000000  0.5156290000000 1.0
C      1  0.5628280000000  0.5865040000000  0.4843710000000 1.0
C      1  0.4843710000000  0.4134960000000  0.4371720000000 1.0
C      1  0.5156290000000  0.4134960000000  0.5628280000000 1.0
C      1  0.5156290000000  0.5865040000000  0.4371720000000 1.0
C      1  0.4843710000000  0.5865040000000  0.5628280000000 1.0
C      1  0.4552340000000  0.4635140000000  0.5059830000000 1.0
C      1  0.5447660000000  0.4635140000000  0.4940170000000 1.0
C      1  0.4552340000000  0.5364860000000  0.4940170000000 1.0
C      1  0.5447660000000  0.5364860000000  0.5059830000000 1.0
C      1  0.5059830000000  0.4635140000000  0.4552340000000 1.0
C      1  0.4940170000000  0.4635140000000  0.5447660000000 1.0
C      1  0.4940170000000  0.5364860000000  0.4552340000000 1.0
C      1  0.5059830000000  0.5364860000000  0.5447660000000 1.0
C      1  0.5072410000000  0.4146150000000  0.4524570000000 1.0
C      1  0.4927590000000  0.4146150000000  0.5475430000000 1.0
C      1  0.5072410000000  0.5853850000000  0.5475430000000 1.0
C      1  0.4927590000000  0.5853850000000  0.4524570000000 1.0
C      1  0.4524570000000  0.4146150000000  0.5072410000000 1.0
C      1  0.5475430000000  0.4146150000000  0.4927590000000 1.0
C      1  0.5475430000000  0.5853850000000  0.5072410000000 1.0
C      1  0.4524570000000  0.5853850000000  0.4927590000000 1.0
C      1  0.5365940000000  0.5007530000000  0.5365940000000 1.0
C      1  0.4634060000000  0.4992470000000  0.5365940000000 1.0
C      1  0.4634060000000  0.5007530000000  0.4634060000000 1.0
C      1  0.5365940000000  0.4992470000000  0.4634060000000 1.0
END
