TITL C-38196-2854-146 2.8411610335232e-06 125000 -368.403575458326 0 0 60 (D2d) n - 1
REM
REM in /home/bkarasulu/CARBON/AIRSS/Generating-Clusters/EDIP-Nigel-Params/Higher-Symm/Box-15A/Only-C60/SD-CG/FIRE-HFTN
REM
REM
REM
REM
REM
REM ./C.cell (414f73aa93bd7a1190c7fd0f31ff2f98)
REM
REM compiler GCC version 9.2.1 20190827 (Red Hat 9.2.1-1)
REM options -cpp -mtune=generic -march=x86-64 -g -O0 -fpre-include=/usr/include/finclude/math-vector-fortran.h
REM seed 1130521913 2111761317 -1648988399 -1750930708 2091824681 173223620 299664848 -244477732 177156876 1659189308 1936409690 426554564 1740947603 20484389 -2119757575 -1574974743 2113294651 -249606517 261546319 720942271 -1070276760 -758736966 -1437678170 -1443254831 636270208 224199829 1462642926 232932327 1859227269 829125101 -588439634 -1327733934 -1171057225
REM
CELL 1.54180   50.00000   50.00000   50.00000   90.00000   90.00000   90.00000
LATT -1
SFAC C  
C      1  0.4704250000000  0.5507010000000  0.4636500000000 1.0
C      1  0.5295750000000  0.4492990000000  0.4636500000000 1.0
C      1  0.4704250000000  0.4492990000000  0.5363500000000 1.0
C      1  0.5295750000000  0.5507010000000  0.5363500000000 1.0
C      1  0.5507010000000  0.4704250000000  0.4636500000000 1.0
C      1  0.4492990000000  0.5295750000000  0.4636500000000 1.0
C      1  0.4492990000000  0.4704250000000  0.5363500000000 1.0
C      1  0.5507010000000  0.5295750000000  0.5363500000000 1.0
C      1  0.5002140000000  0.5220350000000  0.5680790000000 1.0
C      1  0.4997860000000  0.4779650000000  0.5680790000000 1.0
C      1  0.5002140000000  0.4779650000000  0.4319210000000 1.0
C      1  0.4997860000000  0.5220350000000  0.4319210000000 1.0
C      1  0.5220350000000  0.5002140000000  0.5680790000000 1.0
C      1  0.4779650000000  0.4997860000000  0.5680790000000 1.0
C      1  0.4779650000000  0.5002140000000  0.4319210000000 1.0
C      1  0.5220350000000  0.4997860000000  0.4319210000000 1.0
C      1  0.4778650000000  0.5000900000000  0.5194820000000 1.0
C      1  0.5221350000000  0.4999100000000  0.5194820000000 1.0
C      1  0.4778650000000  0.4999100000000  0.4805180000000 1.0
C      1  0.5221350000000  0.5000900000000  0.4805180000000 1.0
C      1  0.5000900000000  0.4778650000000  0.5194820000000 1.0
C      1  0.4999100000000  0.5221350000000  0.5194820000000 1.0
C      1  0.4999100000000  0.4778650000000  0.4805180000000 1.0
C      1  0.5000900000000  0.5221350000000  0.4805180000000 1.0
C      1  0.5219390000000  0.4421630000000  0.5389120000000 1.0
C      1  0.4780610000000  0.5578370000000  0.5389120000000 1.0
C      1  0.5219390000000  0.5578370000000  0.4610880000000 1.0
C      1  0.4780610000000  0.4421630000000  0.4610880000000 1.0
C      1  0.4421630000000  0.5219390000000  0.5389120000000 1.0
C      1  0.5578370000000  0.4780610000000  0.5389120000000 1.0
C      1  0.5578370000000  0.5219390000000  0.4610880000000 1.0
C      1  0.4421630000000  0.4780610000000  0.4610880000000 1.0
C      1  0.5398710000000  0.4981620000000  0.4568480000000 1.0
C      1  0.4601290000000  0.5018380000000  0.4568480000000 1.0
C      1  0.5398710000000  0.5018380000000  0.5431520000000 1.0
C      1  0.4601290000000  0.4981620000000  0.5431520000000 1.0
C      1  0.4981620000000  0.5398710000000  0.4568480000000 1.0
C      1  0.5018380000000  0.4601290000000  0.4568480000000 1.0
C      1  0.5018380000000  0.5398710000000  0.5431520000000 1.0
C      1  0.4981620000000  0.4601290000000  0.5431520000000 1.0
C      1  0.5685710000000  0.5241470000000  0.4867240000000 1.0
C      1  0.4314290000000  0.4758530000000  0.4867240000000 1.0
C      1  0.5685710000000  0.4758530000000  0.5132760000000 1.0
C      1  0.4314290000000  0.5241470000000  0.5132760000000 1.0
C      1  0.5241470000000  0.5685710000000  0.4867240000000 1.0
C      1  0.4758530000000  0.4314290000000  0.4867240000000 1.0
C      1  0.4758530000000  0.5685710000000  0.5132760000000 1.0
C      1  0.5241470000000  0.4314290000000  0.5132760000000 1.0
C      1  0.5299080000000  0.4338090000000  0.4870500000000 1.0
C      1  0.4700920000000  0.5661910000000  0.4870500000000 1.0
C      1  0.5299080000000  0.5661910000000  0.5129500000000 1.0
C      1  0.4700920000000  0.4338090000000  0.5129500000000 1.0
C      1  0.4338090000000  0.5299080000000  0.4870500000000 1.0
C      1  0.5661910000000  0.4700920000000  0.4870500000000 1.0
C      1  0.5661910000000  0.5299080000000  0.5129500000000 1.0
C      1  0.4338090000000  0.4700920000000  0.5129500000000 1.0
C      1  0.5454160000000  0.5454160000000  0.4526620000000 1.0
C      1  0.5454160000000  0.4545840000000  0.5473380000000 1.0
C      1  0.4545840000000  0.5454160000000  0.5473380000000 1.0
C      1  0.4545840000000  0.4545840000000  0.4526620000000 1.0
END
