TITL C-38197-8510-232 1.19977923704409e-06 125000 -363.523773790884 0 0 60 (C1) n - 1
REM
REM in /home/bkarasulu/CARBON/AIRSS/Generating-Clusters/EDIP-Nigel-Params/Higher-Symm/Box-15A/Only-C60/SD-CG/FIRE-HFTN
REM
REM
REM
REM
REM
REM ./C.cell (414f73aa93bd7a1190c7fd0f31ff2f98)
REM
REM compiler GCC version 9.2.1 20190827 (Red Hat 9.2.1-1)
REM options -cpp -mtune=generic -march=x86-64 -g -O0 -fpre-include=/usr/include/finclude/math-vector-fortran.h
REM seed -865342680 -343401735 -475091465 189052629 57478277 1055635958 1794822826 -1901289210 1593409489 1562691461 1725394360 -261903946 871434800 -1474059870 -329440049 1612928925 -1515244981 -1783140079 703261846 1389281186 665987607 -451619984 218834333 -1193583823 330321905 872942043 1431207131 -99425802 804833984 28070028 -466996820 -723340294 921696038
REM
CELL 1.54180   50.00000   50.00000   50.00000   90.00000   90.00000   90.00000
LATT -1
SFAC C  
C      1  0.4473460000000  0.5410890000000  0.4889300000000 1.0
C      1  0.4473330000000  0.4698730000000  0.4700720000000 1.0
C      1  0.4472310000000  0.4891550000000  0.5405270000000 1.0
C      1  0.4670900000000  0.5361640000000  0.5490010000000 1.0
C      1  0.4672280000000  0.5241430000000  0.4441310000000 1.0
C      1  0.4665220000000  0.4391600000000  0.5072940000000 1.0
C      1  0.4229420000000  0.5298850000000  0.5319370000000 1.0
C      1  0.4230010000000  0.5128420000000  0.4582880000000 1.0
C      1  0.4225430000000  0.4576030000000  0.5095270000000 1.0
C      1  0.5073070000000  0.5008070000000  0.4373730000000 1.0
C      1  0.5068580000000  0.4446900000000  0.5312600000000 1.0
C      1  0.5070170000000  0.5539820000000  0.5323130000000 1.0
C      1  0.5329430000000  0.4905070000000  0.4362780000000 1.0
C      1  0.5326170000000  0.4483520000000  0.5410620000000 1.0
C      1  0.5323760000000  0.5628160000000  0.5253310000000 1.0
C      1  0.5734980000000  0.5462130000000  0.5081750000000 1.0
C      1  0.5737840000000  0.4853010000000  0.4601620000000 1.0
C      1  0.5730600000000  0.4735110000000  0.5316410000000 1.0
C      1  0.4846910000000  0.5446020000000  0.4361640000000 1.0
C      1  0.4829940000000  0.4204690000000  0.4944430000000 1.0
C      1  0.4846520000000  0.5323360000000  0.5705810000000 1.0
C      1  0.5114440000000  0.5287530000000  0.5680860000000 1.0
C      1  0.5114460000000  0.5441300000000  0.4406670000000 1.0
C      1  0.5097370000000  0.4241430000000  0.4925090000000 1.0
C      1  0.4898420000000  0.4514610000000  0.4510270000000 1.0
C      1  0.4902120000000  0.4824130000000  0.5651340000000 1.0
C      1  0.4901560000000  0.5663670000000  0.4827080000000 1.0
C      1  0.4432240000000  0.4501250000000  0.4920310000000 1.0
C      1  0.4434610000000  0.5179510000000  0.5469500000000 1.0
C      1  0.4436460000000  0.5317000000000  0.4609080000000 1.0
C      1  0.4910020000000  0.4821600000000  0.5036380000000 1.0
C      1  0.4908180000000  0.5116550000000  0.5133070000000 1.0
C      1  0.4909840000000  0.5053340000000  0.4831390000000 1.0
C      1  0.5336470000000  0.5769680000000  0.5013240000000 1.0
C      1  0.5340510000000  0.4627360000000  0.4358210000000 1.0
C      1  0.5344430000000  0.4606740000000  0.5660590000000 1.0
C      1  0.4256850000000  0.4754440000000  0.5293800000000 1.0
C      1  0.4259420000000  0.5381560000000  0.5065470000000 1.0
C      1  0.4260340000000  0.4867330000000  0.4638320000000 1.0
C      1  0.4837080000000  0.5396740000000  0.5234900000000 1.0
C      1  0.4838040000000  0.5002820000000  0.4538620000000 1.0
C      1  0.4835560000000  0.4594060000000  0.5227960000000 1.0
C      1  0.5476820000000  0.5160210000000  0.5354240000000 1.0
C      1  0.5497180000000  0.5264250000000  0.4685990000000 1.0
C      1  0.5482270000000  0.4570400000000  0.4938760000000 1.0
C      1  0.4711110000000  0.4724110000000  0.4527380000000 1.0
C      1  0.4708250000000  0.4727620000000  0.5471460000000 1.0
C      1  0.4711630000000  0.5546090000000  0.4998870000000 1.0
C      1  0.5270910000000  0.4419330000000  0.4797840000000 1.0
C      1  0.5297230000000  0.5099230000000  0.5583200000000 1.0
C      1  0.5291930000000  0.5468070000000  0.4621080000000 1.0
C      1  0.5528530000000  0.4562690000000  0.5222810000000 1.0
C      1  0.5537050000000  0.5435000000000  0.5280710000000 1.0
C      1  0.5535200000000  0.5029500000000  0.4521110000000 1.0
C      1  0.5183200000000  0.4837520000000  0.5636300000000 1.0
C      1  0.5181880000000  0.5666790000000  0.4802690000000 1.0
C      1  0.5176380000000  0.4479370000000  0.4530190000000 1.0
C      1  0.5658200000000  0.4984050000000  0.5185960000000 1.0
C      1  0.5685660000000  0.5252910000000  0.4906070000000 1.0
C      1  0.5667820000000  0.4775210000000  0.4858290000000 1.0
END
