TITL C-38191-7580-56 -5.67714446191738e-06 125000 -349.125115520096 0 0 60 (C1) n - 1
REM
REM in /home/bkarasulu/CARBON/AIRSS/Generating-Clusters/EDIP-Nigel-Params/Higher-Symm/Box-15A/Only-C60/SD-CG/FIRE-HFTN
REM
REM
REM
REM
REM
REM ./C.cell (414f73aa93bd7a1190c7fd0f31ff2f98)
REM
REM compiler GCC version 9.2.1 20190827 (Red Hat 9.2.1-1)
REM options -cpp -mtune=generic -march=x86-64 -g -O0 -fpre-include=/usr/include/finclude/math-vector-fortran.h
REM seed 46156868 1997590451 2019257662 1096527283 1445858952 1117741032 -1810788279 -1561712690 1119335140 -902930051 504998629 1030053100 383911838 -1976222722 1580357184 624482345 1422092853 975326797 1664261262 -1423011709 1734057352 -225233442 -2079148003 879176173 1564704867 -33941981 -120857254 760851591 747533944 -1095471993 -125045592 -562475182 -1307659065
REM
CELL 1.54180   50.00000   50.00000   50.00000   90.00000   90.00000   90.00000
LATT -1
SFAC C  
C      1  0.5216480000000  0.4740310000000  0.5627850000000 1.0
C      1  0.4948270000000  0.4757120000000  0.4329750000000 1.0
C      1  0.4936850000000  0.4819450000000  0.5614100000000 1.0
C      1  0.5185910000000  0.4607480000000  0.4291160000000 1.0
C      1  0.5163540000000  0.5394020000000  0.4950960000000 1.0
C      1  0.4623170000000  0.5754550000000  0.5061910000000 1.0
C      1  0.4568760000000  0.5527770000000  0.4886330000000 1.0
C      1  0.5377730000000  0.5327830000000  0.5155560000000 1.0
C      1  0.4537760000000  0.4772540000000  0.5328150000000 1.0
C      1  0.5516440000000  0.4780000000000  0.4604940000000 1.0
C      1  0.5587720000000  0.4706510000000  0.5383400000000 1.0
C      1  0.4501420000000  0.4826920000000  0.4548730000000 1.0
C      1  0.5349240000000  0.5352000000000  0.5455500000000 1.0
C      1  0.4649020000000  0.5579970000000  0.4612140000000 1.0
C      1  0.4717380000000  0.5706880000000  0.5316180000000 1.0
C      1  0.5223340000000  0.5401620000000  0.4649140000000 1.0
C      1  0.5315020000000  0.4588440000000  0.5401410000000 1.0
C      1  0.4762250000000  0.4679440000000  0.4552150000000 1.0
C      1  0.4802390000000  0.4653430000000  0.5402890000000 1.0
C      1  0.5301240000000  0.4597050000000  0.4546160000000 1.0
C      1  0.4510320000000  0.4957600000000  0.5547180000000 1.0
C      1  0.5489100000000  0.5005600000000  0.4437860000000 1.0
C      1  0.5609250000000  0.4908800000000  0.5583140000000 1.0
C      1  0.4521590000000  0.5051980000000  0.4365760000000 1.0
C      1  0.5806960000000  0.5100040000000  0.5233380000000 1.0
C      1  0.4243120000000  0.5174040000000  0.4735840000000 1.0
C      1  0.4359770000000  0.5189250000000  0.5181950000000 1.0
C      1  0.5667460000000  0.5162680000000  0.4811450000000 1.0
C      1  0.5490880000000  0.5154290000000  0.5602500000000 1.0
C      1  0.4760230000000  0.5176630000000  0.4473010000000 1.0
C      1  0.4695970000000  0.5159820000000  0.5471860000000 1.0
C      1  0.5229100000000  0.5112800000000  0.4539030000000 1.0
C      1  0.4809630000000  0.5071550000000  0.4752900000000 1.0
C      1  0.5163100000000  0.4996660000000  0.5346920000000 1.0
C      1  0.5099690000000  0.4987240000000  0.4801910000000 1.0
C      1  0.4864910000000  0.5059510000000  0.5235320000000 1.0
C      1  0.4469330000000  0.4940250000000  0.5086630000000 1.0
C      1  0.5582850000000  0.4892140000000  0.4866460000000 1.0
C      1  0.5701090000000  0.4844870000000  0.5141450000000 1.0
C      1  0.4358930000000  0.4919510000000  0.4802240000000 1.0
C      1  0.4760780000000  0.4402460000000  0.4652060000000 1.0
C      1  0.5234790000000  0.4309170000000  0.5426470000000 1.0
C      1  0.5291170000000  0.4338220000000  0.4669150000000 1.0
C      1  0.4852310000000  0.4368770000000  0.5451860000000 1.0
C      1  0.4344310000000  0.5340400000000  0.4942700000000 1.0
C      1  0.5653730000000  0.5279060000000  0.5068430000000 1.0
C      1  0.4859790000000  0.5759310000000  0.4565300000000 1.0
C      1  0.4933660000000  0.5625290000000  0.5449130000000 1.0
C      1  0.4914190000000  0.5197210000000  0.5654230000000 1.0
C      1  0.5001300000000  0.5055700000000  0.4339070000000 1.0
C      1  0.5009980000000  0.4155670000000  0.5366000000000 1.0
C      1  0.5013590000000  0.4217620000000  0.4676620000000 1.0
C      1  0.5263650000000  0.4330360000000  0.4955180000000 1.0
C      1  0.4787240000000  0.4392190000000  0.4941460000000 1.0
C      1  0.5014120000000  0.5538230000000  0.4496420000000 1.0
C      1  0.5079600000000  0.5421180000000  0.5570300000000 1.0
C      1  0.5040190000000  0.4483500000000  0.5070130000000 1.0
C      1  0.5127050000000  0.4819060000000  0.5075180000000 1.0
C      1  0.4884330000000  0.5257130000000  0.4989570000000 1.0
C      1  0.4733290000000  0.5962220000000  0.4939130000000 1.0
END
