TITL C-38189-4514-388 0.38209743119046 125000 -355.291705866629 0 0 60 (C2) n - 1
REM
REM in /home/bkarasulu/CARBON/AIRSS/Generating-Clusters/EDIP-Nigel-Params/Higher-Symm/Box-15A/Only-C60/SD-CG/FIRE-HFTN
REM
REM
REM
REM
REM
REM ./C.cell (414f73aa93bd7a1190c7fd0f31ff2f98)
REM
REM compiler GCC version 9.2.1 20190827 (Red Hat 9.2.1-1)
REM options -cpp -mtune=generic -march=x86-64 -g -O0 -fpre-include=/usr/include/finclude/math-vector-fortran.h
REM seed 284739838 -368876134 -1204887371 1551383853 -829554286 -1690504684 437412121 659101552 63979545 1423404634 -747437036 1152086985 759019337 -1593449089 -1442866375 -23925910 -1874192954 -1872287178 744810759 -2102214189 -387692688 -1952509828 -623069143 648725941 -1506338701 1609238901 -1048706796 -603330661 1626750943 -2004818703 868885047 1757675087 1286343957
REM
CELL 1.54180   50.00000   50.00000   50.00000   90.00000   90.00000   90.00000
LATT -1
SFAC C  
C      1  0.5675110000000  0.4349480000000  0.5150020000000 1.0
C      1  0.4324890000000  0.4349480000000  0.4849980000000 1.0
C      1  0.4322230000000  0.4350930000000  0.5116350000000 1.0
C      1  0.5677770000000  0.4350930000000  0.4883650000000 1.0
C      1  0.5352490000000  0.4483390000000  0.3993810000000 1.0
C      1  0.4647510000000  0.4483390000000  0.6006190000000 1.0
C      1  0.4623010000000  0.4519910000000  0.3956910000000 1.0
C      1  0.5376990000000  0.4519910000000  0.6043090000000 1.0
C      1  0.5325370000000  0.5728410000000  0.5561340000000 1.0
C      1  0.4674630000000  0.5728410000000  0.4438660000000 1.0
C      1  0.4650390000000  0.5726520000000  0.5548060000000 1.0
C      1  0.5349610000000  0.5726520000000  0.4451940000000 1.0
C      1  0.5117350000000  0.5729080000000  0.5727340000000 1.0
C      1  0.4882650000000  0.5729080000000  0.4272660000000 1.0
C      1  0.4851650000000  0.5728220000000  0.5722190000000 1.0
C      1  0.5148350000000  0.5728220000000  0.4277810000000 1.0
C      1  0.4552580000000  0.5486210000000  0.5133020000000 1.0
C      1  0.5447420000000  0.5486210000000  0.4866980000000 1.0
C      1  0.5441130000000  0.5486880000000  0.5151760000000 1.0
C      1  0.4558870000000  0.5486880000000  0.4848240000000 1.0
C      1  0.4596430000000  0.5728230000000  0.5278140000000 1.0
C      1  0.5403570000000  0.5728230000000  0.4721860000000 1.0
C      1  0.5390580000000  0.5729340000000  0.5293920000000 1.0
C      1  0.4609420000000  0.5729340000000  0.4706080000000 1.0
C      1  0.5497210000000  0.5241520000000  0.4748490000000 1.0
C      1  0.4502790000000  0.5241520000000  0.5251510000000 1.0
C      1  0.4514760000000  0.5242680000000  0.4726610000000 1.0
C      1  0.5485240000000  0.5242680000000  0.5273390000000 1.0
C      1  0.5463160000000  0.4358430000000  0.5834040000000 1.0
C      1  0.4536840000000  0.4358430000000  0.4165960000000 1.0
C      1  0.4678570000000  0.4343280000000  0.5757520000000 1.0
C      1  0.5321430000000  0.4343280000000  0.4242480000000 1.0
C      1  0.4872890000000  0.4789150000000  0.4703290000000 1.0
C      1  0.5127110000000  0.4789150000000  0.5296710000000 1.0
C      1  0.5138050000000  0.4790610000000  0.4713040000000 1.0
C      1  0.4861950000000  0.4790610000000  0.5286960000000 1.0
C      1  0.4906400000000  0.4502090000000  0.5882620000000 1.0
C      1  0.5093600000000  0.4502090000000  0.4117380000000 1.0
C      1  0.5133340000000  0.4388490000000  0.6016250000000 1.0
C      1  0.4866660000000  0.4388490000000  0.3983750000000 1.0
C      1  0.4614580000000  0.4742070000000  0.4811660000000 1.0
C      1  0.5385420000000  0.4742070000000  0.5188340000000 1.0
C      1  0.5391550000000  0.4741930000000  0.4831840000000 1.0
C      1  0.4608450000000  0.4741930000000  0.5168160000000 1.0
C      1  0.4467970000000  0.4516360000000  0.4684750000000 1.0
C      1  0.5532030000000  0.4516360000000  0.5315250000000 1.0
C      1  0.5540370000000  0.4514750000000  0.4710750000000 1.0
C      1  0.4459630000000  0.4514750000000  0.5289250000000 1.0
C      1  0.4636190000000  0.5957130000000  0.5127630000000 1.0
C      1  0.5363810000000  0.5957130000000  0.4872370000000 1.0
C      1  0.5357680000000  0.5957870000000  0.5141190000000 1.0
C      1  0.4642320000000  0.5957870000000  0.4858810000000 1.0
C      1  0.5560590000000  0.4995550000000  0.4865060000000 1.0
C      1  0.4439410000000  0.4995550000000  0.5134940000000 1.0
C      1  0.4445780000000  0.4996470000000  0.4839320000000 1.0
C      1  0.5554220000000  0.4996470000000  0.5160680000000 1.0
C      1  0.5490320000000  0.4451450000000  0.5578310000000 1.0
C      1  0.4509680000000  0.4451450000000  0.4421690000000 1.0
C      1  0.4530690000000  0.4423560000000  0.5538260000000 1.0
C      1  0.5469310000000  0.4423560000000  0.4461740000000 1.0
END
