TITL C-38187-2739-383 -1.66470004700757e-05 125000 -366.038272951861 0 0 60 (C5) n - 1
REM
REM in /home/bkarasulu/CARBON/AIRSS/Generating-Clusters/EDIP-Nigel-Params/Higher-Symm/Box-15A/Only-C60/SD-CG/FIRE-HFTN
REM
REM
REM
REM
REM
REM ./C.cell (414f73aa93bd7a1190c7fd0f31ff2f98)
REM
REM compiler GCC version 9.2.1 20190827 (Red Hat 9.2.1-1)
REM options -cpp -mtune=generic -march=x86-64 -g -O0 -fpre-include=/usr/include/finclude/math-vector-fortran.h
REM seed -1615524817 -688003488 -1326489903 -462260306 189996998 -1083414913 -1814744532 952127042 713239025 -1616389108 949560024 -1646657161 -1354342192 1994400862 93239196 -1119170501 -1132580137 1959469014 643782830 -214691202 1975884467 405177674 248795630 -1249423240 1792580562 -227163828 1610503474 1666343094 -891043932 -970040564 6355961 -913945575 1861592586
REM
CELL 1.54180   50.00000   50.00000   50.00000   90.00000   90.00000   90.00000
LATT -1
SFAC C  
C      1  0.5023130000000  0.4817030000000  0.4793830000000 1.0
C      1  0.5023130000000  0.5139530000000  0.4762280000000 1.0
C      1  0.5023130000000  0.5269210000000  0.5059240000000 1.0
C      1  0.5023130000000  0.5026840000000  0.5274340000000 1.0
C      1  0.5023130000000  0.4747380000000  0.5110310000000 1.0
C      1  0.5474210000000  0.4938580000000  0.5492380000000 1.0
C      1  0.5474210000000  0.4512740000000  0.5093740000000 1.0
C      1  0.5474210000000  0.4760270000000  0.4565550000000 1.0
C      1  0.5474210000000  0.5339100000000  0.4637760000000 1.0
C      1  0.5474210000000  0.5449300000000  0.5210570000000 1.0
C      1  0.5200470000000  0.5036110000000  0.5540440000000 1.0
C      1  0.5200470000000  0.4497170000000  0.5201350000000 1.0
C      1  0.5200470000000  0.4653120000000  0.4584000000000 1.0
C      1  0.5200470000000  0.5288450000000  0.4541550000000 1.0
C      1  0.5200470000000  0.5525150000000  0.5132670000000 1.0
C      1  0.5667930000000  0.4537890000000  0.5299980000000 1.0
C      1  0.5667930000000  0.4571910000000  0.4653200000000 1.0
C      1  0.5667930000000  0.5197530000000  0.4485690000000 1.0
C      1  0.5667930000000  0.5550180000000  0.5028940000000 1.0
C      1  0.5667930000000  0.5142490000000  0.5532190000000 1.0
C      1  0.5074240000000  0.5681630000000  0.5345080000000 1.0
C      1  0.5074240000000  0.4882440000000  0.5754900000000 1.0
C      1  0.5074240000000  0.4245720000000  0.5121470000000 1.0
C      1  0.5074240000000  0.4651390000000  0.4320170000000 1.0
C      1  0.5074240000000  0.5538830000000  0.4458370000000 1.0
C      1  0.4278460000000  0.4570690000000  0.4878050000000 1.0
C      1  0.4278460000000  0.4983310000000  0.4554020000000 1.0
C      1  0.4278460000000  0.5419000000000  0.4846310000000 1.0
C      1  0.4278460000000  0.5275640000000  0.5351000000000 1.0
C      1  0.4278460000000  0.4751360000000  0.5370620000000 1.0
C      1  0.5002770000000  0.4302350000000  0.4854950000000 1.0
C      1  0.5002770000000  0.4922360000000  0.4291680000000 1.0
C      1  0.5002770000000  0.5649660000000  0.4707280000000 1.0
C      1  0.5002770000000  0.5479150000000  0.5527410000000 1.0
C      1  0.5002770000000  0.4646470000000  0.5618680000000 1.0
C      1  0.4798600000000  0.5295910000000  0.5440530000000 1.0
C      1  0.4798600000000  0.4672470000000  0.5417560000000 1.0
C      1  0.4798600000000  0.4501670000000  0.4817530000000 1.0
C      1  0.4798600000000  0.5019540000000  0.4469670000000 1.0
C      1  0.4798600000000  0.5510410000000  0.4854710000000 1.0
C      1  0.5238640000000  0.5101830000000  0.4309580000000 1.0
C      1  0.5238640000000  0.5688100000000  0.4883490000000 1.0
C      1  0.5238640000000  0.5323440000000  0.5618420000000 1.0
C      1  0.5238640000000  0.4511790000000  0.5498710000000 1.0
C      1  0.5238640000000  0.4374830000000  0.4689800000000 1.0
C      1  0.4530000000000  0.5523500000000  0.4809040000000 1.0
C      1  0.4530000000000  0.5343390000000  0.5438870000000 1.0
C      1  0.4530000000000  0.4688730000000  0.5462200000000 1.0
C      1  0.4530000000000  0.4464240000000  0.4846790000000 1.0
C      1  0.4530000000000  0.4980150000000  0.4443110000000 1.0
C      1  0.5509600000000  0.5584280000000  0.4791470000000 1.0
C      1  0.5509600000000  0.5378870000000  0.5491250000000 1.0
C      1  0.5509600000000  0.4649870000000  0.5512130000000 1.0
C      1  0.5509600000000  0.4404740000000  0.4825270000000 1.0
C      1  0.5509600000000  0.4982230000000  0.4379880000000 1.0
C      1  0.4201950000000  0.5014940000000  0.5399320000000 1.0
C      1  0.4201950000000  0.4624840000000  0.5137610000000 1.0
C      1  0.4201950000000  0.4753200000000  0.4685730000000 1.0
C      1  0.4201950000000  0.5222620000000  0.4668160000000 1.0
C      1  0.4201950000000  0.5384390000000  0.5109190000000 1.0
END
