TITL C-38189-4514-260 7.37851430688934e-07 125000 -364.107932037724 0 0 60 (C2) n - 1
REM
REM in /home/bkarasulu/CARBON/AIRSS/Generating-Clusters/EDIP-Nigel-Params/Higher-Symm/Box-15A/Only-C60/SD-CG/FIRE-HFTN
REM
REM
REM
REM
REM
REM ./C.cell (414f73aa93bd7a1190c7fd0f31ff2f98)
REM
REM compiler GCC version 9.2.1 20190827 (Red Hat 9.2.1-1)
REM options -cpp -mtune=generic -march=x86-64 -g -O0 -fpre-include=/usr/include/finclude/math-vector-fortran.h
REM seed 943646139 -337268031 721408283 1288770156 1575719497 1739408894 710661186 -837058174 -414479188 2113954707 1316744465 -1956235897 1575957546 1118057662 2108246614 -1029274246 1337014065 -2020613831 1778682144 -1492859977 -738897588 -1048492539 1520428724 -750178738 -511538223 1399257962 -466588235 1026661242 -1873273766 -234743273 -157587757 -180118889 -977861348
REM
CELL 1.54180   50.00000   50.00000   50.00000   90.00000   90.00000   90.00000
LATT -1
SFAC C  
C      1  0.4769650000000  0.4480460000000  0.5035030000000 1.0
C      1  0.5230350000000  0.5519540000000  0.5035030000000 1.0
C      1  0.5133680000000  0.4937060000000  0.4863060000000 1.0
C      1  0.4866320000000  0.5062940000000  0.4863060000000 1.0
C      1  0.5417220000000  0.4362690000000  0.4849190000000 1.0
C      1  0.4582780000000  0.5637310000000  0.4849190000000 1.0
C      1  0.5182470000000  0.4468370000000  0.4664480000000 1.0
C      1  0.4817530000000  0.5531630000000  0.4664480000000 1.0
C      1  0.4371880000000  0.5425740000000  0.4801540000000 1.0
C      1  0.5628120000000  0.4574260000000  0.4801540000000 1.0
C      1  0.4287670000000  0.5304000000000  0.5061330000000 1.0
C      1  0.5712330000000  0.4696000000000  0.5061330000000 1.0
C      1  0.5752670000000  0.5144100000000  0.4874220000000 1.0
C      1  0.4247330000000  0.4855900000000  0.4874220000000 1.0
C      1  0.4482070000000  0.5209350000000  0.4608280000000 1.0
C      1  0.5517930000000  0.4790650000000  0.4608280000000 1.0
C      1  0.4915660000000  0.5205100000000  0.4325400000000 1.0
C      1  0.5084340000000  0.4794900000000  0.4325400000000 1.0
C      1  0.5022980000000  0.5477730000000  0.5518490000000 1.0
C      1  0.4977020000000  0.4522270000000  0.5518490000000 1.0
C      1  0.4132240000000  0.5080330000000  0.4995300000000 1.0
C      1  0.5867760000000  0.4919670000000  0.4995300000000 1.0
C      1  0.5274820000000  0.5548640000000  0.4737480000000 1.0
C      1  0.4725180000000  0.4451360000000  0.4737480000000 1.0
C      1  0.5520600000000  0.5079160000000  0.4709050000000 1.0
C      1  0.4479400000000  0.4920840000000  0.4709050000000 1.0
C      1  0.5186380000000  0.5221900000000  0.5525310000000 1.0
C      1  0.4813620000000  0.4778100000000  0.5525310000000 1.0
C      1  0.4733290000000  0.5486890000000  0.5103780000000 1.0
C      1  0.5266710000000  0.4513110000000  0.5103780000000 1.0
C      1  0.4640370000000  0.4700090000000  0.4586050000000 1.0
C      1  0.5359630000000  0.5299910000000  0.4586050000000 1.0
C      1  0.4481140000000  0.4749410000000  0.5232910000000 1.0
C      1  0.5518860000000  0.5250590000000  0.5232910000000 1.0
C      1  0.4663020000000  0.4974850000000  0.5110630000000 1.0
C      1  0.5336980000000  0.5025150000000  0.5110630000000 1.0
C      1  0.4551220000000  0.5253050000000  0.5211130000000 1.0
C      1  0.5448780000000  0.4746950000000  0.5211130000000 1.0
C      1  0.5447620000000  0.4736370000000  0.5513810000000 1.0
C      1  0.4552380000000  0.5263630000000  0.5513810000000 1.0
C      1  0.4940010000000  0.4313590000000  0.4605250000000 1.0
C      1  0.5059990000000  0.5686410000000  0.4605250000000 1.0
C      1  0.5470520000000  0.4990660000000  0.5647300000000 1.0
C      1  0.4529480000000  0.5009340000000  0.5647300000000 1.0
C      1  0.5083660000000  0.4648080000000  0.4889690000000 1.0
C      1  0.4916340000000  0.5351920000000  0.4889690000000 1.0
C      1  0.4818300000000  0.4768790000000  0.4378450000000 1.0
C      1  0.5181700000000  0.5231210000000  0.4378450000000 1.0
C      1  0.4711260000000  0.5342460000000  0.4460120000000 1.0
C      1  0.5288740000000  0.4657540000000  0.4460120000000 1.0
C      1  0.5570740000000  0.5222490000000  0.5515120000000 1.0
C      1  0.4429260000000  0.4777510000000  0.5515120000000 1.0
C      1  0.5718170000000  0.5354160000000  0.5058750000000 1.0
C      1  0.4281830000000  0.4645840000000  0.5058750000000 1.0
C      1  0.5241490000000  0.4570980000000  0.5604940000000 1.0
C      1  0.4758510000000  0.5429020000000  0.5604940000000 1.0
C      1  0.4897040000000  0.4899730000000  0.5274770000000 1.0
C      1  0.5102960000000  0.5100270000000  0.5274770000000 1.0
C      1  0.4986950000000  0.4406920000000  0.5239160000000 1.0
C      1  0.5013050000000  0.5593080000000  0.5239160000000 1.0
END
