TITL C-38193-7935-380 4.69086899364866e-06 125000 -351.618094105863 0 0 60 (C5) n - 1
REM
REM in /home/bkarasulu/CARBON/AIRSS/Generating-Clusters/EDIP-Nigel-Params/Higher-Symm/Box-15A/Only-C60/SD-CG/FIRE-HFTN
REM
REM
REM
REM
REM
REM ./C.cell (414f73aa93bd7a1190c7fd0f31ff2f98)
REM
REM compiler GCC version 9.2.1 20190827 (Red Hat 9.2.1-1)
REM options -cpp -mtune=generic -march=x86-64 -g -O0 -fpre-include=/usr/include/finclude/math-vector-fortran.h
REM seed -388502441 -1560875074 966610335 1574787505 -865778624 1078620042 -995217856 2125361669 912685256 1835665218 -564453386 2054329672 1734891785 1002041632 -655153887 -1071308691 -521068522 -362727990 -1359249071 1412629424 -1249841849 364497481 -1547973417 -856294965 24022057 -1369050252 756886340 -1026826852 -1273993293 1154337602 621611495 1698861057 1240584096
REM
CELL 1.54180   50.00000   50.00000   50.00000   90.00000   90.00000   90.00000
LATT -1
SFAC C  
C      1  0.5531070000000  0.4647180000000  0.5281530000000 1.0
C      1  0.5531070000000  0.4623220000000  0.4751450000000 1.0
C      1  0.5531070000000  0.5119960000000  0.4564850000000 1.0
C      1  0.5531070000000  0.5450920000000  0.4979620000000 1.0
C      1  0.5531070000000  0.5158730000000  0.5422550000000 1.0
C      1  0.5413900000000  0.5378200000000  0.4514570000000 1.0
C      1  0.5413900000000  0.5578540000000  0.5209680000000 1.0
C      1  0.5413900000000  0.4979360000000  0.5615020000000 1.0
C      1  0.5413900000000  0.4408700000000  0.5170420000000 1.0
C      1  0.5413900000000  0.4655200000000  0.4490310000000 1.0
C      1  0.4947640000000  0.4698630000000  0.4328050000000 1.0
C      1  0.4947640000000  0.5545930000000  0.4505730000000 1.0
C      1  0.4947640000000  0.5638780000000  0.5366480000000 1.0
C      1  0.4947640000000  0.4848850000000  0.5720760000000 1.0
C      1  0.4947640000000  0.4267810000000  0.5078980000000 1.0
C      1  0.5769480000000  0.4782670000000  0.4851510000000 1.0
C      1  0.5769480000000  0.5074060000000  0.4747430000000 1.0
C      1  0.5769480000000  0.5263100000000  0.4992390000000 1.0
C      1  0.5769480000000  0.5088540000000  0.5247870000000 1.0
C      1  0.5769480000000  0.4791620000000  0.5160800000000 1.0
C      1  0.4295560000000  0.5407290000000  0.5322150000000 1.0
C      1  0.4295560000000  0.4819480000000  0.5486910000000 1.0
C      1  0.4295560000000  0.4481140000000  0.4978780000000 1.0
C      1  0.4295560000000  0.4859850000000  0.4499980000000 1.0
C      1  0.4295560000000  0.5432240000000  0.4712190000000 1.0
C      1  0.4727940000000  0.5689750000000  0.4668730000000 1.0
C      1  0.4727940000000  0.5528200000000  0.5553630000000 1.0
C      1  0.4727940000000  0.4636690000000  0.5673430000000 1.0
C      1  0.4727940000000  0.4247260000000  0.4862570000000 1.0
C      1  0.4727940000000  0.4898090000000  0.4241640000000 1.0
C      1  0.5021620000000  0.4975750000000  0.4228400000000 1.0
C      1  0.5021620000000  0.5726350000000  0.4738500000000 1.0
C      1  0.5021620000000  0.5473150000000  0.5609990000000 1.0
C      1  0.5021620000000  0.4566080000000  0.5638490000000 1.0
C      1  0.5021620000000  0.4258670000000  0.4784620000000 1.0
C      1  0.5281530000000  0.4790280000000  0.4835330000000 1.0
C      1  0.5281530000000  0.5091810000000  0.4749660000000 1.0
C      1  0.5281530000000  0.5266460000000  0.5009950000000 1.0
C      1  0.5281530000000  0.5072870000000  0.5256490000000 1.0
C      1  0.5281530000000  0.4778580000000  0.5148570000000 1.0
C      1  0.4460860000000  0.4838220000000  0.4292010000000 1.0
C      1  0.4460860000000  0.5623350000000  0.4627360000000 1.0
C      1  0.4460860000000  0.5547030000000  0.5477680000000 1.0
C      1  0.4460860000000  0.4714740000000  0.5667870000000 1.0
C      1  0.4460860000000  0.4276670000000  0.4935080000000 1.0
C      1  0.4271900000000  0.4933560000000  0.4764640000000 1.0
C      1  0.4271900000000  0.5203310000000  0.4864080000000 1.0
C      1  0.4271900000000  0.5192100000000  0.5151360000000 1.0
C      1  0.4271900000000  0.4915410000000  0.5229470000000 1.0
C      1  0.4271900000000  0.4755620000000  0.4990460000000 1.0
C      1  0.5110320000000  0.4278770000000  0.4520280000000 1.0
C      1  0.5110320000000  0.5233370000000  0.4165830000000 1.0
C      1  0.5110320000000  0.5865460000000  0.4964170000000 1.0
C      1  0.5110320000000  0.5301520000000  0.5812030000000 1.0
C      1  0.5110320000000  0.4320890000000  0.5537690000000 1.0
C      1  0.5168180000000  0.4296890000000  0.5266130000000 1.0
C      1  0.5168180000000  0.4529620000000  0.4413550000000 1.0
C      1  0.5168180000000  0.5412400000000  0.4371420000000 1.0
C      1  0.5168180000000  0.5725250000000  0.5197970000000 1.0
C      1  0.5168180000000  0.5035840000000  0.5750930000000 1.0
END
