TITL C-38189-4514-375 1.90131195540248e-06 125000 -362.407647073362 0 0 60 (C5) n - 1
REM
REM in /home/bkarasulu/CARBON/AIRSS/Generating-Clusters/EDIP-Nigel-Params/Higher-Symm/Box-15A/Only-C60/SD-CG/FIRE-HFTN
REM
REM
REM
REM
REM
REM ./C.cell (414f73aa93bd7a1190c7fd0f31ff2f98)
REM
REM compiler GCC version 9.2.1 20190827 (Red Hat 9.2.1-1)
REM options -cpp -mtune=generic -march=x86-64 -g -O0 -fpre-include=/usr/include/finclude/math-vector-fortran.h
REM seed -1963513057 -357141409 1197883485 19491228 -541633981 -2051040529 -665782864 950587356 1730851286 -1635894348 1181799265 -1405327465 1065553558 -42772862 1202603756 -913825798 981351076 -1591971143 891196097 1851275514 -296320211 1223307266 -460874717 1629396030 1101328804 1568060809 -914948782 1103537441 -1174462955 149974969 643403454 1522978173 -1928662684
REM
CELL 1.54180   50.00000   50.00000   50.00000   90.00000   90.00000   90.00000
LATT -1
SFAC C  
C      1  0.4963200000000  0.4843800000000  0.4230510000000 1.0
C      1  0.4256800000000  0.4843800000000  0.4797220000000 1.0
C      1  0.4577480000000  0.4843800000000  0.5644160000000 1.0
C      1  0.5482070000000  0.4843800000000  0.5600900000000 1.0
C      1  0.5720450000000  0.4843800000000  0.4727210000000 1.0
C      1  0.4963200000000  0.5156200000000  0.4230510000000 1.0
C      1  0.4256800000000  0.5156200000000  0.4797220000000 1.0
C      1  0.4577480000000  0.5156200000000  0.5644160000000 1.0
C      1  0.5482070000000  0.5156200000000  0.5600900000000 1.0
C      1  0.5720450000000  0.5156200000000  0.4727210000000 1.0
C      1  0.4658670000000  0.5152030000000  0.4314910000000 1.0
C      1  0.4242970000000  0.5152030000000  0.5112920000000 1.0
C      1  0.4873450000000  0.5152030000000  0.5754870000000 1.0
C      1  0.5678820000000  0.5152030000000  0.5353620000000 1.0
C      1  0.5546080000000  0.5152030000000  0.4463680000000 1.0
C      1  0.4658670000000  0.4847970000000  0.4314910000000 1.0
C      1  0.4242970000000  0.4847970000000  0.5112920000000 1.0
C      1  0.4873450000000  0.4847970000000  0.5754870000000 1.0
C      1  0.5678820000000  0.4847970000000  0.5353620000000 1.0
C      1  0.5546080000000  0.4847970000000  0.4463680000000 1.0
C      1  0.4613390000000  0.4333460000000  0.5099130000000 1.0
C      1  0.4974810000000  0.4333460000000  0.5398320000000 1.0
C      1  0.5371040000000  0.4333460000000  0.5147040000000 1.0
C      1  0.5254510000000  0.4333460000000  0.4692560000000 1.0
C      1  0.4786250000000  0.4333460000000  0.4662950000000 1.0
C      1  0.4613390000000  0.5666540000000  0.5099130000000 1.0
C      1  0.4974810000000  0.5666540000000  0.5398320000000 1.0
C      1  0.5371040000000  0.5666540000000  0.5147040000000 1.0
C      1  0.5254510000000  0.5666540000000  0.4692560000000 1.0
C      1  0.4786250000000  0.5666540000000  0.4662950000000 1.0
C      1  0.4754840000000  0.4845630000000  0.4624510000000 1.0
C      1  0.4567130000000  0.4845630000000  0.5117130000000 1.0
C      1  0.4977630000000  0.4845630000000  0.5447880000000 1.0
C      1  0.5419040000000  0.4845630000000  0.5159670000000 1.0
C      1  0.5281350000000  0.4845630000000  0.4650810000000 1.0
C      1  0.4754840000000  0.5154370000000  0.4624510000000 1.0
C      1  0.4567130000000  0.5154370000000  0.5117130000000 1.0
C      1  0.4977630000000  0.5154370000000  0.5447880000000 1.0
C      1  0.5419040000000  0.5154370000000  0.5159670000000 1.0
C      1  0.5281350000000  0.5154370000000  0.4650810000000 1.0
C      1  0.5468190000000  0.5283640000000  0.4882300000000 1.0
C      1  0.5032740000000  0.5283640000000  0.4518350000000 1.0
C      1  0.4552040000000  0.5283640000000  0.4820030000000 1.0
C      1  0.4690410000000  0.5283640000000  0.5370420000000 1.0
C      1  0.5256620000000  0.5283640000000  0.5408900000000 1.0
C      1  0.5468190000000  0.4716360000000  0.4882300000000 1.0
C      1  0.5032740000000  0.4716360000000  0.4518350000000 1.0
C      1  0.4552040000000  0.4716360000000  0.4820030000000 1.0
C      1  0.4690410000000  0.4716360000000  0.5370420000000 1.0
C      1  0.5256620000000  0.4716360000000  0.5408900000000 1.0
C      1  0.5235440000000  0.5578370000000  0.5371170000000 1.0
C      1  0.5425760000000  0.5578370000000  0.4890780000000 1.0
C      1  0.5027690000000  0.5578370000000  0.4561330000000 1.0
C      1  0.4591360000000  0.5578370000000  0.4838110000000 1.0
C      1  0.4719750000000  0.5578370000000  0.5338610000000 1.0
C      1  0.5235440000000  0.4421630000000  0.5371170000000 1.0
C      1  0.5425760000000  0.4421630000000  0.4890780000000 1.0
C      1  0.5027690000000  0.4421630000000  0.4561330000000 1.0
C      1  0.4591360000000  0.4421630000000  0.4838110000000 1.0
C      1  0.4719750000000  0.4421630000000  0.5338610000000 1.0
END
