TITL C-38192-7909-480 4.70370906878947e-06 125000 -375.779568386294 0 0 60 (C3) n - 1
REM
REM in /home/bkarasulu/CARBON/AIRSS/Generating-Clusters/EDIP-Nigel-Params/Higher-Symm/Box-15A/Only-C60/SD-CG/FIRE-HFTN
REM
REM
REM
REM
REM
REM ./C.cell (414f73aa93bd7a1190c7fd0f31ff2f98)
REM
REM compiler GCC version 9.2.1 20190827 (Red Hat 9.2.1-1)
REM options -cpp -mtune=generic -march=x86-64 -g -O0 -fpre-include=/usr/include/finclude/math-vector-fortran.h
REM seed -685367624 1615662875 -176498864 752317210 -938880352 -470817610 -742508913 893535261 347132900 -68808551 1094035110 -1469371754 1319438395 -865690679 1988129255 1725267546 2029093243 156698460 -1751053657 23247062 -1025114492 -921565949 -437096588 -260568324 1831637578 357333034 -829074908 1106756877 1345195798 1879428510 387991760 515882738 -2043715432
REM
CELL 1.54180   50.00000   50.00000   50.00000   90.00000   90.00000   90.00000
LATT -1
SFAC C  
C      1  0.4894210000000  0.5647370000000  0.4708180000000 1.0
C      1  0.4894200000000  0.4929040000000  0.5706550000000 1.0
C      1  0.4894210000000  0.4423590000000  0.4585270000000 1.0
C      1  0.4502480000000  0.4438510000000  0.5032400000000 1.0
C      1  0.4502490000000  0.5252680000000  0.4497530000000 1.0
C      1  0.4502480000000  0.5308810000000  0.5470060000000 1.0
C      1  0.5925400000000  0.5076340000000  0.4744220000000 1.0
C      1  0.5925400000000  0.5183350000000  0.5194020000000 1.0
C      1  0.5925400000000  0.4740310000000  0.5061790000000 1.0
C      1  0.4929910000000  0.4209420000000  0.5107910000000 1.0
C      1  0.4929920000000  0.5301840000000  0.4261380000000 1.0
C      1  0.4929910000000  0.5488740000000  0.5630710000000 1.0
C      1  0.5189360000000  0.5332800000000  0.4358430000000 1.0
C      1  0.5189340000000  0.5389220000000  0.5609000000000 1.0
C      1  0.5189350000000  0.4277980000000  0.5032580000000 1.0
C      1  0.5279090000000  0.5205040000000  0.5799830000000 1.0
C      1  0.5279100000000  0.4204810000000  0.4777660000000 1.0
C      1  0.5279100000000  0.5590150000000  0.4422520000000 1.0
C      1  0.5307280000000  0.4657900000000  0.4601480000000 1.0
C      1  0.5307280000000  0.5516180000000  0.4903000000000 1.0
C      1  0.5307270000000  0.4825920000000  0.5495530000000 1.0
C      1  0.5172790000000  0.4959370000000  0.5716000000000 1.0
C      1  0.5172800000000  0.4400240000000  0.4606810000000 1.0
C      1  0.5172800000000  0.5640390000000  0.4677190000000 1.0
C      1  0.4850300000000  0.4882950000000  0.4505560000000 1.0
C      1  0.4850300000000  0.5486720000000  0.5145850000000 1.0
C      1  0.4850300000000  0.4630330000000  0.5348580000000 1.0
C      1  0.5142280000000  0.5524520000000  0.5144400000000 1.0
C      1  0.5142280000000  0.4612690000000  0.5382050000000 1.0
C      1  0.5142290000000  0.4862800000000  0.4473550000000 1.0
C      1  0.4710950000000  0.5538640000000  0.4890690000000 1.0
C      1  0.4710940000000  0.4825340000000  0.5521120000000 1.0
C      1  0.4710950000000  0.4636020000000  0.4588180000000 1.0
C      1  0.5262990000000  0.5114780000000  0.4533610000000 1.0
C      1  0.5262990000000  0.5346520000000  0.5332610000000 1.0
C      1  0.5262990000000  0.4538700000000  0.5133790000000 1.0
C      1  0.5543040000000  0.5292140000000  0.4928240000000 1.0
C      1  0.5543040000000  0.4916080000000  0.5288890000000 1.0
C      1  0.5543050000000  0.4791780000000  0.4782890000000 1.0
C      1  0.4171740000000  0.5046280000000  0.4711590000000 1.0
C      1  0.4171730000000  0.5226630000000  0.5184280000000 1.0
C      1  0.4171730000000  0.4727090000000  0.5104110000000 1.0
C      1  0.4738320000000  0.5482780000000  0.5422690000000 1.0
C      1  0.4738320000000  0.4392550000000  0.5206750000000 1.0
C      1  0.4738330000000  0.5124670000000  0.4370550000000 1.0
C      1  0.4269960000000  0.5097740000000  0.4450860000000 1.0
C      1  0.4269950000000  0.5426700000000  0.5359200000000 1.0
C      1  0.4269950000000  0.4475570000000  0.5189920000000 1.0
C      1  0.4525400000000  0.4648230000000  0.4818630000000 1.0
C      1  0.4525410000000  0.5332960000000  0.4786030000000 1.0
C      1  0.4525400000000  0.5018820000000  0.5395320000000 1.0
C      1  0.5850500000000  0.4806350000000  0.4795010000000 1.0
C      1  0.5850500000000  0.5274350000000  0.4934800000000 1.0
C      1  0.5850500000000  0.4919290000000  0.5270210000000 1.0
C      1  0.4255180000000  0.4957340000000  0.5284140000000 1.0
C      1  0.4255180000000  0.4775260000000  0.4820970000000 1.0
C      1  0.4255180000000  0.5267410000000  0.4894870000000 1.0
C      1  0.5478820000000  0.5198650000000  0.5208600000000 1.0
C      1  0.5478820000000  0.4720020000000  0.5067740000000 1.0
C      1  0.5478830000000  0.5081320000000  0.4723670000000 1.0
END
