TITL C-38194-9318-589 -2.52269653495298e-05 125000 -363.673415472027 0 0 60 (C3i) n - 1
REM
REM in /home/bkarasulu/CARBON/AIRSS/Generating-Clusters/EDIP-Nigel-Params/Higher-Symm/Box-15A/Only-C60/SD-CG/FIRE-HFTN
REM
REM
REM
REM
REM
REM ./C.cell (414f73aa93bd7a1190c7fd0f31ff2f98)
REM
REM compiler GCC version 9.2.1 20190827 (Red Hat 9.2.1-1)
REM options -cpp -mtune=generic -march=x86-64 -g -O0 -fpre-include=/usr/include/finclude/math-vector-fortran.h
REM seed 1693509562 544648334 -1936914978 1754897674 -1059780197 2025463983 1458223762 1813712678 774291012 905901864 1588211322 -721468676 -313235765 -1189016089 1401651186 71685773 -1792172486 733078515 1911740993 1744134263 -456113066 481248597 299945242 -1264348970 1696055912 1554965905 936549122 -845758119 -793050164 303271790 561428813 -1707404464 -748118807
REM
CELL 1.54180   50.00000   50.00000   50.00000   90.00000   90.00000   90.00000
LATT -1
SFAC C  
C      1  0.5706550000000  0.4803980000000  0.4887470000000 1.0
C      1  0.4293450000000  0.4999440000000  0.4773980000000 1.0
C      1  0.5706550000000  0.5195460000000  0.4886510000000 1.0
C      1  0.4293450000000  0.5196020000000  0.5112530000000 1.0
C      1  0.5706550000000  0.5000560000000  0.5226020000000 1.0
C      1  0.4293450000000  0.4804540000000  0.5113490000000 1.0
C      1  0.4749910000000  0.5427120000000  0.5005830000000 1.0
C      1  0.5250090000000  0.5208510000000  0.5372810000000 1.0
C      1  0.4749910000000  0.4781390000000  0.5366980000000 1.0
C      1  0.5250090000000  0.4572880000000  0.4994170000000 1.0
C      1  0.4749910000000  0.4791490000000  0.4627190000000 1.0
C      1  0.5250090000000  0.5218610000000  0.4633020000000 1.0
C      1  0.5377210000000  0.5545190000000  0.4964360000000 1.0
C      1  0.4622790000000  0.5303460000000  0.5454330000000 1.0
C      1  0.5377210000000  0.4758270000000  0.5489970000000 1.0
C      1  0.4622790000000  0.4454810000000  0.5035640000000 1.0
C      1  0.5377210000000  0.4696540000000  0.4545670000000 1.0
C      1  0.4622790000000  0.5241730000000  0.4510030000000 1.0
C      1  0.5206890000000  0.5697110000000  0.5322120000000 1.0
C      1  0.4793110000000  0.5069590000000  0.5764770000000 1.0
C      1  0.5206890000000  0.4372480000000  0.5442650000000 1.0
C      1  0.4793110000000  0.4302890000000  0.4677880000000 1.0
C      1  0.5206890000000  0.4930410000000  0.4235230000000 1.0
C      1  0.4793110000000  0.5627520000000  0.4557350000000 1.0
C      1  0.5530490000000  0.5136650000000  0.4652440000000 1.0
C      1  0.4469500000000  0.5369320000000  0.4944560000000 1.0
C      1  0.5530490000000  0.5232670000000  0.5292120000000 1.0
C      1  0.4469510000000  0.4863350000000  0.5347560000000 1.0
C      1  0.5530500000000  0.4630680000000  0.5055440000000 1.0
C      1  0.4469510000000  0.4767330000000  0.4707880000000 1.0
C      1  0.4812030000000  0.5424060000000  0.5288620000000 1.0
C      1  0.5187970000000  0.4962080000000  0.5511560000000 1.0
C      1  0.4812030000000  0.4538020000000  0.5222940000000 1.0
C      1  0.5187970000000  0.4575940000000  0.4711380000000 1.0
C      1  0.4812030000000  0.5037920000000  0.4488440000000 1.0
C      1  0.5187970000000  0.5461980000000  0.4777060000000 1.0
C      1  0.5030640000000  0.5478960000000  0.5700020000000 1.0
C      1  0.4969360000000  0.4633250000000  0.5764800000000 1.0
C      1  0.5030640000000  0.4154290000000  0.5064790000000 1.0
C      1  0.4969360000000  0.4521040000000  0.4299980000000 1.0
C      1  0.5030640000000  0.5366750000000  0.4235200000000 1.0
C      1  0.4969360000000  0.5845710000000  0.4935210000000 1.0
C      1  0.4403190000000  0.5142010000000  0.5384160000000 1.0
C      1  0.5596810000000  0.4738310000000  0.5315060000000 1.0
C      1  0.4403190000000  0.4596310000000  0.4930900000000 1.0
C      1  0.5596810000000  0.4857990000000  0.4615840000000 1.0
C      1  0.4403190000000  0.5261690000000  0.4684940000000 1.0
C      1  0.5596810000000  0.5403690000000  0.5069100000000 1.0
C      1  0.4919530000000  0.5588940000000  0.4815160000000 1.0
C      1  0.5080470000000  0.5454550000000  0.5417620000000 1.0
C      1  0.4919540000000  0.4865600000000  0.5602460000000 1.0
C      1  0.5080470000000  0.4411060000000  0.5184840000000 1.0
C      1  0.4919530000000  0.4545450000000  0.4582380000000 1.0
C      1  0.5080460000000  0.5134400000000  0.4397540000000 1.0
C      1  0.5119550000000  0.5891110000000  0.5153750000000 1.0
C      1  0.4880450000000  0.5312400000000  0.5848600000000 1.0
C      1  0.5119550000000  0.4421290000000  0.5694850000000 1.0
C      1  0.4880450000000  0.4108890000000  0.4846250000000 1.0
C      1  0.5119550000000  0.4687600000000  0.4151400000000 1.0
C      1  0.4880450000000  0.5578710000000  0.4305150000000 1.0
END
