TITL C-38184-643-181 -5.3582240444195e-05 125000 -365.028183216355 0 0 60 (C2) n - 1
REM
REM in /home/bkarasulu/CARBON/AIRSS/Generating-Clusters/EDIP-Nigel-Params/Higher-Symm/Box-15A/Only-C60/SD-CG/FIRE-HFTN
REM
REM
REM
REM
REM
REM ./C.cell (414f73aa93bd7a1190c7fd0f31ff2f98)
REM
REM compiler GCC version 9.2.1 20190827 (Red Hat 9.2.1-1)
REM options -cpp -mtune=generic -march=x86-64 -g -O0 -fpre-include=/usr/include/finclude/math-vector-fortran.h
REM seed -1225585259 410063034 1086001392 -1995547621 -1704680531 -81333200 190757101 1014544234 699792690 1996856913 629635864 676428154 1828648571 1370051255 179852176 473077402 1648875972 -591370157 -2110432698 458851286 -239017050 -1841010290 869758833 631883857 -319784397 -479154125 1990846203 983342314 136471041 1581077094 1918485986 632950463 -1236668554
REM
CELL 1.54180   50.00000   50.00000   50.00000   90.00000   90.00000   90.00000
LATT -1
SFAC C  
C      1  0.4857340000000  0.4293120000000  0.5190550000000 1.0
C      1  0.4857340000000  0.5706880000000  0.4809450000000 1.0
C      1  0.4645290000000  0.5147630000000  0.4352180000000 1.0
C      1  0.4645290000000  0.4852370000000  0.5647820000000 1.0
C      1  0.5103130000000  0.5363200000000  0.4680130000000 1.0
C      1  0.5103130000000  0.4636800000000  0.5319870000000 1.0
C      1  0.4613630000000  0.5562920000000  0.4705530000000 1.0
C      1  0.4613630000000  0.4437080000000  0.5294470000000 1.0
C      1  0.4507270000000  0.4857270000000  0.5229340000000 1.0
C      1  0.4507270000000  0.5142730000000  0.4770660000000 1.0
C      1  0.4435790000000  0.5474950000000  0.4950540000000 1.0
C      1  0.4435790000000  0.4525050000000  0.5049460000000 1.0
C      1  0.5581380000000  0.4820710000000  0.4729190000000 1.0
C      1  0.5581380000000  0.5179290000000  0.5270810000000 1.0
C      1  0.4772260000000  0.4905900000000  0.5102000000000 1.0
C      1  0.4772260000000  0.5094100000000  0.4898000000000 1.0
C      1  0.4622560000000  0.4695350000000  0.4568780000000 1.0
C      1  0.4622560000000  0.5304650000000  0.5431220000000 1.0
C      1  0.5124880000000  0.4658950000000  0.4564060000000 1.0
C      1  0.5124880000000  0.5341050000000  0.5435940000000 1.0
C      1  0.5359730000000  0.5196940000000  0.4743750000000 1.0
C      1  0.5359730000000  0.4803060000000  0.5256250000000 1.0
C      1  0.4908240000000  0.4999780000000  0.5675400000000 1.0
C      1  0.4908240000000  0.5000220000000  0.4324600000000 1.0
C      1  0.4974170000000  0.5302210000000  0.4944690000000 1.0
C      1  0.4974170000000  0.4697790000000  0.5055310000000 1.0
C      1  0.5134180000000  0.4405680000000  0.5637330000000 1.0
C      1  0.5134180000000  0.5594320000000  0.4362670000000 1.0
C      1  0.4867790000000  0.4364440000000  0.4886760000000 1.0
C      1  0.4867790000000  0.5635560000000  0.5113240000000 1.0
C      1  0.5243130000000  0.5354890000000  0.4267490000000 1.0
C      1  0.5243130000000  0.4645110000000  0.5732510000000 1.0
C      1  0.4269350000000  0.4869610000000  0.5055650000000 1.0
C      1  0.4269350000000  0.5130390000000  0.4944350000000 1.0
C      1  0.4639670000000  0.5413360000000  0.4461930000000 1.0
C      1  0.4639670000000  0.4586640000000  0.5538070000000 1.0
C      1  0.5591130000000  0.4575940000000  0.4904910000000 1.0
C      1  0.5591130000000  0.5424060000000  0.5095090000000 1.0
C      1  0.5131710000000  0.4433500000000  0.4744710000000 1.0
C      1  0.5131710000000  0.5566500000000  0.5255290000000 1.0
C      1  0.4880260000000  0.5267520000000  0.5565240000000 1.0
C      1  0.4880260000000  0.4732480000000  0.4434760000000 1.0
C      1  0.5376070000000  0.5599910000000  0.5126970000000 1.0
C      1  0.5376070000000  0.4400090000000  0.4873030000000 1.0
C      1  0.4473240000000  0.4958470000000  0.4521710000000 1.0
C      1  0.4473240000000  0.5041530000000  0.5478290000000 1.0
C      1  0.5757750000000  0.5038200000000  0.4853300000000 1.0
C      1  0.5757750000000  0.4961800000000  0.5146700000000 1.0
C      1  0.5118680000000  0.5667010000000  0.4648310000000 1.0
C      1  0.5118680000000  0.4332990000000  0.5351690000000 1.0
C      1  0.5190690000000  0.4911270000000  0.5650880000000 1.0
C      1  0.5190690000000  0.5088730000000  0.4349120000000 1.0
C      1  0.4608290000000  0.5502910000000  0.5198650000000 1.0
C      1  0.4608290000000  0.4497090000000  0.4801350000000 1.0
C      1  0.5630820000000  0.5312830000000  0.4821560000000 1.0
C      1  0.5630820000000  0.4687170000000  0.5178440000000 1.0
C      1  0.5244820000000  0.4846390000000  0.4946080000000 1.0
C      1  0.5244820000000  0.5153610000000  0.5053920000000 1.0
C      1  0.5336770000000  0.4861190000000  0.4515170000000 1.0
C      1  0.5336770000000  0.5138810000000  0.5484830000000 1.0
END
