TITL C-38195-9455-15 -0.0396642065380943 125000 -362.550282768205 0 0 60 (C1) n - 1
REM
REM in /home/bkarasulu/CARBON/AIRSS/Generating-Clusters/EDIP-Nigel-Params/Higher-Symm/Box-15A/Only-C60/SD-CG/FIRE-HFTN
REM
REM
REM
REM
REM
REM ./C.cell (414f73aa93bd7a1190c7fd0f31ff2f98)
REM
REM compiler GCC version 9.2.1 20190827 (Red Hat 9.2.1-1)
REM options -cpp -mtune=generic -march=x86-64 -g -O0 -fpre-include=/usr/include/finclude/math-vector-fortran.h
REM seed -414739777 1111765858 -2008325363 -1589395534 -1049345974 -414112227 1706807064 699984066 1149860470 -163919307 442194565 1949802268 -1648022131 662456749 1065201212 1555616067 -846023726 -296385647 -957226309 -1489908210 -1100786814 -375921972 -1557028500 1730233789 -1259349863 506932591 -1972364453 1124585273 2076375885 -1000018446 444022579 -919867287 156050502
REM
CELL 1.54180   50.00000   50.00000   50.00000   90.00000   90.00000   90.00000
LATT -1
SFAC C  
C      1  0.4808130000000  0.5017760000000  0.5393310000000 1.0
C      1  0.4969020000000  0.4824140000000  0.5223550000000 1.0
C      1  0.4807330000000  0.4778170000000  0.4983830000000 1.0
C      1  0.4921820000000  0.4773340000000  0.4723390000000 1.0
C      1  0.4745980000000  0.4862640000000  0.4508620000000 1.0
C      1  0.4767260000000  0.5150730000000  0.4542030000000 1.0
C      1  0.4567670000000  0.5294680000000  0.4695060000000 1.0
C      1  0.4683150000000  0.5487890000000  0.4882150000000 1.0
C      1  0.4512450000000  0.5611330000000  0.5100410000000 1.0
C      1  0.4611700000000  0.5508190000000  0.5362720000000 1.0
C      1  0.4840680000000  0.5312810000000  0.5296940000000 1.0
C      1  0.3930060000000  0.4645200000000  0.4636760000000 1.0
C      1  0.3928360000000  0.4919410000000  0.4575470000000 1.0
C      1  0.3774830000000  0.5082400000000  0.4742520000000 1.0
C      1  0.3855000000000  0.5267240000000  0.4932740000000 1.0
C      1  0.3741530000000  0.5275170000000  0.5185780000000 1.0
C      1  0.3824940000000  0.5195520000000  0.5428820000000 1.0
C      1  0.4031180000000  0.5026680000000  0.5508340000000 1.0
C      1  0.3993880000000  0.4750840000000  0.5484940000000 1.0
C      1  0.4145800000000  0.4612110000000  0.5297080000000 1.0
C      1  0.4037900000000  0.4473460000000  0.5079960000000 1.0
C      1  0.4113250000000  0.4535850000000  0.4818060000000 1.0
C      1  0.4465580000000  0.4766610000000  0.4542330000000 1.0
C      1  0.4194110000000  0.5026640000000  0.4526250000000 1.0
C      1  0.4282650000000  0.5251400000000  0.4685650000000 1.0
C      1  0.4127350000000  0.5348080000000  0.4909480000000 1.0
C      1  0.4236380000000  0.5520620000000  0.5109280000000 1.0
C      1  0.4354370000000  0.5401880000000  0.5458800000000 1.0
C      1  0.4305340000000  0.5122460000000  0.5490240000000 1.0
C      1  0.4517150000000  0.4932080000000  0.5421110000000 1.0
C      1  0.4424550000000  0.4690610000000  0.5276230000000 1.0
C      1  0.4554860000000  0.4648360000000  0.5019120000000 1.0
C      1  0.4389410000000  0.4618880000000  0.4782620000000 1.0
C      1  0.6171370000000  0.5201030000000  0.4860880000000 1.0
C      1  0.6136040000000  0.5164230000000  0.5155260000000 1.0
C      1  0.5971600000000  0.5214740000000  0.5390030000000 1.0
C      1  0.5874230000000  0.5008180000000  0.5562780000000 1.0
C      1  0.5693690000000  0.4802390000000  0.5461300000000 1.0
C      1  0.5797380000000  0.4721040000000  0.5189010000000 1.0
C      1  0.5626540000000  0.4501210000000  0.5074360000000 1.0
C      1  0.5715810000000  0.4429090000000  0.4797540000000 1.0
C      1  0.5986020000000  0.4485040000000  0.4734470000000 1.0
C      1  0.5969150000000  0.4722580000000  0.4579050000000 1.0
C      1  0.6110260000000  0.4968280000000  0.4672990000000 1.0
C      1  0.5634110000000  0.5074160000000  0.4527750000000 1.0
C      1  0.5882310000000  0.5229190000000  0.4535590000000 1.0
C      1  0.5908980000000  0.5448940000000  0.4721470000000 1.0
C      1  0.5885870000000  0.5426140000000  0.5013320000000 1.0
C      1  0.5641290000000  0.5293390000000  0.5105330000000 1.0
C      1  0.5598580000000  0.5225210000000  0.5391520000000 1.0
C      1  0.5436860000000  0.4956620000000  0.5410910000000 1.0
C      1  0.5267520000000  0.4868060000000  0.5164980000000 1.0
C      1  0.5368570000000  0.4623170000000  0.5022710000000 1.0
C      1  0.5517490000000  0.4615590000000  0.4663680000000 1.0
C      1  0.5694290000000  0.4777850000000  0.4462500000000 1.0
C      1  0.5024620000000  0.5132430000000  0.4831310000000 1.0
C      1  0.5542580000000  0.4972160000000  0.4814160000000 1.0
C      1  0.5772700000000  0.4962950000000  0.5008330000000 1.0
C      1  0.5291450000000  0.5074390000000  0.4950630000000 1.0
C      1  0.4916650000000  0.5358040000000  0.5004690000000 1.0
END
