TITL C-38199-1586-129 4.91986198122249e-07 125000 -362.717563776104 0 0 60 (C1) n - 1
REM
REM in /home/bkarasulu/CARBON/AIRSS/Generating-Clusters/EDIP-Nigel-Params/Higher-Symm/Box-15A/Only-C60/SD-CG/FIRE-HFTN
REM
REM
REM
REM
REM
REM ./C.cell (414f73aa93bd7a1190c7fd0f31ff2f98)
REM
REM compiler GCC version 9.2.1 20190827 (Red Hat 9.2.1-1)
REM options -cpp -mtune=generic -march=x86-64 -g -O0 -fpre-include=/usr/include/finclude/math-vector-fortran.h
REM seed -1834508877 -488528845 -1001744622 627964747 810629591 -1399099215 931545431 -2093015319 1827491534 -171334167 1035696497 1824594260 2007021880 1885208682 878612987 1478029901 -745409602 -2026642514 1468163371 -1031286417 779815874 927195186 493460882 90327401 -579689594 -928222580 1915527621 -885122470 1988392899 635160083 -402940946 1666399738 1559778981
REM
CELL 1.54180   50.00000   50.00000   50.00000   90.00000   90.00000   90.00000
LATT -1
SFAC C  
C      1  0.4436880000000  0.5231380000000  0.4538190000000 1.0
C      1  0.5321560000000  0.5243350000000  0.4212180000000 1.0
C      1  0.5863650000000  0.5372090000000  0.4926300000000 1.0
C      1  0.5363420000000  0.5355510000000  0.5720340000000 1.0
C      1  0.4465110000000  0.5132140000000  0.5499180000000 1.0
C      1  0.4877470000000  0.4741150000000  0.5247540000000 1.0
C      1  0.4723440000000  0.4704450000000  0.4999470000000 1.0
C      1  0.4883940000000  0.4811540000000  0.4778130000000 1.0
C      1  0.5136850000000  0.4925000000000  0.4887550000000 1.0
C      1  0.5121870000000  0.4902000000000  0.5188260000000 1.0
C      1  0.4369370000000  0.5138850000000  0.4788300000000 1.0
C      1  0.5080760000000  0.5172630000000  0.4334680000000 1.0
C      1  0.5708110000000  0.5283580000000  0.4714610000000 1.0
C      1  0.5544500000000  0.5289310000000  0.5521310000000 1.0
C      1  0.4716890000000  0.5130800000000  0.5613500000000 1.0
C      1  0.4645860000000  0.5332000000000  0.4409750000000 1.0
C      1  0.5438170000000  0.5434460000000  0.4361290000000 1.0
C      1  0.5784980000000  0.5478270000000  0.5156570000000 1.0
C      1  0.5100040000000  0.5386030000000  0.5733030000000 1.0
C      1  0.4372290000000  0.5204590000000  0.5262100000000 1.0
C      1  0.5393480000000  0.4844610000000  0.4759180000000 1.0
C      1  0.5373750000000  0.4824820000000  0.5322940000000 1.0
C      1  0.4771780000000  0.4699560000000  0.5519980000000 1.0
C      1  0.4429340000000  0.4675620000000  0.4983050000000 1.0
C      1  0.4840030000000  0.4757780000000  0.4494110000000 1.0
C      1  0.4883600000000  0.5363360000000  0.5563470000000 1.0
C      1  0.4466050000000  0.5289290000000  0.5017710000000 1.0
C      1  0.4915100000000  0.5386090000000  0.4440860000000 1.0
C      1  0.5509820000000  0.5481410000000  0.4626580000000 1.0
C      1  0.5550450000000  0.5487390000000  0.5303870000000 1.0
C      1  0.4704350000000  0.4525420000000  0.4425340000000 1.0
C      1  0.5391620000000  0.4598450000000  0.4627790000000 1.0
C      1  0.5377740000000  0.4560420000000  0.5412930000000 1.0
C      1  0.4691650000000  0.4442080000000  0.5589770000000 1.0
C      1  0.4313760000000  0.4425030000000  0.5021340000000 1.0
C      1  0.4829650000000  0.4893070000000  0.5716580000000 1.0
C      1  0.4303570000000  0.4869700000000  0.4825500000000 1.0
C      1  0.4957380000000  0.4924110000000  0.4304310000000 1.0
C      1  0.5599960000000  0.5027630000000  0.4731090000000 1.0
C      1  0.5532960000000  0.5025310000000  0.5431350000000 1.0
C      1  0.5285240000000  0.5515090000000  0.5151240000000 1.0
C      1  0.4924900000000  0.5464120000000  0.5277900000000 1.0
C      1  0.4736790000000  0.5427580000000  0.5009110000000 1.0
C      1  0.4981840000000  0.5493340000000  0.4714200000000 1.0
C      1  0.5276360000000  0.5521970000000  0.4824620000000 1.0
C      1  0.4735550000000  0.5743020000000  0.4982940000000 1.0
C      1  0.4926040000000  0.5787800000000  0.4755620000000 1.0
C      1  0.5173780000000  0.5888020000000  0.4873550000000 1.0
C      1  0.5183240000000  0.5803680000000  0.5153520000000 1.0
C      1  0.4900290000000  0.5770540000000  0.5239330000000 1.0
C      1  0.5302860000000  0.4353890000000  0.4691820000000 1.0
C      1  0.5306820000000  0.4321850000000  0.5312430000000 1.0
C      1  0.4747500000000  0.4202090000000  0.5482820000000 1.0
C      1  0.4404170000000  0.4171790000000  0.5010520000000 1.0
C      1  0.4730010000000  0.4277360000000  0.4525770000000 1.0
C      1  0.4849730000000  0.4140000000000  0.5231130000000 1.0
C      1  0.4678550000000  0.4119090000000  0.4997230000000 1.0
C      1  0.4839670000000  0.4178490000000  0.4761980000000 1.0
C      1  0.5108920000000  0.4237780000000  0.4852320000000 1.0
C      1  0.5116580000000  0.4212230000000  0.5141910000000 1.0
END
