TITL C-38192-7909-508 0.000222788236886699 125000 -348.31872612928 0 0 60 (Ci) n - 1
REM
REM in /home/bkarasulu/CARBON/AIRSS/Generating-Clusters/EDIP-Nigel-Params/Higher-Symm/Box-15A/Only-C60/SD-CG/FIRE-HFTN
REM
REM
REM
REM
REM
REM ./C.cell (414f73aa93bd7a1190c7fd0f31ff2f98)
REM
REM compiler GCC version 9.2.1 20190827 (Red Hat 9.2.1-1)
REM options -cpp -mtune=generic -march=x86-64 -g -O0 -fpre-include=/usr/include/finclude/math-vector-fortran.h
REM seed -1970650286 -1220584462 -1308385633 5046829 1585259497 850033139 -881457284 -1238512105 -1390462759 1263407131 1209264012 -40412779 -1709594747 215516230 -771753723 -1074362430 -1673680199 547477013 1536813814 -1531349786 -1696263003 -1707623330 -181068690 -2063307012 -1531869570 -1893033410 -2101859273 -1039655927 -1435953384 775931576 -263047316 -1918781585 233497056
REM
CELL 1.54180   50.00000   50.00000   50.00000   90.00000   90.00000   90.00000
LATT -1
SFAC C  
C      1  0.5108180000000  0.4264350000000  0.4768070000000 1.0
C      1  0.4895700000000  0.4249830000000  0.5228460000000 1.0
C      1  0.5104300000000  0.5750170000000  0.4771540000000 1.0
C      1  0.4891820000000  0.5735650000000  0.5231930000000 1.0
C      1  0.5551040000000  0.4427490000000  0.4722630000000 1.0
C      1  0.4459430000000  0.4417930000000  0.5293830000000 1.0
C      1  0.5540570000000  0.5582070000000  0.4706170000000 1.0
C      1  0.4448960000000  0.5572510000000  0.5277370000000 1.0
C      1  0.4896230000000  0.5462010000000  0.4438300000000 1.0
C      1  0.5120050000000  0.5458720000000  0.5562080000000 1.0
C      1  0.4879950000000  0.4541280000000  0.4437920000000 1.0
C      1  0.5103770000000  0.4537990000000  0.5561700000000 1.0
C      1  0.4452440000000  0.4857200000000  0.4760480000000 1.0
C      1  0.5555760000000  0.4856470000000  0.5223230000000 1.0
C      1  0.4444240000000  0.5143530000000  0.4776770000000 1.0
C      1  0.5547560000000  0.5142800000000  0.5239520000000 1.0
C      1  0.5150140000000  0.5221170000000  0.4979020000000 1.0
C      1  0.4879610000000  0.5215280000000  0.4977680000000 1.0
C      1  0.5120390000000  0.4784720000000  0.5022320000000 1.0
C      1  0.4849860000000  0.4778830000000  0.5020980000000 1.0
C      1  0.4431710000000  0.4851920000000  0.5224270000000 1.0
C      1  0.5500750000000  0.4864100000000  0.4749610000000 1.0
C      1  0.4499250000000  0.5135900000000  0.5250390000000 1.0
C      1  0.5568290000000  0.5148080000000  0.4775730000000 1.0
C      1  0.5687980000000  0.4713920000000  0.5424150000000 1.0
C      1  0.4299810000000  0.4731300000000  0.4563790000000 1.0
C      1  0.5700190000000  0.5268700000000  0.5436210000000 1.0
C      1  0.4312020000000  0.5286080000000  0.4575850000000 1.0
C      1  0.4872630000000  0.5629040000000  0.4673930000000 1.0
C      1  0.5127970000000  0.5614570000000  0.5318340000000 1.0
C      1  0.4872030000000  0.4385430000000  0.4681660000000 1.0
C      1  0.5127370000000  0.4370960000000  0.5326070000000 1.0
C      1  0.5367950000000  0.5629280000000  0.5155470000000 1.0
C      1  0.4636950000000  0.5619930000000  0.4841560000000 1.0
C      1  0.5363050000000  0.4380070000000  0.5158440000000 1.0
C      1  0.4632050000000  0.4370720000000  0.4844530000000 1.0
C      1  0.4386060000000  0.4652090000000  0.5413290000000 1.0
C      1  0.5630560000000  0.4662060000000  0.4608230000000 1.0
C      1  0.4369440000000  0.5337940000000  0.5391770000000 1.0
C      1  0.5613940000000  0.5347910000000  0.4586710000000 1.0
C      1  0.4642370000000  0.4297100000000  0.5122460000000 1.0
C      1  0.5359180000000  0.4305110000000  0.4882210000000 1.0
C      1  0.4640820000000  0.5694890000000  0.5117790000000 1.0
C      1  0.5357630000000  0.5702900000000  0.4877540000000 1.0
C      1  0.4800750000000  0.5197140000000  0.4380960000000 1.0
C      1  0.5207340000000  0.5191130000000  0.5621640000000 1.0
C      1  0.4792660000000  0.4808870000000  0.4378360000000 1.0
C      1  0.5199250000000  0.4802860000000  0.5619040000000 1.0
C      1  0.4570840000000  0.4715040000000  0.4995090000000 1.0
C      1  0.5401750000000  0.4726510000000  0.5001090000000 1.0
C      1  0.4598250000000  0.5273490000000  0.4998910000000 1.0
C      1  0.5429160000000  0.5284960000000  0.5004910000000 1.0
C      1  0.5080170000000  0.5140020000000  0.4339000000000 1.0
C      1  0.4926490000000  0.5145240000000  0.5667600000000 1.0
C      1  0.5073510000000  0.4854760000000  0.4332400000000 1.0
C      1  0.4919830000000  0.4859980000000  0.5661000000000 1.0
C      1  0.4158690000000  0.4858800000000  0.4370780000000 1.0
C      1  0.5816900000000  0.4873280000000  0.5600230000000 1.0
C      1  0.4183100000000  0.5126720000000  0.4399770000000 1.0
C      1  0.5841310000000  0.5141200000000  0.5629220000000 1.0
END
