TITL C-38191-7580-188 -2.22153104881497e-07 125000 -377.186909604486 0 0 60 (C1) n - 1
REM
REM in /home/bkarasulu/CARBON/AIRSS/Generating-Clusters/EDIP-Nigel-Params/Higher-Symm/Box-15A/Only-C60/SD-CG/FIRE-HFTN
REM
REM
REM
REM
REM
REM ./C.cell (414f73aa93bd7a1190c7fd0f31ff2f98)
REM
REM compiler GCC version 9.2.1 20190827 (Red Hat 9.2.1-1)
REM options -cpp -mtune=generic -march=x86-64 -g -O0 -fpre-include=/usr/include/finclude/math-vector-fortran.h
REM seed -1567982518 -1973899536 909776384 -2091470418 1192122903 -467749022 -856154125 -1797791914 -402041629 595063480 1381727159 1309129525 -1427195393 -412494341 -79889152 616615352 -1465190601 1436474536 799067016 1312253060 850859735 807182312 -1078669576 -1128282789 -1007141144 -499151429 1028996520 1349409783 543105157 1527043604 -1369760541 -1858480308 1602536362
REM
CELL 1.54180   50.00000   50.00000   50.00000   90.00000   90.00000   90.00000
LATT -1
SFAC C  
C      1  0.5580080000000  0.4612360000000  0.4719470000000 1.0
C      1  0.4913280000000  0.4609580000000  0.4361390000000 1.0
C      1  0.4367550000000  0.4603360000000  0.4883780000000 1.0
C      1  0.4695150000000  0.4612480000000  0.5566150000000 1.0
C      1  0.5445600000000  0.4613140000000  0.5464340000000 1.0
C      1  0.4388840000000  0.4940180000000  0.5411810000000 1.0
C      1  0.5208060000000  0.4938660000000  0.5712010000000 1.0
C      1  0.5742790000000  0.4938110000000  0.5021760000000 1.0
C      1  0.5248960000000  0.4938090000000  0.4301580000000 1.0
C      1  0.4414040000000  0.4939680000000  0.4554740000000 1.0
C      1  0.4692980000000  0.5341370000000  0.4454520000000 1.0
C      1  0.4379020000000  0.5348570000000  0.5126290000000 1.0
C      1  0.4926990000000  0.5339100000000  0.5622320000000 1.0
C      1  0.5570710000000  0.5338120000000  0.5262710000000 1.0
C      1  0.5425850000000  0.5337940000000  0.4539610000000 1.0
C      1  0.5708610000000  0.5089030000000  0.4779860000000 1.0
C      1  0.5007720000000  0.5088840000000  0.4261460000000 1.0
C      1  0.4294540000000  0.5084040000000  0.4779930000000 1.0
C      1  0.4556680000000  0.5092020000000  0.5589750000000 1.0
C      1  0.5428150000000  0.5089260000000  0.5605450000000 1.0
C      1  0.4387000000000  0.5353490000000  0.4835450000000 1.0
C      1  0.4657730000000  0.5347130000000  0.5526870000000 1.0
C      1  0.5396320000000  0.5344130000000  0.5488940000000 1.0
C      1  0.5588000000000  0.5343940000000  0.4774780000000 1.0
C      1  0.4967120000000  0.5344480000000  0.4373530000000 1.0
C      1  0.4486670000000  0.4663420000000  0.5378190000000 1.0
C      1  0.5202320000000  0.4665000000000  0.5604110000000 1.0
C      1  0.5637920000000  0.4664560000000  0.4993930000000 1.0
C      1  0.5191780000000  0.4663510000000  0.4391370000000 1.0
C      1  0.4480840000000  0.4661570000000  0.4628590000000 1.0
C      1  0.5675510000000  0.5075360000000  0.5265780000000 1.0
C      1  0.5460680000000  0.5075220000000  0.4440560000000 1.0
C      1  0.4608730000000  0.5079070000000  0.4393510000000 1.0
C      1  0.4294550000000  0.5073150000000  0.5167420000000 1.0
C      1  0.4955280000000  0.5076050000000  0.5722390000000 1.0
C      1  0.5290580000000  0.4623730000000  0.4678410000000 1.0
C      1  0.4784600000000  0.4621800000000  0.4623860000000 1.0
C      1  0.4576750000000  0.4620520000000  0.5088250000000 1.0
C      1  0.4954020000000  0.4624360000000  0.5429820000000 1.0
C      1  0.5395380000000  0.4624850000000  0.5176270000000 1.0
C      1  0.5235400000000  0.4374090000000  0.5098530000000 1.0
C      1  0.5167200000000  0.4373310000000  0.4807620000000 1.0
C      1  0.4869530000000  0.4371940000000  0.4782610000000 1.0
C      1  0.4754050000000  0.4371420000000  0.5058460000000 1.0
C      1  0.4980010000000  0.4373480000000  0.5253640000000 1.0
C      1  0.5152170000000  0.5423050000000  0.4581250000000 1.0
C      1  0.4647530000000  0.5425060000000  0.4727640000000 1.0
C      1  0.4630640000000  0.5425780000000  0.5250180000000 1.0
C      1  0.5124720000000  0.5423330000000  0.5428510000000 1.0
C      1  0.5447190000000  0.5422970000000  0.5014860000000 1.0
C      1  0.5223800000000  0.4869320000000  0.5112070000000 1.0
C      1  0.5176630000000  0.4868640000000  0.4820900000000 1.0
C      1  0.4885150000000  0.4867280000000  0.4775560000000 1.0
C      1  0.4752490000000  0.4866350000000  0.5038670000000 1.0
C      1  0.4961420000000  0.4868550000000  0.5246650000000 1.0
C      1  0.5071300000000  0.5646610000000  0.5244990000000 1.0
C      1  0.5255690000000  0.5646130000000  0.5009260000000 1.0
C      1  0.5088130000000  0.5646390000000  0.4761270000000 1.0
C      1  0.4799960000000  0.5648370000000  0.4843530000000 1.0
C      1  0.4789610000000  0.5648670000000  0.5142840000000 1.0
END
