TITL C-38186-4112-241 -2.91270138990394e-05 125000 -358.133213763668 0 0 60 (Ci) n - 1
REM
REM in /home/bkarasulu/CARBON/AIRSS/Generating-Clusters/EDIP-Nigel-Params/Higher-Symm/Box-15A/Only-C60/SD-CG/FIRE-HFTN
REM
REM
REM
REM
REM
REM ./C.cell (414f73aa93bd7a1190c7fd0f31ff2f98)
REM
REM compiler GCC version 9.2.1 20190827 (Red Hat 9.2.1-1)
REM options -cpp -mtune=generic -march=x86-64 -g -O0 -fpre-include=/usr/include/finclude/math-vector-fortran.h
REM seed -1952178592 -345891242 -1980332701 116470239 1178820395 2090919833 -225241265 1578101295 -300218053 21912731 -1554899066 -1726695692 -998851391 -868436376 1533322771 -1221421057 65583659 1511800644 -343301519 -1282649288 1842617601 -1226386507 906761174 -1379936900 945670687 -1008751382 299813821 -183496260 76239768 1551938938 -38874397 1453684042 1674869858
REM
CELL 1.54180   50.00000   50.00000   50.00000   90.00000   90.00000   90.00000
LATT -1
SFAC C  
C      1  0.5477330000000  0.4362240000000  0.5067300000000 1.0
C      1  0.4522670000000  0.5637760000000  0.4932700000000 1.0
C      1  0.4853590000000  0.4999990000000  0.5807340000000 1.0
C      1  0.5146410000000  0.5000010000000  0.4192660000000 1.0
C      1  0.5335270000000  0.4854920000000  0.5257580000000 1.0
C      1  0.4664730000000  0.5145080000000  0.4742420000000 1.0
C      1  0.4395050000000  0.5051790000000  0.4825070000000 1.0
C      1  0.5604950000000  0.4948210000000  0.5174930000000 1.0
C      1  0.5585980000000  0.5247290000000  0.4733710000000 1.0
C      1  0.4414020000000  0.4752710000000  0.5266290000000 1.0
C      1  0.4366390000000  0.4502070000000  0.5126390000000 1.0
C      1  0.5633610000000  0.5497930000000  0.4873610000000 1.0
C      1  0.5381730000000  0.4758780000000  0.4480360000000 1.0
C      1  0.4618270000000  0.5241220000000  0.5519640000000 1.0
C      1  0.4864060000000  0.4820450000000  0.5083290000000 1.0
C      1  0.5135940000000  0.5179550000000  0.4916710000000 1.0
C      1  0.5455950000000  0.5253210000000  0.4470070000000 1.0
C      1  0.4544050000000  0.4746790000000  0.5529930000000 1.0
C      1  0.5352580000000  0.4513500000000  0.4869250000000 1.0
C      1  0.4647420000000  0.5486500000000  0.5130750000000 1.0
C      1  0.5557160000000  0.4314050000000  0.5326020000000 1.0
C      1  0.4442840000000  0.5685950000000  0.4673980000000 1.0
C      1  0.5535540000000  0.4493620000000  0.5535450000000 1.0
C      1  0.4464460000000  0.5506380000000  0.4464550000000 1.0
C      1  0.4417370000000  0.5016590000000  0.5121250000000 1.0
C      1  0.5582630000000  0.4983410000000  0.4878750000000 1.0
C      1  0.5385780000000  0.5005420000000  0.4347150000000 1.0
C      1  0.4614220000000  0.4994580000000  0.5652850000000 1.0
C      1  0.4842830000000  0.5118730000000  0.4989580000000 1.0
C      1  0.5157170000000  0.4881270000000  0.5010420000000 1.0
C      1  0.5718870000000  0.5151850000000  0.5333600000000 1.0
C      1  0.4281130000000  0.4848150000000  0.4666400000000 1.0
C      1  0.4970930000000  0.4609120000000  0.4554650000000 1.0
C      1  0.5029070000000  0.5390880000000  0.5445350000000 1.0
C      1  0.4695590000000  0.4604480000000  0.4650070000000 1.0
C      1  0.5304410000000  0.5395520000000  0.5349930000000 1.0
C      1  0.5478220000000  0.4741110000000  0.4743210000000 1.0
C      1  0.4521780000000  0.5258890000000  0.5256790000000 1.0
C      1  0.5478840000000  0.5735670000000  0.4852270000000 1.0
C      1  0.4521160000000  0.4264330000000  0.5147730000000 1.0
C      1  0.4774690000000  0.4344190000000  0.5049170000000 1.0
C      1  0.5225310000000  0.5655810000000  0.4950830000000 1.0
C      1  0.5127500000000  0.4409150000000  0.4715680000000 1.0
C      1  0.4872500000000  0.5590850000000  0.5284320000000 1.0
C      1  0.4760090000000  0.4503660000000  0.5926610000000 1.0
C      1  0.5239910000000  0.5496340000000  0.4073390000000 1.0
C      1  0.5516820000000  0.5264970000000  0.5474220000000 1.0
C      1  0.4483180000000  0.4735030000000  0.4525780000000 1.0
C      1  0.5381260000000  0.5468750000000  0.4304090000000 1.0
C      1  0.4618740000000  0.4531250000000  0.5695910000000 1.0
C      1  0.5318900000000  0.4607290000000  0.5405060000000 1.0
C      1  0.4681100000000  0.5392710000000  0.4594940000000 1.0
C      1  0.5110940000000  0.5256740000000  0.4072050000000 1.0
C      1  0.4889060000000  0.4743260000000  0.5927950000000 1.0
C      1  0.5310560000000  0.5390090000000  0.5047510000000 1.0
C      1  0.4689440000000  0.4609910000000  0.4952490000000 1.0
C      1  0.5040970000000  0.4732730000000  0.4294350000000 1.0
C      1  0.4959030000000  0.5267270000000  0.5705650000000 1.0
C      1  0.5039960000000  0.5762210000000  0.5132170000000 1.0
C      1  0.4960040000000  0.4237790000000  0.4867830000000 1.0
END
