TITL C-38186-4112-260 3.94921451995745e-07 125000 -341.536193188909 0 0 60 (C1) n - 1
REM
REM in /home/bkarasulu/CARBON/AIRSS/Generating-Clusters/EDIP-Nigel-Params/Higher-Symm/Box-15A/Only-C60/SD-CG/FIRE-HFTN
REM
REM
REM
REM
REM
REM ./C.cell (414f73aa93bd7a1190c7fd0f31ff2f98)
REM
REM compiler GCC version 9.2.1 20190827 (Red Hat 9.2.1-1)
REM options -cpp -mtune=generic -march=x86-64 -g -O0 -fpre-include=/usr/include/finclude/math-vector-fortran.h
REM seed -867237105 -1859658173 1583712072 1561532779 1944367153 -362494949 -863886563 632106523 -2009898145 837971047 1588384311 -427233801 -787761219 1420519386 1931661067 -836684113 -955922758 -1199811076 -1002138616 -189451759 -1573906452 -513356998 -1911705151 1649904745 1625156817 2025512873 -42183094 -2028051916 1678453048 -1345530034 1702757443 -468795972 -1035651741
REM
CELL 1.54180   50.00000   50.00000   50.00000   90.00000   90.00000   90.00000
LATT -1
SFAC C  
C      1  0.5471600000000  0.5423180000000  0.4493190000000 1.0
C      1  0.5424020000000  0.4533700000000  0.4498300000000 1.0
C      1  0.4532850000000  0.4573580000000  0.4494130000000 1.0
C      1  0.4572920000000  0.5473120000000  0.4497260000000 1.0
C      1  0.5424780000000  0.5397620000000  0.5497550000000 1.0
C      1  0.5393680000000  0.4559270000000  0.5511520000000 1.0
C      1  0.4559220000000  0.4616530000000  0.5505410000000 1.0
C      1  0.4632360000000  0.5408380000000  0.5513720000000 1.0
C      1  0.4397770000000  0.5097820000000  0.4780680000000 1.0
C      1  0.5097310000000  0.5601760000000  0.4777780000000 1.0
C      1  0.5607530000000  0.4900290000000  0.4781750000000 1.0
C      1  0.4904500000000  0.4398110000000  0.4780860000000 1.0
C      1  0.4418980000000  0.5077560000000  0.5223440000000 1.0
C      1  0.5083060000000  0.5575980000000  0.5220480000000 1.0
C      1  0.5576760000000  0.4918540000000  0.5224120000000 1.0
C      1  0.4919620000000  0.4424690000000  0.5223490000000 1.0
C      1  0.4272680000000  0.4807750000000  0.5153530000000 1.0
C      1  0.4809920000000  0.5719660000000  0.5162430000000 1.0
C      1  0.5727950000000  0.5188050000000  0.5159590000000 1.0
C      1  0.5189280000000  0.4274850000000  0.5159680000000 1.0
C      1  0.4273100000000  0.4814600000000  0.4853000000000 1.0
C      1  0.4814500000000  0.5725680000000  0.4860550000000 1.0
C      1  0.5730030000000  0.5183500000000  0.4857800000000 1.0
C      1  0.5185980000000  0.4273370000000  0.4858310000000 1.0
C      1  0.4657790000000  0.5356440000000  0.4273320000000 1.0
C      1  0.5354990000000  0.5341390000000  0.4268150000000 1.0
C      1  0.5338830000000  0.4650560000000  0.4274650000000 1.0
C      1  0.4647150000000  0.4658840000000  0.4269180000000 1.0
C      1  0.4707220000000  0.5307090000000  0.5749750000000 1.0
C      1  0.5279090000000  0.5349770000000  0.5715170000000 1.0
C      1  0.5327410000000  0.4657920000000  0.5751680000000 1.0
C      1  0.4636930000000  0.4735320000000  0.5730300000000 1.0
C      1  0.5455990000000  0.5341660000000  0.5221180000000 1.0
C      1  0.5343040000000  0.4544810000000  0.5231290000000 1.0
C      1  0.4544180000000  0.4656250000000  0.5225270000000 1.0
C      1  0.4664340000000  0.5442750000000  0.5232390000000 1.0
C      1  0.5470370000000  0.5364800000000  0.4770780000000 1.0
C      1  0.5366290000000  0.4530720000000  0.4776070000000 1.0
C      1  0.4530640000000  0.4632490000000  0.4771530000000 1.0
C      1  0.4633500000000  0.5470660000000  0.4774410000000 1.0
C      1  0.4923950000000  0.5341250000000  0.4828750000000 1.0
C      1  0.5345430000000  0.5073100000000  0.4830400000000 1.0
C      1  0.5076840000000  0.4659550000000  0.4836540000000 1.0
C      1  0.4658350000000  0.4923330000000  0.4832760000000 1.0
C      1  0.4934230000000  0.5298990000000  0.5134010000000 1.0
C      1  0.5305990000000  0.5066580000000  0.5136820000000 1.0
C      1  0.5068200000000  0.4697160000000  0.5143760000000 1.0
C      1  0.4695040000000  0.4929950000000  0.5139390000000 1.0
C      1  0.4844770000000  0.5160290000000  0.4218350000000 1.0
C      1  0.5156080000000  0.5156320000000  0.4216700000000 1.0
C      1  0.5152090000000  0.4845390000000  0.4214560000000 1.0
C      1  0.4841190000000  0.4849000000000  0.4217810000000 1.0
C      1  0.4857830000000  0.5152160000000  0.5928120000000 1.0
C      1  0.5169100000000  0.5143740000000  0.5863430000000 1.0
C      1  0.5136270000000  0.4857820000000  0.5757960000000 1.0
C      1  0.4851620000000  0.4838960000000  0.5870320000000 1.0
C      1  0.5624030000000  0.4706690000000  0.5011390000000 1.0
C      1  0.4709800000000  0.4376590000000  0.5007850000000 1.0
C      1  0.4378940000000  0.5290810000000  0.5010790000000 1.0
C      1  0.5292080000000  0.5623210000000  0.5003510000000 1.0
END
