TITL C-38189-4514-670 -2.6010005920402e-07 125000 -360.363913310979 0 0 60 (S4) n - 1
REM
REM in /home/bkarasulu/CARBON/AIRSS/Generating-Clusters/EDIP-Nigel-Params/Higher-Symm/Box-15A/Only-C60/SD-CG/FIRE-HFTN
REM
REM
REM
REM
REM
REM ./C.cell (414f73aa93bd7a1190c7fd0f31ff2f98)
REM
REM compiler GCC version 9.2.1 20190827 (Red Hat 9.2.1-1)
REM options -cpp -mtune=generic -march=x86-64 -g -O0 -fpre-include=/usr/include/finclude/math-vector-fortran.h
REM seed 2033401752 697878121 -1970263703 1921631541 1360365570 -1400952728 -288384270 300088943 -1856717171 400139419 -151922076 1576307718 -1898182290 1705163651 570181528 1063002116 -1980268264 -1205854573 2021840068 -955684041 -1964429923 83434539 -1385872992 -804832874 1319199734 900065034 430024329 -953461486 35228981 -1974847332 -2046812169 -1992482557 995324813
REM
CELL 1.54180   50.00000   50.00000   50.00000   90.00000   90.00000   90.00000
LATT -1
SFAC C  
C      1  0.5505900000000  0.5006450000000  0.5669250000000 1.0
C      1  0.5669250000000  0.4993550000000  0.4494100000000 1.0
C      1  0.4494100000000  0.5006450000000  0.4330750000000 1.0
C      1  0.4330750000000  0.4993550000000  0.5505900000000 1.0
C      1  0.5029990000000  0.5331420000000  0.4472240000000 1.0
C      1  0.4472240000000  0.4668580000000  0.4970010000000 1.0
C      1  0.4970010000000  0.5331420000000  0.5527760000000 1.0
C      1  0.5527760000000  0.4668580000000  0.5029990000000 1.0
C      1  0.5118620000000  0.4416210000000  0.5307020000000 1.0
C      1  0.5307020000000  0.5583790000000  0.4881380000000 1.0
C      1  0.4881380000000  0.4416210000000  0.4692980000000 1.0
C      1  0.4692980000000  0.5583790000000  0.5118620000000 1.0
C      1  0.5271050000000  0.5097310000000  0.4276170000000 1.0
C      1  0.4276170000000  0.4902690000000  0.4728950000000 1.0
C      1  0.4728950000000  0.5097310000000  0.5723830000000 1.0
C      1  0.5723830000000  0.4902690000000  0.5271050000000 1.0
C      1  0.4284250000000  0.5254230000000  0.5094640000000 1.0
C      1  0.5094640000000  0.4745770000000  0.5715750000000 1.0
C      1  0.5715750000000  0.5254230000000  0.4905360000000 1.0
C      1  0.4905360000000  0.4745770000000  0.4284250000000 1.0
C      1  0.4674190000000  0.4816990000000  0.4445160000000 1.0
C      1  0.4445160000000  0.5183010000000  0.5325810000000 1.0
C      1  0.5325810000000  0.4816990000000  0.5554840000000 1.0
C      1  0.5554840000000  0.5183010000000  0.4674190000000 1.0
C      1  0.5245210000000  0.5409310000000  0.5491570000000 1.0
C      1  0.5491570000000  0.4590690000000  0.4754790000000 1.0
C      1  0.4754790000000  0.5409310000000  0.4508430000000 1.0
C      1  0.4508430000000  0.4590690000000  0.5245210000000 1.0
C      1  0.5761130000000  0.4978070000000  0.5007710000000 1.0
C      1  0.5007710000000  0.5021930000000  0.4238870000000 1.0
C      1  0.4238870000000  0.4978070000000  0.4992290000000 1.0
C      1  0.4992290000000  0.5021930000000  0.5761130000000 1.0
C      1  0.5134430000000  0.5782250000000  0.4982210000000 1.0
C      1  0.4982210000000  0.4217750000000  0.4865570000000 1.0
C      1  0.4865570000000  0.5782250000000  0.5017790000000 1.0
C      1  0.5017790000000  0.4217750000000  0.5134430000000 1.0
C      1  0.5631620000000  0.5114840000000  0.5442220000000 1.0
C      1  0.5442220000000  0.4885160000000  0.4368380000000 1.0
C      1  0.4368380000000  0.5114840000000  0.4557780000000 1.0
C      1  0.4557780000000  0.4885160000000  0.5631620000000 1.0
C      1  0.4867450000000  0.4894770000000  0.5283020000000 1.0
C      1  0.5283020000000  0.5105230000000  0.5132550000000 1.0
C      1  0.5132550000000  0.4894770000000  0.4716980000000 1.0
C      1  0.4716980000000  0.5105230000000  0.4867450000000 1.0
C      1  0.4701060000000  0.4707800000000  0.5432570000000 1.0
C      1  0.5432570000000  0.5292200000000  0.5298940000000 1.0
C      1  0.5298940000000  0.4707800000000  0.4567430000000 1.0
C      1  0.4567430000000  0.5292200000000  0.4701060000000 1.0
C      1  0.4711480000000  0.5121970000000  0.5175630000000 1.0
C      1  0.5175630000000  0.4878030000000  0.5288520000000 1.0
C      1  0.5288520000000  0.5121970000000  0.4824370000000 1.0
C      1  0.4824370000000  0.4878030000000  0.4711480000000 1.0
C      1  0.4844730000000  0.5364170000000  0.5253020000000 1.0
C      1  0.5253020000000  0.4635830000000  0.5155270000000 1.0
C      1  0.5155270000000  0.5364170000000  0.4746980000000 1.0
C      1  0.4746980000000  0.4635830000000  0.4844730000000 1.0
C      1  0.4934840000000  0.4536150000000  0.5538430000000 1.0
C      1  0.5538430000000  0.5463850000000  0.5065160000000 1.0
C      1  0.5065160000000  0.4536150000000  0.4461570000000 1.0
C      1  0.4461570000000  0.5463850000000  0.4934840000000 1.0
END
