TITL C-38194-9318-470 5.4436765123863e-06 125000 -367.488263870272 0 0 60 (C1) n - 1
REM
REM in /home/bkarasulu/CARBON/AIRSS/Generating-Clusters/EDIP-Nigel-Params/Higher-Symm/Box-15A/Only-C60/SD-CG/FIRE-HFTN
REM
REM
REM
REM
REM
REM ./C.cell (414f73aa93bd7a1190c7fd0f31ff2f98)
REM
REM compiler GCC version 9.2.1 20190827 (Red Hat 9.2.1-1)
REM options -cpp -mtune=generic -march=x86-64 -g -O0 -fpre-include=/usr/include/finclude/math-vector-fortran.h
REM seed 564975901 1070632865 590180853 -1625727404 -113715584 41433305 681203210 446836308 1373438108 556576954 -463785986 -545108014 753959442 1052301945 1809227986 -523256534 -84782470 -220586041 841135562 1871806456 1793925180 -828943087 -396583882 -1184997129 -234832292 -931380291 1591354121 -1778129374 -1036296434 -157622392 1517829422 1760749727 -1761568233
REM
CELL 1.54180   50.00000   50.00000   50.00000   90.00000   90.00000   90.00000
LATT -1
SFAC C  
C      1  0.5429910000000  0.5193840000000  0.4880560000000 1.0
C      1  0.5392700000000  0.4933360000000  0.4784390000000 1.0
C      1  0.5482440000000  0.4693960000000  0.4925340000000 1.0
C      1  0.5351280000000  0.4649070000000  0.5183850000000 1.0
C      1  0.5441810000000  0.4821820000000  0.5400520000000 1.0
C      1  0.5524200000000  0.5113220000000  0.5361180000000 1.0
C      1  0.5360940000000  0.5251180000000  0.5152650000000 1.0
C      1  0.4378230000000  0.5065040000000  0.4550770000000 1.0
C      1  0.4377550000000  0.4822670000000  0.4749730000000 1.0
C      1  0.4341750000000  0.4630510000000  0.5073570000000 1.0
C      1  0.4336520000000  0.4793790000000  0.5320630000000 1.0
C      1  0.4318310000000  0.5094290000000  0.5315780000000 1.0
C      1  0.4353090000000  0.5308250000000  0.4993670000000 1.0
C      1  0.4368170000000  0.5332920000000  0.4687820000000 1.0
C      1  0.4708100000000  0.4977220000000  0.5573260000000 1.0
C      1  0.4690210000000  0.5414330000000  0.5348500000000 1.0
C      1  0.4722080000000  0.5601620000000  0.4878810000000 1.0
C      1  0.4812230000000  0.5276540000000  0.4495630000000 1.0
C      1  0.4762410000000  0.4789350000000  0.4441510000000 1.0
C      1  0.4731720000000  0.4486550000000  0.4830980000000 1.0
C      1  0.4737640000000  0.4543580000000  0.5322940000000 1.0
C      1  0.4628210000000  0.5472620000000  0.4626420000000 1.0
C      1  0.4642070000000  0.5056110000000  0.4404780000000 1.0
C      1  0.4592020000000  0.4643650000000  0.4632380000000 1.0
C      1  0.4585430000000  0.4462680000000  0.5082750000000 1.0
C      1  0.4577360000000  0.4726750000000  0.5481840000000 1.0
C      1  0.4542290000000  0.5200320000000  0.5481630000000 1.0
C      1  0.4551120000000  0.5509810000000  0.5102990000000 1.0
C      1  0.5120120000000  0.5618610000000  0.5192640000000 1.0
C      1  0.5170330000000  0.5579350000000  0.4681030000000 1.0
C      1  0.5224420000000  0.5001740000000  0.4381160000000 1.0
C      1  0.5164450000000  0.4517130000000  0.4590380000000 1.0
C      1  0.5121060000000  0.4259710000000  0.5008110000000 1.0
C      1  0.5075160000000  0.4624380000000  0.5658180000000 1.0
C      1  0.5128930000000  0.5266510000000  0.5586990000000 1.0
C      1  0.5503070000000  0.4956920000000  0.4511100000000 1.0
C      1  0.5457620000000  0.4506690000000  0.4677860000000 1.0
C      1  0.5210160000000  0.4397270000000  0.5238150000000 1.0
C      1  0.5308450000000  0.4778830000000  0.5648170000000 1.0
C      1  0.5417840000000  0.5265190000000  0.5593240000000 1.0
C      1  0.5402740000000  0.5541520000000  0.5187180000000 1.0
C      1  0.5400650000000  0.5404960000000  0.4664460000000 1.0
C      1  0.5798830000000  0.5187680000000  0.5203530000000 1.0
C      1  0.5750790000000  0.5441750000000  0.5056560000000 1.0
C      1  0.5774670000000  0.5440580000000  0.4763540000000 1.0
C      1  0.5777680000000  0.5190820000000  0.4604220000000 1.0
C      1  0.5628960000000  0.4677700000000  0.4492280000000 1.0
C      1  0.5885770000000  0.4727540000000  0.4608400000000 1.0
C      1  0.5915980000000  0.5003780000000  0.5018140000000 1.0
C      1  0.5108620000000  0.5284360000000  0.4436030000000 1.0
C      1  0.5053770000000  0.4777270000000  0.4481700000000 1.0
C      1  0.4993650000000  0.4371110000000  0.4784290000000 1.0
C      1  0.4993520000000  0.4450540000000  0.5439050000000 1.0
C      1  0.4995640000000  0.5005580000000  0.5666240000000 1.0
C      1  0.4980240000000  0.5445010000000  0.5394450000000 1.0
C      1  0.5008340000000  0.5588510000000  0.4918430000000 1.0
C      1  0.5028760000000  0.4989200000000  0.5031860000000 1.0
C      1  0.4495550000000  0.5019410000000  0.4976840000000 1.0
C      1  0.4779480000000  0.5026500000000  0.4986730000000 1.0
C      1  0.5931070000000  0.4977800000000  0.4735040000000 1.0
END
