TITL C-38192-7909-41 0.00776348375667492 125000 -346.511733765698 0 0 60 (C1) n - 1
REM
REM in /home/bkarasulu/CARBON/AIRSS/Generating-Clusters/EDIP-Nigel-Params/Higher-Symm/Box-15A/Only-C60/SD-CG/FIRE-HFTN
REM
REM
REM
REM
REM
REM ./C.cell (414f73aa93bd7a1190c7fd0f31ff2f98)
REM
REM compiler GCC version 9.2.1 20190827 (Red Hat 9.2.1-1)
REM options -cpp -mtune=generic -march=x86-64 -g -O0 -fpre-include=/usr/include/finclude/math-vector-fortran.h
REM seed -250342680 1142406673 2115862424 211354154 1102495410 1454831928 779422912 1588053466 -908168067 -38693932 431410251 -1177881235 438572178 -1745687803 638474170 15453713 -1574369510 -344482705 1213893748 1391138660 1777065932 -762519569 1825443675 1920576066 477573613 -561528466 1928818989 -1305837832 -52140760 850397376 -1662120061 -1805957358 -1599948453
REM
CELL 1.54180   50.00000   50.00000   50.00000   90.00000   90.00000   90.00000
LATT -1
SFAC C  
C      1  0.4615070000000  0.4794940000000  0.5259240000000 1.0
C      1  0.4604410000000  0.4803800000000  0.4739950000000 1.0
C      1  0.5011630000000  0.4544420000000  0.4713510000000 1.0
C      1  0.5032010000000  0.4548430000000  0.5254640000000 1.0
C      1  0.4619080000000  0.4305000000000  0.5246550000000 1.0
C      1  0.4594270000000  0.4312140000000  0.4750650000000 1.0
C      1  0.5252740000000  0.6426900000000  0.4546660000000 1.0
C      1  0.5217740000000  0.6502580000000  0.5371710000000 1.0
C      1  0.5044020000000  0.4831210000000  0.4283260000000 1.0
C      1  0.5084570000000  0.4834800000000  0.5688830000000 1.0
C      1  0.5209180000000  0.6018490000000  0.5155350000000 1.0
C      1  0.5219870000000  0.5990250000000  0.4845790000000 1.0
C      1  0.3879500000000  0.4235680000000  0.4847600000000 1.0
C      1  0.3886730000000  0.4223350000000  0.5137020000000 1.0
C      1  0.5138530000000  0.5305640000000  0.4264420000000 1.0
C      1  0.5135390000000  0.5317520000000  0.5727700000000 1.0
C      1  0.5209670000000  0.5485200000000  0.4466160000000 1.0
C      1  0.5154900000000  0.5519860000000  0.5532810000000 1.0
C      1  0.4752550000000  0.4541130000000  0.5151960000000 1.0
C      1  0.4740790000000  0.4543510000000  0.4836960000000 1.0
C      1  0.5557360000000  0.5317520000000  0.5217220000000 1.0
C      1  0.5549680000000  0.5282720000000  0.4932740000000 1.0
C      1  0.5786640000000  0.4882500000000  0.5309340000000 1.0
C      1  0.5690240000000  0.4933180000000  0.4584920000000 1.0
C      1  0.5037200000000  0.5434000000000  0.5279170000000 1.0
C      1  0.5095790000000  0.5407380000000  0.4730130000000 1.0
C      1  0.4494390000000  0.4089720000000  0.5143770000000 1.0
C      1  0.4484290000000  0.4101120000000  0.4874970000000 1.0
C      1  0.4132790000000  0.4643600000000  0.5267080000000 1.0
C      1  0.4120010000000  0.4665690000000  0.4741830000000 1.0
C      1  0.5019820000000  0.4611320000000  0.4446070000000 1.0
C      1  0.5059870000000  0.4619720000000  0.5519570000000 1.0
C      1  0.4330600000000  0.4809730000000  0.4858010000000 1.0
C      1  0.4337090000000  0.4796800000000  0.5151250000000 1.0
C      1  0.5226790000000  0.4380970000000  0.4824420000000 1.0
C      1  0.5234570000000  0.4378040000000  0.5132090000000 1.0
C      1  0.5496190000000  0.4783820000000  0.4713400000000 1.0
C      1  0.5549970000000  0.4744540000000  0.5272560000000 1.0
C      1  0.5202550000000  0.4749720000000  0.6198510000000 1.0
C      1  0.5104170000000  0.4762860000000  0.3761030000000 1.0
C      1  0.5138760000000  0.4794050000000  0.5954460000000 1.0
C      1  0.5068270000000  0.4799760000000  0.4011910000000 1.0
C      1  0.5399650000000  0.5546560000000  0.5328930000000 1.0
C      1  0.5409710000000  0.5494880000000  0.4769030000000 1.0
C      1  0.4768530000000  0.5027180000000  0.5147050000000 1.0
C      1  0.4767560000000  0.5031050000000  0.4848210000000 1.0
C      1  0.5232910000000  0.6275790000000  0.5253520000000 1.0
C      1  0.5255260000000  0.6225260000000  0.4704680000000 1.0
C      1  0.3900310000000  0.4522730000000  0.5166820000000 1.0
C      1  0.3892330000000  0.4536500000000  0.4842790000000 1.0
C      1  0.5433310000000  0.5805270000000  0.5181640000000 1.0
C      1  0.5442350000000  0.5775160000000  0.4874150000000 1.0
C      1  0.5524370000000  0.4493720000000  0.5130410000000 1.0
C      1  0.5510550000000  0.4513170000000  0.4815840000000 1.0
C      1  0.4967850000000  0.5160160000000  0.5316680000000 1.0
C      1  0.4986140000000  0.5140050000000  0.4682280000000 1.0
C      1  0.5716680000000  0.5082650000000  0.4816640000000 1.0
C      1  0.5637760000000  0.5103380000000  0.5386270000000 1.0
C      1  0.5011730000000  0.5093920000000  0.4395600000000 1.0
C      1  0.5023330000000  0.5098950000000  0.5594210000000 1.0
END
