TITL C-38184-643-403 -1.65698689138989e-06 125000 -342.986457158214 0 0 60 (Ci) n - 1
REM
REM in /home/bkarasulu/CARBON/AIRSS/Generating-Clusters/EDIP-Nigel-Params/Higher-Symm/Box-15A/Only-C60/SD-CG/FIRE-HFTN
REM
REM
REM
REM
REM
REM ./C.cell (414f73aa93bd7a1190c7fd0f31ff2f98)
REM
REM compiler GCC version 9.2.1 20190827 (Red Hat 9.2.1-1)
REM options -cpp -mtune=generic -march=x86-64 -g -O0 -fpre-include=/usr/include/finclude/math-vector-fortran.h
REM seed -2006272962 -1971714446 -1837809728 -1004778869 -76400248 -1502540653 2112046138 1287993920 767666962 56529351 -521050264 1475719506 898040432 -627980379 2045881799 -1055792033 -861011026 1541668768 -1949154467 2084005702 -392672620 -1438539891 566482741 -427295677 2033953788 219737335 167102876 1949225291 -737647666 1902249737 720285507 -1394974187 1351682548
REM
CELL 1.54180   50.00000   50.00000   50.00000   90.00000   90.00000   90.00000
LATT -1
SFAC C  
C      1  0.5524940000000  0.5287470000000  0.4479240000000 1.0
C      1  0.5111530000000  0.4716030000000  0.4268920000000 1.0
C      1  0.4665330000000  0.5280820000000  0.4336290000000 1.0
C      1  0.4346030000000  0.4710760000000  0.4657620000000 1.0
C      1  0.4272340000000  0.5287910000000  0.5115090000000 1.0
C      1  0.4475060000000  0.4712530000000  0.5520760000000 1.0
C      1  0.4888470000000  0.5283970000000  0.5731080000000 1.0
C      1  0.5334670000000  0.4719180000000  0.5663710000000 1.0
C      1  0.5653970000000  0.5289240000000  0.5342380000000 1.0
C      1  0.5727660000000  0.4712090000000  0.4884910000000 1.0
C      1  0.5459730000000  0.4515900000000  0.5286260000000 1.0
C      1  0.5532570000000  0.5484590000000  0.4962260000000 1.0
C      1  0.5402680000000  0.4516440000000  0.4650530000000 1.0
C      1  0.5125900000000  0.5484410000000  0.4472930000000 1.0
C      1  0.4784830000000  0.4495740000000  0.4476710000000 1.0
C      1  0.4540270000000  0.5484100000000  0.4713740000000 1.0
C      1  0.4467430000000  0.4515410000000  0.5037740000000 1.0
C      1  0.4597320000000  0.5483560000000  0.5349470000000 1.0
C      1  0.4874100000000  0.4515590000000  0.5527070000000 1.0
C      1  0.5215170000000  0.5504260000000  0.5523290000000 1.0
C      1  0.4475530000000  0.5017380000000  0.5417490000000 1.0
C      1  0.4821170000000  0.4982540000000  0.5645480000000 1.0
C      1  0.5234170000000  0.5021880000000  0.5622680000000 1.0
C      1  0.5560210000000  0.4983350000000  0.5367760000000 1.0
C      1  0.5670640000000  0.5017410000000  0.4970070000000 1.0
C      1  0.5524470000000  0.4982620000000  0.4582510000000 1.0
C      1  0.5178830000000  0.5017460000000  0.4354520000000 1.0
C      1  0.4765830000000  0.4978120000000  0.4377320000000 1.0
C      1  0.4439790000000  0.5016650000000  0.4632240000000 1.0
C      1  0.4329360000000  0.4982590000000  0.5029930000000 1.0
C      1  0.5572150000000  0.4699760000000  0.5486700000000 1.0
C      1  0.5744410000000  0.5305260000000  0.5060470000000 1.0
C      1  0.5633510000000  0.4693710000000  0.4603890000000 1.0
C      1  0.5284900000000  0.5302770000000  0.4305570000000 1.0
C      1  0.4815880000000  0.4694430000000  0.4261040000000 1.0
C      1  0.4427850000000  0.5300240000000  0.4513300000000 1.0
C      1  0.4255590000000  0.4694740000000  0.4939530000000 1.0
C      1  0.4366490000000  0.5306290000000  0.5396110000000 1.0
C      1  0.4715100000000  0.4697230000000  0.5694430000000 1.0
C      1  0.5184120000000  0.5305570000000  0.5738960000000 1.0
C      1  0.5377370000000  0.5070630000000  0.4978440000000 1.0
C      1  0.5293230000000  0.4930510000000  0.4761330000000 1.0
C      1  0.5096930000000  0.5074450000000  0.4637090000000 1.0
C      1  0.4865460000000  0.4935110000000  0.4652790000000 1.0
C      1  0.4683720000000  0.5074030000000  0.4797760000000 1.0
C      1  0.4622630000000  0.4929370000000  0.5021560000000 1.0
C      1  0.4706770000000  0.5069490000000  0.5238670000000 1.0
C      1  0.4903070000000  0.4925550000000  0.5362910000000 1.0
C      1  0.5134540000000  0.5064890000000  0.5347210000000 1.0
C      1  0.5316280000000  0.4925970000000  0.5202240000000 1.0
C      1  0.5431480000000  0.5481990000000  0.5325830000000 1.0
C      1  0.5537020000000  0.4520470000000  0.5003150000000 1.0
C      1  0.5438780000000  0.5481540000000  0.4684420000000 1.0
C      1  0.5161440000000  0.4519310000000  0.4482520000000 1.0
C      1  0.4833040000000  0.5480450000000  0.4475550000000 1.0
C      1  0.4568520000000  0.4518010000000  0.4674170000000 1.0
C      1  0.4462980000000  0.5479530000000  0.4996850000000 1.0
C      1  0.4561220000000  0.4518460000000  0.5315580000000 1.0
C      1  0.4838560000000  0.5480690000000  0.5517480000000 1.0
C      1  0.5166960000000  0.4519550000000  0.5524450000000 1.0
END
