TITL C-38187-2739-198 0.000104414512439842 125000 -364.373753977851 0 0 60 (C1) n - 1
REM
REM in /home/bkarasulu/CARBON/AIRSS/Generating-Clusters/EDIP-Nigel-Params/Higher-Symm/Box-15A/Only-C60/SD-CG/FIRE-HFTN
REM
REM
REM
REM
REM
REM ./C.cell (414f73aa93bd7a1190c7fd0f31ff2f98)
REM
REM compiler GCC version 9.2.1 20190827 (Red Hat 9.2.1-1)
REM options -cpp -mtune=generic -march=x86-64 -g -O0 -fpre-include=/usr/include/finclude/math-vector-fortran.h
REM seed 367932354 -353896908 324334692 -1070988994 1168479298 -753570927 -993796136 -1821917847 119435246 -503814511 -666355456 -1238771746 1749232678 -1345537337 504508748 -1334864053 -756940225 -1328630473 438181354 -2014175324 2029652922 2050604352 2122448394 2015577578 1523237150 -1548947731 -1405257574 2017241108 -653993310 392515454 -1846496834 1964442033 597983967
REM
CELL 1.54180   50.00000   50.00000   50.00000   90.00000   90.00000   90.00000
LATT -1
SFAC C  
C      1  0.5896300000000  0.4752970000000  0.5164450000000 1.0
C      1  0.4126480000000  0.5247580000000  0.5156450000000 1.0
C      1  0.4157340000000  0.4742300000000  0.5175360000000 1.0
C      1  0.5866860000000  0.5257970000000  0.5184170000000 1.0
C      1  0.4146760000000  0.5155280000000  0.5423260000000 1.0
C      1  0.5865020000000  0.4844160000000  0.5431050000000 1.0
C      1  0.5845030000000  0.5139560000000  0.5442470000000 1.0
C      1  0.4167830000000  0.4859740000000  0.5434320000000 1.0
C      1  0.5782080000000  0.4867490000000  0.4937990000000 1.0
C      1  0.4235750000000  0.5133080000000  0.4928060000000 1.0
C      1  0.4246700000000  0.4849060000000  0.4934300000000 1.0
C      1  0.5771110000000  0.5151750000000  0.4944870000000 1.0
C      1  0.4621240000000  0.5708340000000  0.4874680000000 1.0
C      1  0.5385380000000  0.4287550000000  0.4880700000000 1.0
C      1  0.5360590000000  0.5721410000000  0.4847480000000 1.0
C      1  0.4646450000000  0.4282740000000  0.4841940000000 1.0
C      1  0.4469820000000  0.4851840000000  0.4499550000000 1.0
C      1  0.5506230000000  0.5149540000000  0.4531630000000 1.0
C      1  0.5506230000000  0.4861790000000  0.4534120000000 1.0
C      1  0.4471820000000  0.5137320000000  0.4501980000000 1.0
C      1  0.5222700000000  0.5077910000000  0.5257120000000 1.0
C      1  0.4807140000000  0.4923710000000  0.5285560000000 1.0
C      1  0.4788220000000  0.5191350000000  0.5268890000000 1.0
C      1  0.5237970000000  0.4809440000000  0.5243810000000 1.0
C      1  0.5623560000000  0.5296820000000  0.4746940000000 1.0
C      1  0.4380670000000  0.4703790000000  0.4727220000000 1.0
C      1  0.4372520000000  0.5281940000000  0.4726880000000 1.0
C      1  0.5630900000000  0.4718940000000  0.4747250000000 1.0
C      1  0.4650750000000  0.4732420000000  0.5410580000000 1.0
C      1  0.5363230000000  0.5268560000000  0.5401630000000 1.0
C      1  0.5412150000000  0.4639850000000  0.5376610000000 1.0
C      1  0.4599970000000  0.5359180000000  0.5382850000000 1.0
C      1  0.4845940000000  0.5159630000000  0.4184760000000 1.0
C      1  0.5094140000000  0.4848290000000  0.4371070000000 1.0
C      1  0.5093030000000  0.5153580000000  0.4370120000000 1.0
C      1  0.4848090000000  0.4838910000000  0.4184830000000 1.0
C      1  0.4606060000000  0.5259410000000  0.4291490000000 1.0
C      1  0.5347080000000  0.4726860000000  0.4346700000000 1.0
C      1  0.5343930000000  0.5278880000000  0.4343050000000 1.0
C      1  0.4609000000000  0.4734540000000  0.4289460000000 1.0
C      1  0.4677520000000  0.5620000000000  0.5435400000000 1.0
C      1  0.5321290000000  0.4384490000000  0.5435730000000 1.0
C      1  0.5234530000000  0.5504320000000  0.5471440000000 1.0
C      1  0.4765660000000  0.4488770000000  0.5474980000000 1.0
C      1  0.4851150000000  0.5805400000000  0.4999140000000 1.0
C      1  0.5152800000000  0.4193310000000  0.5001870000000 1.0
C      1  0.5136900000000  0.5683020000000  0.5006190000000 1.0
C      1  0.4866990000000  0.4316730000000  0.5006120000000 1.0
C      1  0.5151270000000  0.4193850000000  0.5318240000000 1.0
C      1  0.4850320000000  0.5806640000000  0.5316000000000 1.0
C      1  0.4849900000000  0.4280850000000  0.5309250000000 1.0
C      1  0.5150860000000  0.5715690000000  0.5309130000000 1.0
C      1  0.5573740000000  0.4451950000000  0.4787040000000 1.0
C      1  0.4437540000000  0.5547290000000  0.4766680000000 1.0
C      1  0.4445550000000  0.4436140000000  0.4753760000000 1.0
C      1  0.5565780000000  0.5566090000000  0.4773500000000 1.0
C      1  0.5603780000000  0.4777800000000  0.5543860000000 1.0
C      1  0.4403850000000  0.5221610000000  0.5545090000000 1.0
C      1  0.4431280000000  0.4842740000000  0.5561250000000 1.0
C      1  0.5577210000000  0.5157840000000  0.5559710000000 1.0
END
