TITL C-38187-2739-600 -3.69073085479123e-05 125000 -356.222572373701 0 0 60 (C1) n - 1
REM
REM in /home/bkarasulu/CARBON/AIRSS/Generating-Clusters/EDIP-Nigel-Params/Higher-Symm/Box-15A/Only-C60/SD-CG/FIRE-HFTN
REM
REM
REM
REM
REM
REM ./C.cell (414f73aa93bd7a1190c7fd0f31ff2f98)
REM
REM compiler GCC version 9.2.1 20190827 (Red Hat 9.2.1-1)
REM options -cpp -mtune=generic -march=x86-64 -g -O0 -fpre-include=/usr/include/finclude/math-vector-fortran.h
REM seed -1225324234 -1803823775 2082217621 1946147747 -1787126651 -925726920 -595508552 1086732183 -1264902304 -1250775167 1941237319 737400312 -381106803 1681737353 -1081253737 2058480285 -1171454209 -86961057 -2101555507 2114351850 -302948989 -1852577778 2105099420 1652735193 563126630 741804483 1819064653 -1750621197 917032709 986146285 1856722237 1292143870 -84702684
REM
CELL 1.54180   50.00000   50.00000   50.00000   90.00000   90.00000   90.00000
LATT -1
SFAC C  
C      1  0.4887270000000  0.5043630000000  0.4954170000000 1.0
C      1  0.5681470000000  0.5015390000000  0.4770600000000 1.0
C      1  0.4600180000000  0.4421580000000  0.4470140000000 1.0
C      1  0.5078180000000  0.4385430000000  0.4521710000000 1.0
C      1  0.5697950000000  0.4535210000000  0.4826690000000 1.0
C      1  0.4358100000000  0.4550100000000  0.4510710000000 1.0
C      1  0.4365530000000  0.4477340000000  0.4989500000000 1.0
C      1  0.4719600000000  0.4794820000000  0.5583420000000 1.0
C      1  0.4672760000000  0.5123750000000  0.5110370000000 1.0
C      1  0.5409420000000  0.5232570000000  0.4442980000000 1.0
C      1  0.4650430000000  0.5013100000000  0.5756170000000 1.0
C      1  0.4989890000000  0.4697980000000  0.5581840000000 1.0
C      1  0.4966010000000  0.5077550000000  0.4324980000000 1.0
C      1  0.4125170000000  0.5477890000000  0.4685810000000 1.0
C      1  0.5519460000000  0.4321700000000  0.4759760000000 1.0
C      1  0.5608420000000  0.4359840000000  0.5376190000000 1.0
C      1  0.4637290000000  0.5353760000000  0.5579560000000 1.0
C      1  0.5292560000000  0.5428160000000  0.5370600000000 1.0
C      1  0.4327970000000  0.5517500000000  0.4506650000000 1.0
C      1  0.5056260000000  0.4432800000000  0.5477660000000 1.0
C      1  0.5246150000000  0.5555630000000  0.4892640000000 1.0
C      1  0.5137030000000  0.5205780000000  0.4545750000000 1.0
C      1  0.4814830000000  0.5507360000000  0.4556490000000 1.0
C      1  0.5108760000000  0.5029580000000  0.4787640000000 1.0
C      1  0.5360400000000  0.4402390000000  0.4536010000000 1.0
C      1  0.4500130000000  0.5633010000000  0.4918040000000 1.0
C      1  0.5188860000000  0.4785450000000  0.4685210000000 1.0
C      1  0.5884780000000  0.5170060000000  0.5198970000000 1.0
C      1  0.5361830000000  0.4483170000000  0.5471840000000 1.0
C      1  0.5669350000000  0.4801410000000  0.5519390000000 1.0
C      1  0.4807390000000  0.5316200000000  0.4343620000000 1.0
C      1  0.4524260000000  0.4642620000000  0.5142430000000 1.0
C      1  0.5052420000000  0.5590590000000  0.4688260000000 1.0
C      1  0.4878100000000  0.4812770000000  0.4375210000000 1.0
C      1  0.5489280000000  0.5252580000000  0.5458430000000 1.0
C      1  0.4519600000000  0.4657250000000  0.5430620000000 1.0
C      1  0.5833200000000  0.4973540000000  0.5010440000000 1.0
C      1  0.5660800000000  0.4755390000000  0.4634530000000 1.0
C      1  0.5202880000000  0.4873800000000  0.5619120000000 1.0
C      1  0.5771610000000  0.4694890000000  0.5067540000000 1.0
C      1  0.3978920000000  0.5163910000000  0.5157860000000 1.0
C      1  0.5447920000000  0.4975280000000  0.5533610000000 1.0
C      1  0.4711610000000  0.5305200000000  0.5317580000000 1.0
C      1  0.5254340000000  0.4218150000000  0.5402530000000 1.0
C      1  0.5160990000000  0.5567490000000  0.5168440000000 1.0
C      1  0.5748190000000  0.5310950000000  0.5380740000000 1.0
C      1  0.4914620000000  0.5686130000000  0.5214890000000 1.0
C      1  0.4447940000000  0.4936930000000  0.5168960000000 1.0
C      1  0.5502970000000  0.5466400000000  0.4826810000000 1.0
C      1  0.4671260000000  0.5735290000000  0.5112390000000 1.0
C      1  0.4854410000000  0.4549990000000  0.4475970000000 1.0
C      1  0.4558300000000  0.5611160000000  0.4638030000000 1.0
C      1  0.5397700000000  0.4693120000000  0.4515390000000 1.0
C      1  0.4324990000000  0.4388260000000  0.4733620000000 1.0
C      1  0.4449560000000  0.5198820000000  0.5712750000000 1.0
C      1  0.5769710000000  0.4600530000000  0.5344310000000 1.0
C      1  0.4153980000000  0.5376520000000  0.5162490000000 1.0
C      1  0.4226800000000  0.5541930000000  0.4940640000000 1.0
C      1  0.5588270000000  0.5265070000000  0.4654370000000 1.0
C      1  0.4181950000000  0.5005290000000  0.5056910000000 1.0
END
