TITL C-38195-9455-193 -2.36464168847117e-06 125000 -348.362686439034 0 0 60 (D5) n - 1
REM
REM in /home/bkarasulu/CARBON/AIRSS/Generating-Clusters/EDIP-Nigel-Params/Higher-Symm/Box-15A/Only-C60/SD-CG/FIRE-HFTN
REM
REM
REM
REM
REM
REM ./C.cell (414f73aa93bd7a1190c7fd0f31ff2f98)
REM
REM compiler GCC version 9.2.1 20190827 (Red Hat 9.2.1-1)
REM options -cpp -mtune=generic -march=x86-64 -g -O0 -fpre-include=/usr/include/finclude/math-vector-fortran.h
REM seed -1318309194 69787232 -12669126 -1518764816 -1698728683 249320890 548728268 467360788 888551024 -1639227446 -1194396971 -509600718 -1101597303 -783577649 623318023 235768911 -1556654733 -1867573067 1805184088 -618370477 -199766229 -1993650600 -1517147009 452062525 1200628846 -1038555541 556297417 -372859161 -1690647661 -1639656521 2015353610 1833031551 -845698137
REM
CELL 1.54180   50.00000   50.00000   50.00000   90.00000   90.00000   90.00000
LATT -1
SFAC C  
C      1  0.5340590000000  0.5255870000000  0.4519940000000 1.0
C      1  0.4861900000000  0.5402990000000  0.4519940000000 1.0
C      1  0.4574060000000  0.4993190000000  0.4519940000000 1.0
C      1  0.4874850000000  0.4592800000000  0.4519940000000 1.0
C      1  0.5348600000000  0.4755140000000  0.4519940000000 1.0
C      1  0.4659410000000  0.5255870000000  0.5480060000000 1.0
C      1  0.5138100000000  0.5402990000000  0.5480060000000 1.0
C      1  0.5425940000000  0.4993190000000  0.5480060000000 1.0
C      1  0.5125150000000  0.4592800000000  0.5480060000000 1.0
C      1  0.4651400000000  0.4755140000000  0.5480060000000 1.0
C      1  0.4318960000000  0.4865330000000  0.5205720000000 1.0
C      1  0.4917620000000  0.4310680000000  0.5205720000000 1.0
C      1  0.5630130000000  0.4708640000000  0.5205720000000 1.0
C      1  0.5471820000000  0.5509250000000  0.5205720000000 1.0
C      1  0.4661470000000  0.5606090000000  0.5205720000000 1.0
C      1  0.5681040000000  0.4865330000000  0.4794280000000 1.0
C      1  0.5082380000000  0.4310680000000  0.4794280000000 1.0
C      1  0.4369870000000  0.4708640000000  0.4794280000000 1.0
C      1  0.4528180000000  0.5509250000000  0.4794280000000 1.0
C      1  0.5338530000000  0.5606090000000  0.4794280000000 1.0
C      1  0.5202590000000  0.4854420000000  0.4276990000000 1.0
C      1  0.5201060000000  0.5147680000000  0.4276990000000 1.0
C      1  0.4921670000000  0.5236850000000  0.4276990000000 1.0
C      1  0.4750540000000  0.4998700000000  0.4276990000000 1.0
C      1  0.4924150000000  0.4762340000000  0.4276990000000 1.0
C      1  0.4797410000000  0.4854420000000  0.5723010000000 1.0
C      1  0.4798940000000  0.5147680000000  0.5723010000000 1.0
C      1  0.5078330000000  0.5236850000000  0.5723010000000 1.0
C      1  0.5249460000000  0.4998700000000  0.5723010000000 1.0
C      1  0.5075850000000  0.4762340000000  0.5723010000000 1.0
C      1  0.5265850000000  0.5003320000000  0.5203810000000 1.0
C      1  0.5078990000000  0.5253860000000  0.5203810000000 1.0
C      1  0.4782970000000  0.5153570000000  0.5203810000000 1.0
C      1  0.4786880000000  0.4841050000000  0.5203810000000 1.0
C      1  0.5085310000000  0.4748190000000  0.5203810000000 1.0
C      1  0.4734150000000  0.5003320000000  0.4796190000000 1.0
C      1  0.4921010000000  0.5253860000000  0.4796190000000 1.0
C      1  0.5217030000000  0.5153570000000  0.4796190000000 1.0
C      1  0.5213120000000  0.4841050000000  0.4796190000000 1.0
C      1  0.4914690000000  0.4748190000000  0.4796190000000 1.0
C      1  0.4865390000000  0.4437620000000  0.5454510000000 1.0
C      1  0.5493260000000  0.4698190000000  0.5454510000000 1.0
C      1  0.5439460000000  0.5375850000000  0.5454510000000 1.0
C      1  0.4778340000000  0.5534100000000  0.5454510000000 1.0
C      1  0.4423550000000  0.4954240000000  0.5454510000000 1.0
C      1  0.5134610000000  0.4437620000000  0.4545490000000 1.0
C      1  0.4506740000000  0.4698190000000  0.4545490000000 1.0
C      1  0.4560540000000  0.5375850000000  0.4545490000000 1.0
C      1  0.5221660000000  0.5534100000000  0.4545490000000 1.0
C      1  0.5576450000000  0.4954240000000  0.4545490000000 1.0
C      1  0.4493460000000  0.5378800000000  0.5073340000000 1.0
C      1  0.4483210000000  0.4635310000000  0.5073340000000 1.0
C      1  0.5187150000000  0.4395810000000  0.5073340000000 1.0
C      1  0.5632450000000  0.4991280000000  0.5073340000000 1.0
C      1  0.5203730000000  0.5598800000000  0.5073340000000 1.0
C      1  0.5506540000000  0.5378800000000  0.4926660000000 1.0
C      1  0.5516790000000  0.4635310000000  0.4926660000000 1.0
C      1  0.4812850000000  0.4395810000000  0.4926660000000 1.0
C      1  0.4367550000000  0.4991280000000  0.4926660000000 1.0
C      1  0.4796270000000  0.5598800000000  0.4926660000000 1.0
END
