TITL C-38196-2854-24 2.25770710178055 125000 -346.164523217102 0 0 60 (C1) n - 1
REM
REM in /home/bkarasulu/CARBON/AIRSS/Generating-Clusters/EDIP-Nigel-Params/Higher-Symm/Box-15A/Only-C60/SD-CG/FIRE-HFTN
REM
REM
REM
REM
REM
REM ./C.cell (414f73aa93bd7a1190c7fd0f31ff2f98)
REM
REM compiler GCC version 9.2.1 20190827 (Red Hat 9.2.1-1)
REM options -cpp -mtune=generic -march=x86-64 -g -O0 -fpre-include=/usr/include/finclude/math-vector-fortran.h
REM seed 521920423 -1085383306 -1555962643 -490170399 -1647947646 897433662 -1551152411 -1842696880 -1299110081 -1948972348 1906318931 521659244 -864947807 -496798037 -2117160411 727614786 -1502267695 161347051 90297209 -174848131 832075159 -1850855180 -887815218 438809195 -905890614 521017449 50084451 -7083833 1412454392 -1053364780 534652933 820422470 -839804738
REM
CELL 1.54180   50.00000   50.00000   50.00000   90.00000   90.00000   90.00000
LATT -1
SFAC C  
C      1  0.5282320000000  0.4376550000000  0.5102970000000 1.0
C      1  0.4527510000000  0.4449790000000  0.5084600000000 1.0
C      1  0.4359170000000  0.5201140000000  0.5145610000000 1.0
C      1  0.5092640000000  0.5611320000000  0.5240490000000 1.0
C      1  0.5616110000000  0.5033220000000  0.5184430000000 1.0
C      1  0.4558500000000  0.4835170000000  0.5367840000000 1.0
C      1  0.4754010000000  0.5303110000000  0.5404040000000 1.0
C      1  0.5258720000000  0.5220150000000  0.5439620000000 1.0
C      1  0.5325970000000  0.4730000000000  0.5409400000000 1.0
C      1  0.4909890000000  0.4495950000000  0.5363660000000 1.0
C      1  0.5189760000000  0.4497090000000  0.5333060000000 1.0
C      1  0.4646390000000  0.4575230000000  0.5300870000000 1.0
C      1  0.4558690000000  0.5112850000000  0.5315730000000 1.0
C      1  0.5031170000000  0.5375680000000  0.5374030000000 1.0
C      1  0.5404140000000  0.4994050000000  0.5355900000000 1.0
C      1  0.5523140000000  0.4769980000000  0.4682370000000 1.0
C      1  0.4965910000000  0.4292850000000  0.4579290000000 1.0
C      1  0.4475940000000  0.4881800000000  0.4563900000000 1.0
C      1  0.4774310000000  0.5465050000000  0.4838500000000 1.0
C      1  0.5329970000000  0.5360300000000  0.4842860000000 1.0
C      1  0.5581160000000  0.5206910000000  0.4728930000000 1.0
C      1  0.5335260000000  0.4532750000000  0.4627790000000 1.0
C      1  0.4711100000000  0.4432340000000  0.4600340000000 1.0
C      1  0.4418550000000  0.5161770000000  0.4635330000000 1.0
C      1  0.5008280000000  0.5645730000000  0.4772960000000 1.0
C      1  0.4848880000000  0.5217640000000  0.5005830000000 1.0
C      1  0.5173410000000  0.5153380000000  0.5019220000000 1.0
C      1  0.5187870000000  0.4885040000000  0.4848190000000 1.0
C      1  0.4931730000000  0.4778470000000  0.5026840000000 1.0
C      1  0.4765540000000  0.4961900000000  0.4814550000000 1.0
C      1  0.5001440000000  0.5394930000000  0.4350070000000 1.0
C      1  0.5346100000000  0.5072080000000  0.4310130000000 1.0
C      1  0.5047410000000  0.4553380000000  0.4187540000000 1.0
C      1  0.4819610000000  0.4715820000000  0.4210160000000 1.0
C      1  0.4726070000000  0.5460710000000  0.4344010000000 1.0
C      1  0.5164670000000  0.4422100000000  0.4406030000000 1.0
C      1  0.4682810000000  0.4694810000000  0.4472330000000 1.0
C      1  0.4632760000000  0.5368290000000  0.4594730000000 1.0
C      1  0.5154910000000  0.5526620000000  0.4552750000000 1.0
C      1  0.5541630000000  0.5014310000000  0.4502940000000 1.0
C      1  0.5691690000000  0.5022420000000  0.4922620000000 1.0
C      1  0.5249770000000  0.4345260000000  0.4833210000000 1.0
C      1  0.4560160000000  0.4388150000000  0.4827220000000 1.0
C      1  0.4297630000000  0.5191330000000  0.4885700000000 1.0
C      1  0.5212200000000  0.5643290000000  0.4991040000000 1.0
C      1  0.5128180000000  0.5223260000000  0.6563310000000 1.0
C      1  0.5087340000000  0.5145980000000  0.6314350000000 1.0
C      1  0.5006820000000  0.4993200000000  0.5815240000000 1.0
C      1  0.4993330000000  0.4998320000000  0.3864650000000 1.0
C      1  0.4897120000000  0.4982540000000  0.4124100000000 1.0
C      1  0.4969140000000  0.4945080000000  0.5283850000000 1.0
C      1  0.5057090000000  0.5045610000000  0.3612490000000 1.0
C      1  0.5170670000000  0.5303090000000  0.6811180000000 1.0
C      1  0.5128940000000  0.5083680000000  0.3361480000000 1.0
C      1  0.4945320000000  0.4883330000000  0.5576260000000 1.0
C      1  0.5210640000000  0.5378570000000  0.7052200000000 1.0
C      1  0.5063970000000  0.5103240000000  0.4345790000000 1.0
C      1  0.5193180000000  0.5126600000000  0.3117720000000 1.0
C      1  0.5004170000000  0.4963910000000  0.4612970000000 1.0
C      1  0.5043080000000  0.5063350000000  0.6067710000000 1.0
END
