TITL C-38187-2739-18 0.0786960460272702 125000 -353.621364092376 0 0 60 (C1) n - 1
REM
REM in /home/bkarasulu/CARBON/AIRSS/Generating-Clusters/EDIP-Nigel-Params/Higher-Symm/Box-15A/Only-C60/SD-CG/FIRE-HFTN
REM
REM
REM
REM
REM
REM ./C.cell (414f73aa93bd7a1190c7fd0f31ff2f98)
REM
REM compiler GCC version 9.2.1 20190827 (Red Hat 9.2.1-1)
REM options -cpp -mtune=generic -march=x86-64 -g -O0 -fpre-include=/usr/include/finclude/math-vector-fortran.h
REM seed -2010284697 1380100524 -1264308017 -1151369870 401390921 357633279 1089646201 -2049047869 -1582667057 140864630 -2056638609 -337981551 1084337254 -104417637 389300362 -2024012933 555528300 592944307 -85683613 430768747 -1480311724 -843684353 -588388911 -1458775539 -929668841 76488520 2061846545 1660961019 -1287552612 -298661909 425675510 -779900091 -1266138816
REM
CELL 1.54180   50.00000   50.00000   50.00000   90.00000   90.00000   90.00000
LATT -1
SFAC C  
C      1  0.5639520000000  0.4971860000000  0.5239330000000 1.0
C      1  0.5849370000000  0.4969240000000  0.4570350000000 1.0
C      1  0.5722210000000  0.5292630000000  0.4222820000000 1.0
C      1  0.5062900000000  0.4959400000000  0.4884950000000 1.0
C      1  0.4433750000000  0.5399390000000  0.4784250000000 1.0
C      1  0.5233810000000  0.5283880000000  0.4258490000000 1.0
C      1  0.4339010000000  0.4262140000000  0.5126090000000 1.0
C      1  0.4224680000000  0.5361540000000  0.5217300000000 1.0
C      1  0.5481990000000  0.5274930000000  0.4379830000000 1.0
C      1  0.4848530000000  0.5631540000000  0.4690190000000 1.0
C      1  0.4645370000000  0.4423800000000  0.4568340000000 1.0
C      1  0.5084380000000  0.4239790000000  0.5140780000000 1.0
C      1  0.4859510000000  0.5112500000000  0.4988260000000 1.0
C      1  0.4656660000000  0.5443100000000  0.4603570000000 1.0
C      1  0.5559410000000  0.5810530000000  0.5143310000000 1.0
C      1  0.4212240000000  0.4568590000000  0.5506740000000 1.0
C      1  0.4661350000000  0.4782590000000  0.4245060000000 1.0
C      1  0.5327940000000  0.5572880000000  0.5543300000000 1.0
C      1  0.4867250000000  0.5586830000000  0.4966590000000 1.0
C      1  0.5323030000000  0.4616660000000  0.5386940000000 1.0
C      1  0.5629650000000  0.4512720000000  0.5051950000000 1.0
C      1  0.4732120000000  0.5245440000000  0.4407090000000 1.0
C      1  0.4854180000000  0.4611470000000  0.5935370000000 1.0
C      1  0.4420620000000  0.4755670000000  0.5176680000000 1.0
C      1  0.5036210000000  0.4806680000000  0.4655890000000 1.0
C      1  0.4279040000000  0.4720750000000  0.4496740000000 1.0
C      1  0.5880110000000  0.4864700000000  0.4823610000000 1.0
C      1  0.4338070000000  0.5075910000000  0.5562440000000 1.0
C      1  0.5089050000000  0.5613160000000  0.5404480000000 1.0
C      1  0.4855180000000  0.5499510000000  0.5499590000000 1.0
C      1  0.5552880000000  0.4702460000000  0.5245630000000 1.0
C      1  0.4708280000000  0.5347640000000  0.5052740000000 1.0
C      1  0.5517600000000  0.5142610000000  0.5435160000000 1.0
C      1  0.5538100000000  0.5429020000000  0.5426740000000 1.0
C      1  0.4669620000000  0.5352630000000  0.5353110000000 1.0
C      1  0.4725880000000  0.4300740000000  0.4802710000000 1.0
C      1  0.5813800000000  0.4595440000000  0.4860130000000 1.0
C      1  0.5257480000000  0.4758270000000  0.5626860000000 1.0
C      1  0.4239960000000  0.4504380000000  0.5215070000000 1.0
C      1  0.5315580000000  0.5801420000000  0.4998990000000 1.0
C      1  0.4530370000000  0.4182080000000  0.4957550000000 1.0
C      1  0.4354340000000  0.4964570000000  0.5001950000000 1.0
C      1  0.4309390000000  0.4991880000000  0.4465840000000 1.0
C      1  0.5665790000000  0.5555030000000  0.5203780000000 1.0
C      1  0.4295460000000  0.5236470000000  0.4977220000000 1.0
C      1  0.5295440000000  0.4331130000000  0.5318350000000 1.0
C      1  0.5037360000000  0.4691610000000  0.5775470000000 1.0
C      1  0.5689250000000  0.5797330000000  0.4902940000000 1.0
C      1  0.5680860000000  0.5045240000000  0.4363460000000 1.0
C      1  0.5823040000000  0.5033120000000  0.5039500000000 1.0
C      1  0.5357190000000  0.5017610000000  0.5626040000000 1.0
C      1  0.4391520000000  0.5321040000000  0.5439830000000 1.0
C      1  0.5102720000000  0.5652110000000  0.5118750000000 1.0
C      1  0.4963320000000  0.4395600000000  0.4934060000000 1.0
C      1  0.5468130000000  0.4276610000000  0.5085730000000 1.0
C      1  0.4390710000000  0.4810650000000  0.5488250000000 1.0
C      1  0.4555110000000  0.5030560000000  0.4334090000000 1.0
C      1  0.4968550000000  0.5278110000000  0.4269820000000 1.0
C      1  0.4510630000000  0.4595920000000  0.4398200000000 1.0
C      1  0.5124510000000  0.4588900000000  0.4801690000000 1.0
END
