TITL C-38196-2854-322 -1.321435592812e-06 125000 -366.706877917521 0 0 60 (C1) n - 1
REM
REM in /home/bkarasulu/CARBON/AIRSS/Generating-Clusters/EDIP-Nigel-Params/Higher-Symm/Box-15A/Only-C60/SD-CG/FIRE-HFTN
REM
REM
REM
REM
REM
REM ./C.cell (414f73aa93bd7a1190c7fd0f31ff2f98)
REM
REM compiler GCC version 9.2.1 20190827 (Red Hat 9.2.1-1)
REM options -cpp -mtune=generic -march=x86-64 -g -O0 -fpre-include=/usr/include/finclude/math-vector-fortran.h
REM seed 1182801859 -1983857685 2095285495 -167758628 395534709 333640353 -1662968446 -1901637654 1683037588 -2013137805 450124324 -813600440 -1324105145 -880438731 -1392014553 188746247 -535731705 -1204879946 345559295 -448369936 -650191448 1902794710 -1805094341 909965077 -1668602292 -818415252 -143829236 -909972255 -1165678595 -537708775 -349298596 -1765724790 311930115
REM
CELL 1.54180   50.00000   50.00000   50.00000   90.00000   90.00000   90.00000
LATT -1
SFAC C  
C      1  0.5446770000000  0.4516300000000  0.5317370000000 1.0
C      1  0.5196540000000  0.5610910000000  0.5326930000000 1.0
C      1  0.4356610000000  0.4866230000000  0.5318600000000 1.0
C      1  0.4426590000000  0.5352240000000  0.5240590000000 1.0
C      1  0.4982860000000  0.4342350000000  0.5254660000000 1.0
C      1  0.5579870000000  0.5316720000000  0.5246850000000 1.0
C      1  0.4896240000000  0.5262220000000  0.5049040000000 1.0
C      1  0.4826000000000  0.4783470000000  0.5052560000000 1.0
C      1  0.5277850000000  0.4960220000000  0.5051420000000 1.0
C      1  0.4319960000000  0.5118640000000  0.4835410000000 1.0
C      1  0.5237430000000  0.4354730000000  0.4843360000000 1.0
C      1  0.5440810000000  0.5532380000000  0.4839510000000 1.0
C      1  0.4909150000000  0.5679230000000  0.5254380000000 1.0
C      1  0.4458050000000  0.4587600000000  0.5258810000000 1.0
C      1  0.5639340000000  0.4740030000000  0.5250340000000 1.0
C      1  0.4498020000000  0.5528420000000  0.5007580000000 1.0
C      1  0.4796150000000  0.4306980000000  0.5019950000000 1.0
C      1  0.5705460000000  0.5174580000000  0.5012420000000 1.0
C      1  0.4608440000000  0.5328100000000  0.5476590000000 1.0
C      1  0.4914910000000  0.4526910000000  0.5482450000000 1.0
C      1  0.5455750000000  0.5163550000000  0.5473330000000 1.0
C      1  0.5104980000000  0.4742880000000  0.5045070000000 1.0
C      1  0.5171600000000  0.5220780000000  0.5038810000000 1.0
C      1  0.4722490000000  0.5041670000000  0.5043370000000 1.0
C      1  0.4741750000000  0.5531560000000  0.4516990000000 1.0
C      1  0.4670020000000  0.4509480000000  0.4522070000000 1.0
C      1  0.5590390000000  0.4958840000000  0.4518000000000 1.0
C      1  0.4631620000000  0.4565190000000  0.5011060000000 1.0
C      1  0.5564360000000  0.4902050000000  0.5005960000000 1.0
C      1  0.4804770000000  0.5539690000000  0.5005270000000 1.0
C      1  0.4811230000000  0.4969230000000  0.5751470000000 1.0
C      1  0.5177810000000  0.4843910000000  0.5788220000000 1.0
C      1  0.5064970000000  0.5112340000000  0.5764870000000 1.0
C      1  0.4366910000000  0.5398880000000  0.4784070000000 1.0
C      1  0.4971760000000  0.4253010000000  0.4796080000000 1.0
C      1  0.5662260000000  0.5354480000000  0.4789920000000 1.0
C      1  0.5499240000000  0.4863600000000  0.5493220000000 1.0
C      1  0.4861790000000  0.5492380000000  0.5493600000000 1.0
C      1  0.4639920000000  0.4658460000000  0.5494680000000 1.0
C      1  0.5234160000000  0.5351440000000  0.4399240000000 1.0
C      1  0.4580260000000  0.5025300000000  0.4399150000000 1.0
C      1  0.5187610000000  0.4621810000000  0.4402110000000 1.0
C      1  0.4973710000000  0.5340710000000  0.4271040000000 1.0
C      1  0.4719130000000  0.4803650000000  0.4273120000000 1.0
C      1  0.5308630000000  0.4852270000000  0.4273020000000 1.0
C      1  0.5189580000000  0.5293330000000  0.5555790000000 1.0
C      1  0.4595170000000  0.5042050000000  0.5570570000000 1.0
C      1  0.5181110000000  0.4648090000000  0.5569940000000 1.0
C      1  0.4437640000000  0.5079810000000  0.5109500000000 1.0
C      1  0.5214700000000  0.4479230000000  0.5115710000000 1.0
C      1  0.5344310000000  0.5446850000000  0.5111990000000 1.0
C      1  0.4440890000000  0.4918210000000  0.4646540000000 1.0
C      1  0.5350140000000  0.4557330000000  0.4650000000000 1.0
C      1  0.5209530000000  0.5527270000000  0.4646140000000 1.0
C      1  0.4766150000000  0.5250750000000  0.4449250000000 1.0
C      1  0.4900110000000  0.4670650000000  0.4452690000000 1.0
C      1  0.5335260000000  0.5077690000000  0.4450380000000 1.0
C      1  0.4497790000000  0.4621930000000  0.4728490000000 1.0
C      1  0.5579760000000  0.4755400000000  0.4726130000000 1.0
C      1  0.4923720000000  0.5625970000000  0.4724360000000 1.0
END
