TITL C-38194-9318-556 -0.00029333537999816 125000 -356.627561247063 0 0 60 (C1) n - 1
REM
REM in /home/bkarasulu/CARBON/AIRSS/Generating-Clusters/EDIP-Nigel-Params/Higher-Symm/Box-15A/Only-C60/SD-CG/FIRE-HFTN
REM
REM
REM
REM
REM
REM ./C.cell (414f73aa93bd7a1190c7fd0f31ff2f98)
REM
REM compiler GCC version 9.2.1 20190827 (Red Hat 9.2.1-1)
REM options -cpp -mtune=generic -march=x86-64 -g -O0 -fpre-include=/usr/include/finclude/math-vector-fortran.h
REM seed 244328098 1934435494 636060459 934607815 -1796676949 1922205944 840791548 -271160883 -248986263 422835920 -186832056 -1223073248 -1654080993 1565305154 2134036587 -1718817000 1947706669 -1561046348 950079534 -982836675 879432725 990719420 48354674 331005368 63162308 -1438608672 105897436 370042541 34074095 450628345 823412431 -408615447 -963721148
REM
CELL 1.54180   50.00000   50.00000   50.00000   90.00000   90.00000   90.00000
LATT -1
SFAC C  
C      1  0.5377250000000  0.4273820000000  0.5224370000000 1.0
C      1  0.4625240000000  0.4267270000000  0.5225840000000 1.0
C      1  0.4655880000000  0.5436750000000  0.4765510000000 1.0
C      1  0.5356100000000  0.5452440000000  0.4758140000000 1.0
C      1  0.5455630000000  0.4221720000000  0.4951960000000 1.0
C      1  0.4547400000000  0.4215680000000  0.4953170000000 1.0
C      1  0.4448910000000  0.4409330000000  0.5385200000000 1.0
C      1  0.5549020000000  0.4423910000000  0.5381290000000 1.0
C      1  0.4545830000000  0.5701300000000  0.5173290000000 1.0
C      1  0.5473320000000  0.5705740000000  0.5153750000000 1.0
C      1  0.5231330000000  0.4958290000000  0.5527850000000 1.0
C      1  0.4731850000000  0.4984700000000  0.5469740000000 1.0
C      1  0.4477910000000  0.5477010000000  0.5003250000000 1.0
C      1  0.5565930000000  0.5503380000000  0.4966040000000 1.0
C      1  0.5791130000000  0.5037030000000  0.5103160000000 1.0
C      1  0.4217250000000  0.5026640000000  0.5115920000000 1.0
C      1  0.4721120000000  0.4841540000000  0.4303810000000 1.0
C      1  0.5274320000000  0.4844290000000  0.4301810000000 1.0
C      1  0.5703480000000  0.5286380000000  0.5071930000000 1.0
C      1  0.4318320000000  0.5271730000000  0.5097570000000 1.0
C      1  0.4845890000000  0.4879270000000  0.5210570000000 1.0
C      1  0.5146310000000  0.4895610000000  0.5237320000000 1.0
C      1  0.5105610000000  0.4768570000000  0.5703890000000 1.0
C      1  0.4838090000000  0.4818630000000  0.5676610000000 1.0
C      1  0.4850130000000  0.5258810000000  0.5500660000000 1.0
C      1  0.5129010000000  0.5234920000000  0.5594380000000 1.0
C      1  0.4858240000000  0.5755400000000  0.4862060000000 1.0
C      1  0.5167000000000  0.5784480000000  0.4839970000000 1.0
C      1  0.5270240000000  0.4475230000000  0.4640280000000 1.0
C      1  0.4728820000000  0.4472640000000  0.4642020000000 1.0
C      1  0.4868880000000  0.5665810000000  0.4372640000000 1.0
C      1  0.5135090000000  0.5662990000000  0.4357760000000 1.0
C      1  0.5249660000000  0.5061110000000  0.5032720000000 1.0
C      1  0.4766120000000  0.5012380000000  0.4973210000000 1.0
C      1  0.4465310000000  0.4432520000000  0.4767180000000 1.0
C      1  0.5534530000000  0.4438330000000  0.4764570000000 1.0
C      1  0.5309210000000  0.5444590000000  0.5563210000000 1.0
C      1  0.4679230000000  0.5466340000000  0.5575820000000 1.0
C      1  0.5443130000000  0.5622730000000  0.5416700000000 1.0
C      1  0.4540750000000  0.5656980000000  0.5447660000000 1.0
C      1  0.4839400000000  0.5036170000000  0.4157570000000 1.0
C      1  0.5108630000000  0.5013980000000  0.4172970000000 1.0
C      1  0.4853820000000  0.4640830000000  0.4442620000000 1.0
C      1  0.5142670000000  0.4642820000000  0.4441850000000 1.0
C      1  0.4868610000000  0.4171250000000  0.5318020000000 1.0
C      1  0.5135830000000  0.4174000000000  0.5317680000000 1.0
C      1  0.4863230000000  0.5221980000000  0.4814820000000 1.0
C      1  0.5148660000000  0.5259240000000  0.4864490000000 1.0
C      1  0.5316360000000  0.5911120000000  0.5049720000000 1.0
C      1  0.4714200000000  0.5896740000000  0.5066390000000 1.0
C      1  0.4219150000000  0.4752040000000  0.5103730000000 1.0
C      1  0.5780750000000  0.4762410000000  0.5096540000000 1.0
C      1  0.4861140000000  0.4236160000000  0.4736910000000 1.0
C      1  0.5140620000000  0.4237840000000  0.4736570000000 1.0
C      1  0.4714370000000  0.5693170000000  0.4600030000000 1.0
C      1  0.5299540000000  0.5697890000000  0.4577400000000 1.0
C      1  0.4279120000000  0.4609350000000  0.5332500000000 1.0
C      1  0.5716270000000  0.4625700000000  0.5327580000000 1.0
C      1  0.5701860000000  0.4639360000000  0.4862180000000 1.0
C      1  0.4297310000000  0.4631690000000  0.4867610000000 1.0
END
