TITL C-38198-1686-90 309.313648012267 125000 -344.505444582457 0 0 60 (C3) n - 1
REM
REM in /home/bkarasulu/CARBON/AIRSS/Generating-Clusters/EDIP-Nigel-Params/Higher-Symm/Box-15A/Only-C60/SD-CG/FIRE-HFTN
REM
REM
REM
REM
REM
REM ./C.cell (414f73aa93bd7a1190c7fd0f31ff2f98)
REM
REM compiler GCC version 9.2.1 20190827 (Red Hat 9.2.1-1)
REM options -cpp -mtune=generic -march=x86-64 -g -O0 -fpre-include=/usr/include/finclude/math-vector-fortran.h
REM seed -1307239545 182062962 -1274761184 468628851 -1089792211 -2041946701 494335374 -1698939756 474566105 681789345 269430524 1427675939 596979983 -706177817 -2068933886 1330579413 1635574624 1024569994 -916296415 -621525000 972770434 -2059628080 268065536 604687211 2015896134 1853233394 544997050 1152392046 2076081173 -662055497 1211255667 258277240 448206586
REM
CELL 1.54180   50.00000   50.00000   50.00000   90.00000   90.00000   90.00000
LATT -1
SFAC C  
C      1  0.5755750000000  0.4846330000000  0.5135960000000 1.0
C      1  0.4504090000000  0.4846030000000  0.5586690000000 1.0
C      1  0.4739590000000  0.4846410000000  0.4277360000000 1.0
C      1  0.4095480000000  0.5072750000000  0.5444200000000 1.0
C      1  0.5067290000000  0.5073270000000  0.3994850000000 1.0
C      1  0.5836550000000  0.5072960000000  0.5561140000000 1.0
C      1  0.4992850000000  0.4926960000000  0.5651990000000 1.0
C      1  0.4438650000000  0.4927150000000  0.4668020000000 1.0
C      1  0.5567900000000  0.4927300000000  0.4680050000000 1.0
C      1  0.5493850000000  0.5201280000000  0.3330280000000 1.0
C      1  0.6198700000000  0.5200560000000  0.6262960000000 1.0
C      1  0.3306610000000  0.5200400000000  0.5407070000000 1.0
C      1  0.4604410000000  0.4750510000000  0.4805290000000 1.0
C      1  0.5366130000000  0.4750620000000  0.4754880000000 1.0
C      1  0.5028920000000  0.4750390000000  0.5439750000000 1.0
C      1  0.4408380000000  0.5177800000000  0.4790710000000 1.0
C      1  0.5476790000000  0.5178000000000  0.4592620000000 1.0
C      1  0.5114130000000  0.5177670000000  0.5616930000000 1.0
C      1  0.3572000000000  0.5139890000000  0.5427840000000 1.0
C      1  0.5343220000000  0.5140640000000  0.3549720000000 1.0
C      1  0.6084070000000  0.5140160000000  0.6022690000000 1.0
C      1  0.4958900000000  0.5030050000000  0.4243000000000 1.0
C      1  0.5675850000000  0.5029850000000  0.5343160000000 1.0
C      1  0.4364610000000  0.5029650000000  0.5413990000000 1.0
C      1  0.6181490000000  0.4666610000000  0.6496810000000 1.0
C      1  0.3112800000000  0.4667100000000  0.5272450000000 1.0
C      1  0.5708140000000  0.4668260000000  0.3230010000000 1.0
C      1  0.5085240000000  0.5430800000000  0.4686720000000 1.0
C      1  0.5228410000000  0.5430680000000  0.5230930000000 1.0
C      1  0.4685540000000  0.5430640000000  0.5082810000000 1.0
C      1  0.4765430000000  0.5325210000000  0.5325260000000 1.0
C      1  0.4835320000000  0.5325410000000  0.4634640000000 1.0
C      1  0.5398480000000  0.5325370000000  0.5040470000000 1.0
C      1  0.3045910000000  0.4939360000000  0.5321400000000 1.0
C      1  0.5698810000000  0.4940470000000  0.3147490000000 1.0
C      1  0.6256180000000  0.4939110000000  0.6530880000000 1.0
C      1  0.4825220000000  0.4735880000000  0.4975190000000 1.0
C      1  0.5108580000000  0.4735950000000  0.4861150000000 1.0
C      1  0.5065660000000  0.4735860000000  0.5163570000000 1.0
C      1  0.4622310000000  0.5353300000000  0.4825380000000 1.0
C      1  0.5339790000000  0.5353420000000  0.4760650000000 1.0
C      1  0.5037110000000  0.5353200000000  0.5414370000000 1.0
C      1  0.5778540000000  0.4950860000000  0.4872830000000 1.0
C      1  0.4720580000000  0.4950480000000  0.5738040000000 1.0
C      1  0.4500260000000  0.4950810000000  0.4389220000000 1.0
C      1  0.5940720000000  0.4562560000000  0.3353000000000 1.0
C      1  0.5959410000000  0.4559220000000  0.6636600000000 1.0
C      1  0.3103020000000  0.4561020000000  0.5009690000000 1.0
C      1  0.2916000000000  0.4481860000000  0.5186730000000 1.0
C      1  0.5881070000000  0.4483210000000  0.3102540000000 1.0
C      1  0.6206650000000  0.4480940000000  0.6709620000000 1.0
C      1  0.3112200000000  0.5070860000000  0.5557220000000 1.0
C      1  0.5461260000000  0.5071600000000  0.3086890000000 1.0
C      1  0.6426570000000  0.5071770000000  0.6355750000000 1.0
C      1  0.5665200000000  0.5227800000000  0.5116650000000 1.0
C      1  0.4566100000000  0.5227540000000  0.5518120000000 1.0
C      1  0.4767970000000  0.5227880000000  0.4365530000000 1.0
C      1  0.3834250000000  0.5109160000000  0.5428110000000 1.0
C      1  0.5211840000000  0.5109800000000  0.3776680000000 1.0
C      1  0.5953180000000  0.5109400000000  0.5795440000000 1.0
END
