TITL C-38196-2854-174 9.29595660500036e-07 125000 -375.452779771167 0 0 60 (D5d) n - 1
REM
REM in /home/bkarasulu/CARBON/AIRSS/Generating-Clusters/EDIP-Nigel-Params/Higher-Symm/Box-15A/Only-C60/SD-CG/FIRE-HFTN
REM
REM
REM
REM
REM
REM ./C.cell (414f73aa93bd7a1190c7fd0f31ff2f98)
REM
REM compiler GCC version 9.2.1 20190827 (Red Hat 9.2.1-1)
REM options -cpp -mtune=generic -march=x86-64 -g -O0 -fpre-include=/usr/include/finclude/math-vector-fortran.h
REM seed 152703325 -907970538 129844528 -1095465937 994711942 -242003362 -591664451 1836538247 -566276955 21068252 -1908047232 253149707 459244784 1459347680 1706360470 1097186224 -1786324011 1064356353 1557332472 -1347156821 -9182974 -697568697 -1406566813 -196513955 -1164523253 1211387928 879036383 1963318708 -295461491 -201062001 619510937 950080552 -493412387
REM
CELL 1.54180   50.00000   50.00000   50.00000   90.00000   90.00000   90.00000
LATT -1
SFAC C  
C      1  0.5143190000000  0.5521380000000  0.5613990000000 1.0
C      1  0.5540110000000  0.5024940000000  0.5613990000000 1.0
C      1  0.5190620000000  0.4494030000000  0.5613990000000 1.0
C      1  0.4577700000000  0.4662360000000  0.5613990000000 1.0
C      1  0.4548380000000  0.5297300000000  0.5613990000000 1.0
C      1  0.4856810000000  0.5521380000000  0.5613990000000 1.0
C      1  0.4459890000000  0.5024940000000  0.5613990000000 1.0
C      1  0.4809380000000  0.4494030000000  0.5613990000000 1.0
C      1  0.5422300000000  0.4662360000000  0.5613990000000 1.0
C      1  0.5451620000000  0.5297300000000  0.5613990000000 1.0
C      1  0.5516690000000  0.4534310000000  0.5126040000000 1.0
C      1  0.4716770000000  0.4364700000000  0.5126040000000 1.0
C      1  0.4308270000000  0.5073050000000  0.5126040000000 1.0
C      1  0.4855720000000  0.5680450000000  0.5126040000000 1.0
C      1  0.5602560000000  0.5347490000000  0.5126040000000 1.0
C      1  0.4483310000000  0.4534310000000  0.5126040000000 1.0
C      1  0.5283230000000  0.4364700000000  0.5126040000000 1.0
C      1  0.5691730000000  0.5073050000000  0.5126040000000 1.0
C      1  0.5144280000000  0.5680450000000  0.5126040000000 1.0
C      1  0.4397440000000  0.5347490000000  0.5126040000000 1.0
C      1  0.5145600000000  0.4320200000000  0.5382520000000 1.0
C      1  0.4398460000000  0.4651460000000  0.5382520000000 1.0
C      1  0.4482630000000  0.5464390000000  0.5382510000000 1.0
C      1  0.5281790000000  0.5635550000000  0.5382510000000 1.0
C      1  0.5691520000000  0.4928400000000  0.5382520000000 1.0
C      1  0.4854400000000  0.4320200000000  0.5382520000000 1.0
C      1  0.5601540000000  0.4651460000000  0.5382520000000 1.0
C      1  0.5517370000000  0.5464390000000  0.5382510000000 1.0
C      1  0.4718210000000  0.5635550000000  0.5382510000000 1.0
C      1  0.4308480000000  0.4928400000000  0.5382520000000 1.0
C      1  0.4856810000000  0.4478620000000  0.4386010000000 1.0
C      1  0.4459890000000  0.4975060000000  0.4386010000000 1.0
C      1  0.4809380000000  0.5505970000000  0.4386010000000 1.0
C      1  0.5422300000000  0.5337640000000  0.4386010000000 1.0
C      1  0.5451620000000  0.4702700000000  0.4386010000000 1.0
C      1  0.5143190000000  0.4478620000000  0.4386010000000 1.0
C      1  0.5540110000000  0.4975060000000  0.4386010000000 1.0
C      1  0.5190620000000  0.5505970000000  0.4386010000000 1.0
C      1  0.4577700000000  0.5337640000000  0.4386010000000 1.0
C      1  0.4548380000000  0.4702700000000  0.4386010000000 1.0
C      1  0.5601540000000  0.5348540000000  0.4617490000000 1.0
C      1  0.5517370000000  0.4535610000000  0.4617490000000 1.0
C      1  0.4718210000000  0.4364450000000  0.4617490000000 1.0
C      1  0.4308480000000  0.5071600000000  0.4617490000000 1.0
C      1  0.4854400000000  0.5679800000000  0.4617490000000 1.0
C      1  0.4398460000000  0.5348540000000  0.4617490000000 1.0
C      1  0.4482630000000  0.4535610000000  0.4617490000000 1.0
C      1  0.5281790000000  0.4364450000000  0.4617490000000 1.0
C      1  0.5691520000000  0.5071600000000  0.4617490000000 1.0
C      1  0.5145600000000  0.5679800000000  0.4617490000000 1.0
C      1  0.5283230000000  0.5635300000000  0.4873960000000 1.0
C      1  0.5691730000000  0.4926950000000  0.4873960000000 1.0
C      1  0.5144280000000  0.4319550000000  0.4873960000000 1.0
C      1  0.4397440000000  0.4652510000000  0.4873960000000 1.0
C      1  0.4483310000000  0.5465690000000  0.4873960000000 1.0
C      1  0.4716770000000  0.5635300000000  0.4873960000000 1.0
C      1  0.4308270000000  0.4926950000000  0.4873960000000 1.0
C      1  0.4855720000000  0.4319550000000  0.4873960000000 1.0
C      1  0.5602560000000  0.4652510000000  0.4873960000000 1.0
C      1  0.5516690000000  0.5465690000000  0.4873960000000 1.0
END
